@<TRIPOS>MOLECULE
tmp/4y29A00.pdb
 150 144 0 0 0
SMALL
GASTEIGER

@<TRIPOS>ATOM
      1  N         12.6150    4.8290   17.1740 N.3    74  VAL74      -0.1231
      2  CA        12.5590    6.0490   16.3690 C.3    74  VAL74       0.1692
      3  C         13.9340    6.5810   16.1200 C.2    74  VAL74       0.2591
      4  O         14.2380    7.0370   15.0060 O.2    74  VAL74      -0.2718
      5  CB        11.6600    7.1020   16.9960 C.3    74  VAL74       0.0266
      6  CG1       11.7750    8.4190   16.2570 C.3    74  VAL74       0.0020
      7  CG2       10.2230    6.5870   17.0400 C.3    74  VAL74       0.0020
      8  N         14.7780    6.6210   17.1670 N.am   75  GLN75      -0.1979
      9  CA        16.1400    7.0900   16.9980 C.3    75  GLN75       0.1601
     10  C         16.9790    6.2540   16.0590 C.2    75  GLN75       0.2287
     11  O         17.7430    6.7980   15.2460 O.2    75  GLN75      -0.2864
     12  CB        16.8360    7.1860   18.3820 C.3    75  GLN75       0.0394
     13  CG        16.1970    8.4370   19.1270 C.3    75  GLN75       0.0908
     14  CD        16.7830    8.5920   20.5060 C.2    75  GLN75       0.2608
     15  OE1       17.9380    8.9860   20.6740 O.2    75  GLN75      -0.2717
     16  NE2       16.0350    8.1640   21.4790 N.am   75  GLN75      -0.0878
     17  N         15.6780    6.8980   12.5210 N.3    78  THR78      -0.1203
     18  CA        16.2060    8.1990   12.0540 C.3    78  THR78       0.1994
     19  C         17.6600    8.1150   11.5330 C.2    78  THR78       0.2617
     20  O         18.0510    8.6960   10.4930 O.2    78  THR78      -0.2717
     21  CB        16.0760    9.2910   13.1880 C.3    78  THR78       0.1784
     22  OG1       14.6790    9.4200   13.5270 O.3    78  THR78      -0.2211
     23  CG2       16.5810   10.6090   12.6510 C.3    78  THR78       0.0376
     24  N         18.5140    7.4560   12.3300 N.am   79  GLU79      -0.1979
     25  CA        19.8880    7.2070   11.9210 C.3    79  GLU79       0.1602
     26  C         19.9450    6.4430   10.6000 C.2    79  GLU79       0.2287
     27  O         20.6720    6.8090    9.6760 O.2    79  GLU79      -0.2864
     28  CB        20.6870    6.4540   13.0350 C.3    79  GLU79       0.0415
     29  CG        21.0510    7.4040   14.2250 C.3    79  GLU79       0.1163
     30  CD        21.5330    8.8450   13.7730 C.2    79  GLU79       0.3649
     31  OE1       22.6910    8.9150   13.3080 O.co2  79  GLU79      -0.2457
     32  OE2       20.7610    9.8870   13.8780 O.co2  79  GLU79      -0.2457
     33  N         18.9090    8.6590    7.5210 N.3    82  LYS82      -0.1245
     34  CA        20.0110    9.6000    7.1080 C.3    82  LYS82       0.1561
     35  C         21.1150    8.9590    6.2410 C.2    82  LYS82       0.2260
     36  O         21.8230    9.6630    5.5100 O.2    82  LYS82      -0.2867
     37  CB        20.6860   10.2180    8.3480 C.3    82  LYS82       0.0271
     38  CG        19.7870   11.2990    9.0790 C.3    82  LYS82       0.0035
     39  CD        20.1480   11.3230   10.6400 C.3    82  LYS82       0.0206
     40  CE        21.4650   12.0560   10.8880 C.3    82  LYS82       0.1093
     41  NZ        21.4850   12.3750   12.3970 N.3    82  LYS82      -0.1314
     42  N         18.7620   11.5220    1.0580 N.3    87  PHE87      -0.1227
     43  CA        17.7360   11.8350    2.0390 C.3    87  PHE87       0.1736
     44  C         18.1290   13.0980    2.8030 C.2    87  PHE87       0.2595
     45  O         17.2740   13.9650    2.9850 O.2    87  PHE87      -0.2718
     46  CB        17.5420   10.6090    3.0290 C.3    87  PHE87       0.0547
     47  CG        16.5130   10.8640    4.1230 C.ar   87  PHE87      -0.0202
     48  CD1       16.8660   11.4810    5.3050 C.ar   87  PHE87      -0.0042
     49  CD2       15.1750   10.5000    3.9260 C.ar   87  PHE87      -0.0042
     50  CE1       15.8950   11.7220    6.3160 C.ar   87  PHE87      -0.0003
     51  CE2       14.1670   10.7120    4.9020 C.ar   87  PHE87      -0.0003
     52  CZ        14.4880   11.3630    6.0930 C.ar   87  PHE87      -0.0000
     53  N         19.4000   13.2300    3.2050 N.am   88  VAL88      -0.1980
     54  CA        19.7920   14.4140    4.0050 C.3    88  VAL88       0.1595
     55  C         19.8120   15.6750    3.1640 C.2    88  VAL88       0.2287
     56  O         19.8100   16.7700    3.7310 O.2    88  VAL88      -0.2864
     57  CB        21.1710   14.2680    4.7210 C.3    88  VAL88       0.0276
     58  CG1       21.1770   13.0320    5.6950 C.3    88  VAL88       0.0022
     59  CG2       22.3660   14.1080    3.7080 C.3    88  VAL88       0.0022
     60  N         14.5890   19.9750    4.9160 N.3    92  LEU92      -0.1231
     61  CA        14.6050   19.4120    6.2720 C.3    92  LEU92       0.1693
     62  C         13.1810   19.2060    6.8430 C.2    92  LEU92       0.2592
     63  O         12.9490   18.2670    7.6000 O.2    92  LEU92      -0.2718
     64  CB        15.4680   20.2830    7.2100 C.3    92  LEU92       0.0284
     65  CG        15.5550   19.7450    8.6260 C.3    92  LEU92       0.0019
     66  CD1       16.3010   18.3210    8.6650 C.3    92  LEU92       0.0001
     67  CD2       16.3920   20.7590    9.4930 C.3    92  LEU92       0.0001
     68  N         12.2460   20.0960    6.4970 N.am   93  ASN93      -0.1974
     69  CA        10.8260   19.8770    6.8920 C.3    93  ASN93       0.1688
     70  C         10.2280   18.5760    6.2830 C.2    93  ASN93       0.2292
     71  O          9.4340   17.8680    6.9370 O.2    93  ASN93      -0.2864
     72  CB         9.9960   21.1140    6.4750 C.3    93  ASN93       0.1181
     73  CG        10.5250   22.3800    7.1420 C.2    93  ASN93       0.2629
     74  OD1       10.4760   22.4680    8.3640 O.2    93  ASN93      -0.2716
     75  ND2       11.1020   23.3000    6.3610 N.am   93  ASN93      -0.0877
     76  N         12.0740   15.8850    5.4890 N.3    95  GLN95      -0.1231
     77  CA        12.6270   14.7790    6.2860 C.3    95  GLN95       0.1698
     78  C         11.8390   14.5120    7.5480 C.2    95  GLN95       0.2592
     79  O         11.6020   13.3470    7.8980 O.2    95  GLN95      -0.2718
     80  CB        14.1370   15.0400    6.7170 C.3    95  GLN95       0.0381
     81  CG        15.0210   15.2700    5.4790 C.3    95  GLN95       0.0905
     82  CD        16.4430   15.6510    5.8990 C.2    95  GLN95       0.2608
     83  OE1       17.0280   15.0480    6.8010 O.2    95  GLN95      -0.2717
     84  NE2       16.9700   16.6940    5.2790 N.am   95  GLN95      -0.0878
     85  N         11.5030   15.5890    8.2690 N.am   96  VAL96      -0.1980
     86  CA        10.7620   15.4570    9.5020 C.3    96  VAL96       0.1595
     87  C          9.4220   14.8020    9.1740 C.2    96  VAL96       0.2287
     88  O          8.9880   13.8530    9.8530 O.2    96  VAL96      -0.2864
     89  CB        10.5010   16.8130   10.1210 C.3    96  VAL96       0.0276
     90  CG1        9.3730   16.7380   11.1850 C.3    96  VAL96       0.0022
     91  CG2       11.8220   17.3400   10.7290 C.3    96  VAL96       0.0022
     92  N          9.6160   10.9970    8.4070 N.3    99  LEU99      -0.1231
     93  CA         9.8400   10.2010    9.6090 C.3    99  LEU99       0.1693
     94  C          8.6150   10.2060   10.4840 C.2    99  LEU99       0.2591
     95  O          8.2370    9.1590   11.0230 O.2    99  LEU99      -0.2718
     96  CB        11.0680   10.6910   10.3560 C.3    99  LEU99       0.0284
     97  CG        12.3840   10.1650    9.7390 C.3    99  LEU99       0.0019
     98  CD1       13.4140   10.9190   10.4000 C.3    99  LEU99       0.0001
     99  CD2       12.6550    8.6540   10.0780 C.3    99  LEU99       0.0001
    100  N          7.9540   11.3560   10.5800 N.am  100  LYS100     -0.1980
    101  CA         6.7640   11.4450   11.3900 C.3   100  LYS100      0.1596
    102  C          5.6580   10.4520   10.9550 C.2   100  LYS100      0.2287
    103  O          5.1120    9.6860   11.8020 O.2   100  LYS100     -0.2864
    104  CB         6.2600   12.9030   11.4370 C.3   100  LYS100      0.0298
    105  CG         4.8330   13.0420   12.0560 C.3   100  LYS100      0.0038
    106  CD         4.3380   14.5070   11.9740 C.3   100  LYS100      0.0206
    107  CE         3.1060   14.6460   12.8720 C.3   100  LYS100      0.1093
    108  NZ         2.6780   16.0780   12.9180 N.3   100  LYS100     -0.1314
    109  N          5.7020    9.9640   25.9940 N.3   247  HIS247     -0.1227
    110  CA         7.0190   10.5160   25.8620 C.3   247  HIS247      0.1737
    111  C          6.9810   11.6820   24.8330 C.2   247  HIS247      0.2438
    112  O          6.2230   11.6620   23.8530 O.2   247  HIS247     -0.2733
    113  CB         7.9320    9.3740   25.4810 C.3   247  HIS247      0.0758
    114  CG         9.3580    9.7540   25.3930 C.ar  247  HIS247      0.0818
    115  ND1        9.8220   10.6870   24.4880 N.ar  247  HIS247     -0.2268
    116  CD2       10.4400    9.3100   26.0750 C.ar  247  HIS247      0.1154
    117  CE1       11.1340   10.7720   24.5870 C.ar  247  HIS247      0.1986
    118  NE2       11.5300    9.9730   25.5630 N.ar  247  HIS247     -0.2212
    119  N          7.7040   12.7660   25.1050 N.am  248  PRO248     -0.2718
    120  CA         7.6200   13.9490   24.2160 C.3   248  PRO248      0.1535
    121  C          7.8990   13.6610   22.7100 C.2   248  PRO248      0.2598
    122  O          7.2460   14.2620   21.7850 O.2   248  PRO248     -0.2715
    123  CB         8.6490   14.9210   24.8390 C.3   248  PRO248      0.0310
    124  CG         8.7790   14.5010   26.2300 C.3   248  PRO248      0.0237
    125  CD         8.5690   13.0160   26.2750 C.3   248  PRO248      0.0939
    126  N          8.8070   12.6980   22.4600 N.am  249  LEU249     -0.1978
    127  CA         9.0570   12.2930   21.0790 C.3   249  LEU249      0.1596
    128  C          7.7970   11.6710   20.4430 C.2   249  LEU249      0.2287
    129  O          7.5160   11.9800   19.2600 O.2   249  LEU249     -0.2864
    130  CB        10.2660   11.3380   20.9430 C.3   249  LEU249      0.0297
    131  CG        10.6540   10.9070   19.5290 C.3   249  LEU249      0.0022
    132  CD1       10.9620   12.1580   18.6490 C.3   249  LEU249      0.0001
    133  CD2       11.9020   10.0050   19.5440 C.3   249  LEU249      0.0001
    134  N          5.1810   14.2320   19.6680 N.3   252  GLU252     -0.1231
    135  CA         5.4610   14.9640   18.4220 C.3   252  GLU252      0.1699
    136  C          4.9450   14.1400   17.2350 C.2   252  GLU252      0.2592
    137  O          4.2810   14.6670   16.3120 O.2   252  GLU252     -0.2718
    138  CB         6.9760   15.2790   18.1950 C.3   252  GLU252      0.0402
    139  CG         7.1500   15.8980   16.7730 C.3   252  GLU252      0.1161
    140  CD         8.6070   16.2400   16.3640 C.2   252  GLU252      0.3649
    141  OE1        9.5220   15.9800   17.1280 O.co2 252  GLU252     -0.2457
    142  OE2        8.8170   16.8220   15.2530 O.co2 252  GLU252     -0.2457
    143  N          5.2810   12.8470   17.2600 N.am  253  ILE253     -0.1980
    144  CA         4.9180   12.0110   16.1760 C.3   253  ILE253      0.1595
    145  C          3.3790   11.9670   16.0760 C.2   253  ILE253      0.2287
    146  O          2.8440   11.9170   14.9970 O.2   253  ILE253     -0.2864
    147  CB         5.5770   10.6430   16.3250 C.3   253  ILE253      0.0276
    148  CG1        7.0820   10.8040   16.0190 C.3   253  ILE253      0.0022
    149  CG2        4.9460    9.5840   15.3820 C.3   253  ILE253      0.0022
    150  CD1        7.9210    9.6320   16.3580 C.3   253  ILE253      0.0001
@<TRIPOS>BOND
     1    42    43    1
     2    43    44    1
     3    43    46    1
     4    44    45    2
     5    44    53   am
     6    46    47    1
     7    55    56    2
     8    55    54    1
     9    53    54    1
    10    59    57    1
    11    49    47   ar
    12    49    51   ar
    13    54    57    1
    14    47    48   ar
    15    57    58    1
    16    51    52   ar
    17    60    61    1
    18    84    82   am
    19    48    50   ar
    20    81    82    1
    21    81    80    1
    22    76    77    1
    23    36    35    2
    24    82    83    2
    25    52    50   ar
    26    35    34    1
    27    61    62    1
    28    61    64    1
    29    70    69    1
    30    70    71    2
    31    77    80    1
    32    77    78    1
    33    75    73   am
    34    72    69    1
    35    72    73    1
    36    68    62   am
    37    68    69    1
    38    62    63    2
    39    34    33    1
    40    34    37    1
    41    73    74    2
    42    64    65    1
    43    78    79    2
    44    78    85   am
    45    85    86    1
    46    37    38    1
    47    92    93    1
    48    65    66    1
    49    65    67    1
    50    38    39    1
    51    87    86    1
    52    87    88    2
    53    86    89    1
    54    93    96    1
    55    93    94    1
    56    27    26    2
    57    97    99    1
    58    97    96    1
    59    97    98    1
    60    89    91    1
    61    89    90    1
    62    94   100   am
    63    94    95    2
    64    20    19    2
    65   100   101    1
    66    26    25    1
    67    39    40    1
    68    40    41    1
    69   102   101    1
    70   102   103    2
    71   101   104    1
    72   104   105    1
    73    19    18    1
    74    19    24   am
    75    25    24    1
    76    25    28    1
    77   106   105    1
    78   106   107    1
    79    18    17    1
    80    18    21    1
    81    23    21    1
    82   107   108    1
    83    28    29    1
    84    21    22    1
    85    31    30   ar
    86    30    32   ar
    87    30    29    1
    88   146   145    2
    89     4     3    2
    90    11    10    2
    91   142   140   ar
    92   149   147    1
    93   148   147    1
    94   148   150    1
    95    10     9    1
    96   145   144    1
    97     3     2    1
    98     3     8   am
    99   144   147    1
   100   144   143    1
   101     6     5    1
   102   137   136    2
   103   140   139    1
   104   140   141   ar
   105     2     5    1
   106     2     1    1
   107   139   138    1
   108     5     7    1
   109     9     8    1
   110     9    12    1
   111   136   143   am
   112   136   135    1
   113   138   135    1
   114    12    13    1
   115   135   134    1
   116   132   131    1
   117    13    14    1
   118   129   128    2
   119   131   133    1
   120   131   130    1
   121   128   127    1
   122    14    15    2
   123    14    16   am
   124   130   127    1
   125   127   126    1
   126   122   121    2
   127   126   121   am
   128   121   120    1
   129   112   111    2
   130   120   123    1
   131   120   119    1
   132   115   117   ar
   133   115   114   ar
   134   117   118   ar
   135   111   119   am
   136   111   110    1
   137   123   124    1
   138   119   125    1
   139   114   113    1
   140   114   116   ar
   141   113   110    1
   142   118   116   ar
   143   110   109    1
   144   124   125    1
