@<TRIPOS>MOLECULE
tmp/4y2aA00.pdb
 164 155 0 0 0
SMALL
GASTEIGER

@<TRIPOS>ATOM
      1  N         56.8290   38.9530   51.5460 N.3   107  LEU107     -0.1231
      2  CA        57.7320   39.0480   52.6840 C.3   107  LEU107      0.1693
      3  C         59.1680   38.7380   52.2740 C.2   107  LEU107      0.2591
      4  O         59.5540   37.5680   52.1960 O.2   107  LEU107     -0.2718
      5  CB        57.2940   38.1100   53.7750 C.3   107  LEU107      0.0284
      6  CG        58.1680   38.1990   55.0080 C.3   107  LEU107      0.0019
      7  CD1       57.8560   39.4950   55.7300 C.3   107  LEU107      0.0001
      8  CD2       57.9700   37.0170   55.9590 C.3   107  LEU107      0.0001
      9  N         59.9470   39.7920   52.0180 N.am  108  GLU108     -0.1979
     10  CA        61.3590   39.6440   51.6920 C.3   108  GLU108      0.1602
     11  C         62.1010   38.8020   52.7030 C.2   108  GLU108      0.2287
     12  O         61.7430   38.7870   53.8960 O.2   108  GLU108     -0.2864
     13  CB        62.0560   40.9980   51.6060 C.3   108  GLU108      0.0415
     14  CG        62.5360   41.3290   50.2080 C.3   108  GLU108      0.1163
     15  CD        62.1070   42.7160   49.7830 C.2   108  GLU108      0.3649
     16  OE1       62.1710   43.6350   50.6330 O.co2 108  GLU108     -0.2457
     17  OE2       61.6990   42.8800   48.6070 O.co2 108  GLU108     -0.2457
     18  N         64.8970   37.7990   55.3260 N.3   110  LEU110     -0.1231
     19  CA        65.7440   38.5270   56.2810 C.3   110  LEU110      0.1693
     20  C         66.9470   39.1930   55.6270 C.2   110  LEU110      0.2592
     21  O         67.6240   38.5750   54.8160 O.2   110  LEU110     -0.2718
     22  CB        66.3170   37.6040   57.3370 C.3   110  LEU110      0.0284
     23  CG        65.6050   37.7320   58.6650 C.3   110  LEU110      0.0019
     24  CD1       64.9530   36.4120   58.9820 C.3   110  LEU110      0.0001
     25  CD2       66.5800   38.1130   59.7600 C.3   110  LEU110      0.0001
     26  N         67.2220   40.4300   56.0220 N.am  111  ASP111     -0.1974
     27  CA        68.3410   41.1940   55.4930 C.3   111  ASP111      0.1709
     28  C         69.6370   40.6650   56.1230 C.2   111  ASP111      0.2293
     29  O         69.8150   40.7410   57.3500 O.2   111  ASP111     -0.2864
     30  CB        68.1300   42.6730   55.8470 C.3   111  ASP111      0.1436
     31  CG        69.1420   43.6190   55.2000 C.2   111  ASP111      0.3671
     32  OD1       70.2540   43.2290   54.7770 O.co2 111  ASP111     -0.2456
     33  OD2       68.7910   44.8110   55.1410 O.co2 111  ASP111     -0.2456
     34  N         72.2880   43.5800   57.8040 N.3   114  THR114     -0.1203
     35  CA        72.0170   44.2120   59.1070 C.3   114  THR114      0.1994
     36  C         72.4850   43.3590   60.2800 C.2   114  THR114      0.2618
     37  O         72.8000   42.1760   60.1310 O.2   114  THR114     -0.2717
     38  CB        70.5270   44.5210   59.3100 C.3   114  THR114      0.1784
     39  OG1       69.7390   43.3570   59.0390 O.3   114  THR114     -0.2211
     40  CG2       70.1090   45.6070   58.3970 C.3   114  THR114      0.0376
     41  N         72.5080   43.9590   61.4590 N.am  115  SER115     -0.1951
     42  CA        72.9940   43.2720   62.6450 C.3   115  SER115      0.1924
     43  C         72.1980   42.0340   63.0820 C.2   115  SER115      0.2314
     44  O         70.9820   41.9570   62.9170 O.2   115  SER115     -0.2863
     45  CB        73.0510   44.2400   63.8210 C.3   115  SER115      0.2116
     46  OG        73.5490   43.5780   64.9790 O.3   115  SER115     -0.2180
     47  N         75.2950   37.4000   60.3690 N.3   127  LYS127     -0.1245
     48  CA        74.1780   36.6510   59.8070 C.3   127  LYS127      0.1561
     49  C         74.6740   35.7130   58.7270 C.2   127  LYS127      0.2260
     50  O         74.2040   34.5780   58.6520 O.2   127  LYS127     -0.2867
     51  CB        73.0880   37.5830   59.2560 C.3   127  LYS127      0.0271
     52  CG        72.3000   38.3320   60.3290 C.3   127  LYS127      0.0035
     53  CD        71.2440   39.2480   59.7110 C.3   127  LYS127      0.0206
     54  CE        70.3390   39.9090   60.7520 C.3   127  LYS127      0.1093
     55  NZ        69.3400   40.8400   60.1560 N.3   127  LYS127     -0.1314
     56  N         67.0960   43.5880   66.8820 N.3   179  SER179     -0.1217
     57  CA        66.5620   42.4530   67.5980 C.3   179  SER179      0.1889
     58  C         67.5580   41.2960   67.4560 C.2   179  SER179      0.2288
     59  O         68.1800   41.1050   66.4030 O.2   179  SER179     -0.2866
     60  CB        65.1830   42.0740   67.0260 C.3   179  SER179      0.2089
     61  OG        64.2890   41.7130   68.0700 O.3   179  SER179     -0.2183
     62  N         64.1760   38.1630   65.8480 N.3   184  SER184     -0.1217
     63  CA        63.7490   38.5490   64.5380 C.3   184  SER184      0.1889
     64  C         63.0120   37.3700   63.9090 C.2   184  SER184      0.2288
     65  O         62.0040   37.5550   63.2430 O.2   184  SER184     -0.2866
     66  CB        64.9300   38.9730   63.6770 C.3   184  SER184      0.2089
     67  OG        64.5070   39.8430   62.6280 O.3   184  SER184     -0.2183
     68  N         58.9810   36.7850   62.8740 N.3   188  ARG188     -0.1245
     69  CA        58.5830   36.5560   61.4910 C.3   188  ARG188      0.1563
     70  C         57.7570   35.2400   61.3390 C.2   188  ARG188      0.2260
     71  O         56.9030   35.1240   60.4450 O.2   188  ARG188     -0.2867
     72  CB        59.7930   36.5810   60.5540 C.3   188  ARG188      0.0307
     73  CG        60.3920   37.9560   60.3980 C.3   188  ARG188      0.0489
     74  CD        61.6690   37.9890   59.5880 C.3   188  ARG188      0.2205
     75  NE        61.4970   37.5220   58.2180 N.pl3 188  ARG188     -0.0865
     76  CZ        61.6480   38.2210   57.0920 C.cat 188  ARG188      0.5346
     77  NH1       61.9210   39.4950   57.0970 N.pl3 188  ARG188      0.1354
     78  NH2       61.4990   37.6080   55.9130 N.pl3 188  ARG188      0.1354
     79  N         52.1430   40.0910   58.2450 N.3   195  TYR195     -0.1241
     80  CA        53.0120   40.9450   57.4270 C.3   195  TYR195      0.1605
     81  C         52.7120   40.7290   55.9260 C.2   195  TYR195      0.2264
     82  O         52.5950   41.6850   55.1340 O.2   195  TYR195     -0.2867
     83  CB        54.4930   40.6370   57.6960 C.3   195  TYR195      0.0534
     84  CG        54.9960   40.7350   59.1490 C.ar  195  TYR195     -0.0201
     85  CD1       54.2880   41.4230   60.1360 C.ar  195  TYR195     -0.0009
     86  CD2       56.2160   40.1800   59.5060 C.ar  195  TYR195     -0.0009
     87  CE1       54.7700   41.5130   61.4490 C.ar  195  TYR195      0.0417
     88  CE2       56.7170   40.2730   60.8040 C.ar  195  TYR195      0.0417
     89  CZ        55.9980   40.9360   61.7780 C.ar  195  TYR195      0.1957
     90  OH        56.5100   41.0410   63.0680 O.3   195  TYR195     -0.2866
     91  N         51.4690   43.7050   53.3490 N.3   199  HIS199     -0.1241
     92  CA        52.3170   44.0740   52.2050 C.3   199  HIS199      0.1621
     93  C         51.5590   43.8850   50.9340 C.2   199  HIS199      0.2264
     94  O         51.7180   44.6480   50.0100 O.2   199  HIS199     -0.2867
     95  CB        53.6340   43.2780   52.0980 C.3   199  HIS199      0.0745
     96  CG        54.5910   43.5130   53.2280 C.ar  199  HIS199      0.0817
     97  ND1       54.8170   44.7580   53.7760 N.ar  199  HIS199     -0.2268
     98  CD2       55.3850   42.6560   53.9110 C.ar  199  HIS199      0.1154
     99  CE1       55.6900   44.6530   54.7580 C.ar  199  HIS199      0.1986
    100  NE2       56.0490   43.3890   54.8600 N.ar  199  HIS199     -0.2212
    101  N         52.6380   50.4790   54.2260 N.3   210  VAL210     -0.1231
    102  CA        53.8650   49.6970   54.3680 C.3   210  VAL210      0.1692
    103  C         53.9990   48.6570   53.2850 C.2   210  VAL210      0.2592
    104  O         53.0890   47.8780   53.0560 O.2   210  VAL210     -0.2718
    105  CB        53.9060   48.9280   55.6880 C.3   210  VAL210      0.0266
    106  CG1       55.2510   48.2610   55.8340 C.3   210  VAL210      0.0020
    107  CG2       53.6500   49.8550   56.8700 C.3   210  VAL210      0.0020
    108  N         55.1350   48.6790   52.6140 N.am  211  GLY211     -0.1957
    109  CA        55.3850   47.7840   51.5290 C.3   211  GLY211      0.1869
    110  C         55.0340   48.3420   50.1780 C.2   211  GLY211      0.2309
    111  O         55.3680   47.7450   49.1700 O.2   211  GLY211     -0.2863
    112  N         62.8210   49.3210   64.6790 N.3   290  GLY290     -0.1210
    113  CA        63.8320   48.4700   64.0460 C.3   290  GLY290      0.1956
    114  C         63.6500   46.9610   64.2560 C.2   290  GLY290      0.2612
    115  O         64.0050   46.1670   63.3630 O.2   290  GLY290     -0.2717
    116  N         63.1190   46.5610   65.4220 N.am  291  CYS291     -0.1956
    117  CA        62.7500   45.1530   65.6790 C.3   291  CYS291      0.1843
    118  C         61.7700   44.6440   64.6070 C.2   291  CYS291      0.2626
    119  O         61.3060   45.4450   63.7650 O.2   291  CYS291     -0.2714
    120  CB        62.1220   44.9880   67.0630 C.3   291  CYS291      0.0997
    121  SG        63.1830   45.3550   68.5090 S.3   291  CYS291     -0.0797
    122  N         61.4580   43.3360   64.6080 N.am  292  SER292     -0.1936
    123  CA        60.5760   42.7910   63.5490 C.3   292  SER292      0.2055
    124  C         59.1940   43.4460   63.5680 C.2   292  SER292      0.2644
    125  O         58.6270   43.6970   64.6400 O.2   292  SER292     -0.2714
    126  CB        60.3980   41.2590   63.6100 C.3   292  SER292      0.2130
    127  OG        59.7700   40.7720   62.4080 O.3   292  SER292     -0.2179
    128  N         58.6620   43.7000   62.3730 N.am  293  GLY293     -0.1939
    129  CA        57.3270   44.2580   62.2110 C.3   293  GLY293      0.2014
    130  C         57.0020   45.5970   62.8740 C.2   293  GLY293      0.2640
    131  O         55.8520   45.8570   63.1500 O.2   293  GLY293     -0.2714
    132  N         57.9790   46.4530   63.1330 N.am  294  THR294     -0.1936
    133  CA        57.6720   47.6620   63.8720 C.3   294  THR294      0.2028
    134  C         56.8860   48.6940   63.0360 C.2   294  THR294      0.2643
    135  O         56.1290   49.4620   63.6270 O.2   294  THR294     -0.2714
    136  CB        58.9020   48.3310   64.5500 C.3   294  THR294      0.1808
    137  OG1       59.9860   48.4310   63.6400 O.3   294  THR294     -0.2208
    138  CG2       59.3470   47.5500   65.7350 C.3   294  THR294      0.0379
    139  N         57.0290   48.7300   61.7120 N.am  295  SER295     -0.1935
    140  CA        56.2480   49.7030   60.9350 C.3   295  SER295      0.2055
    141  C         54.7960   49.2830   60.8270 C.2   295  SER295      0.2642
    142  O         53.8800   50.1090   60.8870 O.2   295  SER295     -0.2714
    143  CB        56.7680   49.8840   59.5380 C.3   295  SER295      0.2130
    144  OG        58.1290   50.2020   59.5590 O.3   295  SER295     -0.2179
    145  N         54.5950   47.9900   60.6690 N.am  296  ILE296     -0.1977
    146  CA        53.2840   47.4240   60.6290 C.3   296  ILE296      0.1596
    147  C         52.6340   47.6820   61.9630 C.2   296  ILE296      0.2287
    148  O         51.5440   48.2060   62.0130 O.2   296  ILE296     -0.2864
    149  CB        53.3300   45.9240   60.2440 C.3   296  ILE296      0.0276
    150  CG1       53.4230   45.8240   58.7230 C.3   296  ILE296      0.0022
    151  CG2       52.0690   45.2040   60.6750 C.3   296  ILE296      0.0022
    152  CD1       53.9940   44.5450   58.1970 C.3   296  ILE296      0.0001
    153  N         51.6550   54.9060   57.2140 N.3   327  TYR327     -0.1241
    154  CA        52.9630   54.2090   57.1680 C.3   327  TYR327      0.1605
    155  C         53.6280   54.4860   58.4780 C.2   327  TYR327      0.2264
    156  O         54.1690   55.5450   58.6660 O.2   327  TYR327     -0.2867
    157  CB        53.8510   54.7180   56.0480 C.3   327  TYR327      0.0534
    158  CG        54.9120   53.7240   55.6250 C.ar  327  TYR327     -0.0201
    159  CD1       55.8380   53.2300   56.5360 C.ar  327  TYR327     -0.0009
    160  CD2       54.9880   53.2790   54.3040 C.ar  327  TYR327     -0.0009
    161  CE1       56.8170   52.3290   56.1520 C.ar  327  TYR327      0.0417
    162  CE2       55.9560   52.3750   53.9080 C.ar  327  TYR327      0.0417
    163  CZ        56.8680   51.9070   54.8410 C.ar  327  TYR327      0.1957
    164  OH        57.8240   51.0170   54.4560 O.3   327  TYR327     -0.2866
@<TRIPOS>BOND
     1    17    15   ar
     2   111   110    2
     3    15    14    1
     4    15    16   ar
     5    94    93    2
     6   110   109    1
     7    14    13    1
     8    93    92    1
     9   109   108    1
    10     1     2    1
    11    13    10    1
    12    10     9    1
    13    10    11    1
    14     9     3   am
    15    95    92    1
    16    95    96    1
    17     4     3    2
    18    92    91    1
    19     3     2    1
    20   108   103   am
    21     2     5    1
    22    11    12    2
    23   104   103    2
    24    96    97   ar
    25    96    98   ar
    26   103   102    1
    27     5     6    1
    28    97    99   ar
    29   162   160   ar
    30   162   163   ar
    31    98   100   ar
    32   101   102    1
    33   160   158   ar
    34   102   105    1
    35   164   163    1
    36    99   100   ar
    37    32    31   ar
    38    21    20    2
    39   163   161   ar
    40     6     7    1
    41     6     8    1
    42    82    81    2
    43    33    31   ar
    44    31    30    1
    45    18    19    1
    46    27    30    1
    47    27    26    1
    48    27    28    1
    49   158   157    1
    50   158   159   ar
    51    20    26   am
    52    20    19    1
    53   105   106    1
    54   105   107    1
    55    78    76    1
    56    81    80    1
    57   157   154    1
    58    28    29    2
    59   161   159   ar
    60    19    22    1
    61    76    77    1
    62    76    75    2
    63   154   153    1
    64   154   155    1
    65    22    23    1
    66    80    83    1
    67    80    79    1
    68    83    84    1
    69    34    35    1
    70   152   150    1
    71    75    74    1
    72    40    38    1
    73   155   156    2
    74    50    49    2
    75    23    24    1
    76    23    25    1
    77   150   149    1
    78    49    48    1
    79    39    38    1
    80    35    38    1
    81    35    36    1
    82    84    86   ar
    83    84    85   ar
    84    51    48    1
    85    51    52    1
    86    86    88   ar
    87   143   144    1
    88   143   140    1
    89    74    73    1
    90    53    52    1
    91    53    54    1
    92    48    47    1
    93    37    36    2
    94    85    87   ar
    95    55    54    1
    96   149   146    1
    97   149   151    1
    98    36    41   am
    99    73    72    1
   100    71    70    2
   101    72    69    1
   102   146   145    1
   103   146   147    1
   104   145   141   am
   105    88    89   ar
   106   141   142    2
   107   141   140    1
   108   140   139    1
   109    70    69    1
   110    87    89   ar
   111    41    42    1
   112    69    68    1
   113   139   134   am
   114    89    90    1
   115   147   148    2
   116   129   128    1
   117   129   130    1
   118   128   124   am
   119   127   126    1
   120    67    66    1
   121    42    43    1
   122    42    45    1
   123   130   132   am
   124   130   131    2
   125    44    43    2
   126   134   135    2
   127   134   133    1
   128   132   133    1
   129    65    64    2
   130   115   114    2
   131   123   124    1
   132   123   126    1
   133   123   122    1
   134   124   125    2
   135   137   136    1
   136    66    63    1
   137   119   118    2
   138    45    46    1
   139   133   136    1
   140    64    63    1
   141   113   114    1
   142   113   112    1
   143   114   116   am
   144    63    62    1
   145   136   138    1
   146   118   122   am
   147   118   117    1
   148   116   117    1
   149   117   120    1
   150    59    58    2
   151    56    57    1
   152    60    57    1
   153    60    61    1
   154   120   121    1
   155    58    57    1
