@<TRIPOS>MOLECULE
tmp/4y2bA00.pdb
 150 145 0 0 0
SMALL
GASTEIGER

@<TRIPOS>ATOM
      1  N        -39.5840   28.7580    7.9170 N.3    73  TYR73      -0.1227
      2  CA       -39.2180   28.2450    6.5910 C.3    73  TYR73       0.1736
      3  C        -38.2850   29.2100    5.8910 C.2    73  TYR73       0.2595
      4  O        -37.2030   28.8170    5.4430 O.2    73  TYR73      -0.2718
      5  CB       -40.4360   27.9390    5.6960 C.3    73  TYR73       0.0548
      6  CG       -40.0230   27.3510    4.3380 C.ar   73  TYR73      -0.0200
      7  CD1      -39.9920   25.9760    4.1290 C.ar   73  TYR73      -0.0009
      8  CD2      -39.6690   28.1860    3.2520 C.ar   73  TYR73      -0.0009
      9  CE1      -39.6300   25.4490    2.8820 C.ar   73  TYR73       0.0417
     10  CE2      -39.3280   27.6600    2.0110 C.ar   73  TYR73       0.0417
     11  CZ       -39.2740   26.2890    1.8460 C.ar   73  TYR73       0.1957
     12  OH       -38.9270   25.7350    0.6080 O.3    73  TYR73      -0.2866
     13  N        -38.6720   30.4840    5.8300 N.am   74  HIS74      -0.1975
     14  CA       -37.8350   31.4290    5.0990 C.3    74  HIS74       0.1656
     15  C        -36.6270   31.9570    5.8930 C.2    74  HIS74       0.2291
     16  O        -36.5880   33.0980    6.3020 O.2    74  HIS74      -0.2864
     17  CB       -38.6900   32.5050    4.5040 C.3    74  HIS74       0.0771
     18  CG       -39.4740   32.0260    3.3360 C.ar   74  HIS74       0.0820
     19  ND1      -40.8440   31.7970    3.3890 N.ar   74  HIS74      -0.2267
     20  CD2      -39.0740   31.7040    2.0760 C.ar   74  HIS74       0.1154
     21  CE1      -41.2440   31.3650    2.2000 C.ar   74  HIS74       0.1986
     22  NE2      -40.1810   31.2460    1.4090 N.ar   74  HIS74      -0.2212
     23  N        -38.0590   33.8210   -9.2230 N.3   183  THR183     -0.1218
     24  CA       -38.5700   33.0580   -8.0820 C.3   183  THR183      0.1862
     25  C        -39.9190   33.5600   -7.5340 C.2   183  THR183      0.2287
     26  O        -40.4510   33.0240   -6.5350 O.2   183  THR183     -0.2866
     27  CB       -37.5270   32.9070   -6.9340 C.3   183  THR183      0.1770
     28  OG1      -37.3930   34.1130   -6.1660 O.3   183  THR183     -0.2211
     29  CG2      -36.1640   32.4570   -7.4830 C.3   183  THR183      0.0375
     30  N        -43.2740   33.1090   -7.3570 N.3   185  ILE185     -0.1245
     31  CA       -44.0500   31.9350   -7.7510 C.3   185  ILE185      0.1561
     32  C        -45.3840   32.3970   -8.4540 C.2   185  ILE185      0.2260
     33  O        -45.8990   31.7380   -9.3710 O.2   185  ILE185     -0.2867
     34  CB       -44.3810   31.1000   -6.4940 C.3   185  ILE185      0.0252
     35  CG1      -44.6940   29.6120   -6.8050 C.3   185  ILE185      0.0019
     36  CG2      -45.4790   31.8030   -5.6960 C.3   185  ILE185      0.0019
     37  CD1      -43.8580   29.0480   -7.7560 C.3   185  ILE185      0.0001
     38  N        -35.7940   26.3160   -5.9330 N.3   224  ASP224     -0.1225
     39  CA       -36.6530   26.9340   -4.9390 C.3   224  ASP224      0.1805
     40  C        -37.8780   26.0940   -4.5620 C.2   224  ASP224      0.2597
     41  O        -38.4410   26.2810   -3.4760 O.2   224  ASP224     -0.2718
     42  CB       -37.1530   28.2720   -5.5010 C.3   224  ASP224      0.1424
     43  CG       -37.7150   29.1460   -4.4410 C.2   224  ASP224      0.3668
     44  OD1      -37.3290   29.0080   -3.2840 O.co2 224  ASP224     -0.2456
     45  OD2      -38.5930   29.9760   -4.7140 O.co2 224  ASP224     -0.2456
     46  N        -38.3670   25.2210   -5.4550 N.am  225  ILE225     -0.1980
     47  CA       -39.5790   24.4760   -5.0780 C.3   225  ILE225      0.1595
     48  C        -39.2970   22.9780   -5.1360 C.2   225  ILE225      0.2287
     49  O        -40.2110   22.1750   -5.2850 O.2   225  ILE225     -0.2864
     50  CB       -40.8720   24.9000   -5.8250 C.3   225  ILE225      0.0276
     51  CG1      -40.8580   24.5820   -7.3390 C.3   225  ILE225      0.0022
     52  CG2      -41.1560   26.3700   -5.5790 C.3   225  ILE225      0.0022
     53  CD1      -42.2470   24.8510   -8.0130 C.3   225  ILE225      0.0001
     54  N        -38.3230   21.0490   -2.7530 N.3   227  ASN227     -0.1226
     55  CA       -38.5270   20.2910   -1.4880 C.3   227  ASN227      0.1770
     56  C        -39.2780   18.9510   -1.7030 C.2   227  ASN227      0.2439
     57  O        -38.8270   17.9460   -1.1630 O.2   227  ASN227     -0.2733
     58  CB       -39.2950   21.0260   -0.3850 C.3   227  ASN227      0.1168
     59  CG       -38.6360   22.2650    0.1080 C.2   227  ASN227      0.2627
     60  OD1      -39.3540   23.1620    0.6530 O.2   227  ASN227     -0.2716
     61  ND2      -37.2600   22.3620   -0.0140 N.am  227  ASN227     -0.0877
     62  N        -40.4170   18.9460   -2.4840 N.am  228  PRO228     -0.2729
     63  CA       -41.1420   17.6680   -2.6210 C.3   228  PRO228      0.1401
     64  C        -40.3480   16.6760   -3.4870 C.2   228  PRO228      0.2269
     65  O        -40.6970   15.4800   -3.5420 O.2   228  PRO228     -0.2865
     66  CB       -42.5080   18.0630   -3.2790 C.3   228  PRO228      0.0296
     67  CG       -42.5440   19.5500   -3.2350 C.3   228  PRO228      0.0237
     68  CD       -41.1210   20.0550   -3.1660 C.3   228  PRO228      0.0939
     69  N        -39.5850   19.9630    5.4450 N.3   238  TRP238     -0.1227
     70  CA       -39.8040   21.2480    4.7420 C.3   238  TRP238      0.1737
     71  C        -41.2770   21.5640    4.7720 C.2   238  TRP238      0.2596
     72  O        -41.6360   22.7120    4.9020 O.2   238  TRP238     -0.2718
     73  CB       -39.3660   21.1790    3.2850 C.3   238  TRP238      0.0564
     74  CG       -37.8970   21.0900    3.1060 C.ar  238  TRP238      0.0003
     75  CD1      -37.2230   20.0720    2.4970 C.ar  238  TRP238      0.0946
     76  CD2      -36.8930   22.0280    3.5810 C.ar  238  TRP238      0.0152
     77  NE1      -35.8580   20.3430    2.5080 N.ar  238  TRP238     -0.2442
     78  CE2      -35.6360   21.5230    3.1840 C.ar  238  TRP238      0.0810
     79  CE3      -36.9450   23.2690    4.2900 C.ar  238  TRP238      0.0012
     80  CZ2      -34.4170   22.1920    3.4840 C.ar  238  TRP238      0.0191
     81  CZ3      -35.7520   23.9300    4.5690 C.ar  238  TRP238      0.0001
     82  CH2      -34.4860   23.3540    4.1940 C.ar  238  TRP238      0.0015
     83  N        -42.1160   20.5370    4.6130 N.am  239  SER239     -0.1952
     84  CA       -43.5910   20.7140    4.5370 C.3   239  SER239      0.1924
     85  C        -44.1370   21.1760    5.8740 C.2   239  SER239      0.2314
     86  O        -45.0230   22.0260    5.9140 O.2   239  SER239     -0.2863
     87  CB       -44.2870   19.3910    4.1560 C.3   239  SER239      0.2116
     88  OG       -43.9780   19.0530    2.8180 O.3   239  SER239     -0.2180
     89  N        -42.9400   24.8360    6.2170 N.3   242  VAL242     -0.1245
     90  CA       -43.5780   25.8090    5.3260 C.3   242  VAL242      0.1561
     91  C        -44.9920   26.0710    5.8520 C.2   242  VAL242      0.2260
     92  O        -45.4510   27.2280    5.8750 O.2   242  VAL242     -0.2867
     93  CB       -43.5230   25.4040    3.8380 C.3   242  VAL242      0.0252
     94  CG1      -44.6870   24.4320    3.5040 C.3   242  VAL242      0.0019
     95  CG2      -43.5990   26.6460    2.9810 C.3   242  VAL242      0.0019
     96  N        -46.9350   29.5060    7.0470 N.3   246  PHE246     -0.1241
     97  CA       -48.2720   29.9000    6.5030 C.3   246  PHE246      0.1605
     98  C        -49.3310   30.0780    7.6480 C.2   246  PHE246      0.2264
     99  O        -50.0340   31.1260    7.7270 O.2   246  PHE246     -0.2867
    100  CB       -48.8400   28.8920    5.4800 C.3   246  PHE246      0.0534
    101  CG       -48.0600   28.7830    4.1740 C.ar  246  PHE246     -0.0203
    102  CD1      -47.0430   29.6760    3.8490 C.ar  246  PHE246     -0.0042
    103  CD2      -48.3690   27.7730    3.2770 C.ar  246  PHE246     -0.0042
    104  CE1      -46.3650   29.5450    2.6400 C.ar  246  PHE246     -0.0003
    105  CE2      -47.7120   27.6230    2.0620 C.ar  246  PHE246     -0.0003
    106  CZ       -46.6790   28.5160    1.7580 C.ar  246  PHE246     -0.0000
    107  N        -54.4470   28.9600    2.1730 N.3   263  LEU263     -0.1245
    108  CA       -53.4070   28.0820    2.6600 C.3   263  LEU263      0.1561
    109  C        -52.9900   28.4300    4.0970 C.2   263  LEU263      0.2260
    110  O        -52.1470   27.7380    4.6300 O.2   263  LEU263     -0.2867
    111  CB       -52.1290   28.2010    1.7800 C.3   263  LEU263      0.0270
    112  CG       -51.9360   27.3750    0.5140 C.3   263  LEU263      0.0019
    113  CD1      -53.2340   26.6910    0.0710 C.3   263  LEU263      0.0001
    114  CD2      -51.3300   28.2200   -0.5380 C.3   263  LEU263      0.0001
    115  N        -52.3120   20.5530    1.5390 N.3   274  ILE274     -0.1231
    116  CA       -51.5610   21.6670    1.0250 C.3   274  ILE274      0.1692
    117  C        -50.4450   21.1420    0.1150 C.2   274  ILE274      0.2591
    118  O        -50.3410   21.5890   -1.0500 O.2   274  ILE274     -0.2718
    119  CB       -51.0650   22.5900    2.1530 C.3   274  ILE274      0.0266
    120  CG1      -52.2790   23.3440    2.7640 C.3   274  ILE274      0.0019
    121  CG2      -50.0230   23.5290    1.5840 C.3   274  ILE274      0.0020
    122  CD1      -51.9080   24.0990    3.9940 C.3   274  ILE274      0.0001
    123  N        -49.7010   20.1350    0.5900 N.am  275  GLN275     -0.1979
    124  CA       -48.6650   19.5240   -0.2270 C.3   275  GLN275      0.1601
    125  C        -49.1680   18.9100   -1.5140 C.2   275  GLN275      0.2287
    126  O        -48.5390   19.0780   -2.5890 O.2   275  GLN275     -0.2864
    127  CB       -47.8500   18.5120    0.5640 C.3   275  GLN275      0.0394
    128  CG       -46.9890   19.2280    1.6110 C.3   275  GLN275      0.0908
    129  CD       -45.9140   20.1400    0.9500 C.2   275  GLN275      0.2608
    130  OE1      -45.1690   19.6790    0.0760 O.2   275  GLN275     -0.2717
    131  NE2      -45.8700   21.4130    1.3470 N.am  275  GLN275     -0.0878
    132  N        -50.1070   21.5870   -4.1180 N.3   278  PHE278     -0.1241
    133  CA       -48.8400   22.2250   -4.5430 C.3   278  PHE278      0.1605
    134  C        -48.1070   21.3050   -5.5210 C.2   278  PHE278      0.2264
    135  O        -47.6420   21.7290   -6.5860 O.2   278  PHE278     -0.2867
    136  CB       -47.9870   22.5000   -3.3050 C.3   278  PHE278      0.0534
    137  CG       -46.6690   23.1700   -3.5790 C.ar  278  PHE278     -0.0203
    138  CD1      -46.6120   24.3910   -4.2000 C.ar  278  PHE278     -0.0042
    139  CD2      -45.4780   22.5520   -3.2230 C.ar  278  PHE278     -0.0042
    140  CE1      -45.3660   25.0240   -4.4080 C.ar  278  PHE278     -0.0003
    141  CE2      -44.2480   23.1620   -3.4340 C.ar  278  PHE278     -0.0003
    142  CZ       -44.1820   24.3700   -4.0490 C.ar  278  PHE278     -0.0000
    143  N        -48.1180   23.0690   -9.1130 N.3   282  LEU282     -0.1245
    144  CA       -46.8510   23.8840   -9.2840 C.3   282  LEU282      0.1561
    145  C        -45.6020   23.0250   -9.4910 C.2   282  LEU282      0.2260
    146  O        -44.8140   23.2740  -10.4220 O.2   282  LEU282     -0.2867
    147  CB       -46.6720   24.9180   -8.1130 C.3   282  LEU282      0.0270
    148  CG       -47.6720   26.0940   -8.1860 C.3   282  LEU282      0.0019
    149  CD1      -47.7390   26.8600   -6.8560 C.3   282  LEU282      0.0001
    150  CD2      -47.2510   27.0640   -9.3620 C.3   282  LEU282      0.0001
@<TRIPOS>BOND
     1   146   145    2
     2   145   144    1
     3    33    32    2
     4   150   148    1
     5   144   143    1
     6   144   147    1
     7    23    24    1
     8    32    31    1
     9   148   147    1
    10   148   149    1
    11    24    25    1
    12    24    27    1
    13    53    51    1
    14    37    35    1
    15    31    30    1
    16    31    34    1
    17    25    26    2
    18    29    27    1
    19    51    50    1
    20    27    28    1
    21    35    34    1
    22   135   134    2
    23    34    36    1
    24    38    39    1
    25    50    52    1
    26    50    47    1
    27   134   133    1
    28    42    39    1
    29    42    43    1
    30    46    47    1
    31    46    40   am
    32    49    48    2
    33    48    47    1
    34    39    40    1
    35    45    43   ar
    36    40    41    2
    37   133   132    1
    38   133   136    1
    39    43    44   ar
    40   140   138   ar
    41   140   142   ar
    42   138   137   ar
    43   142   141   ar
    44   137   136    1
    45   137   139   ar
    46    65    64    2
    47    64    63    1
    48   141   139   ar
    49    66    67    1
    50    66    63    1
    51    67    68    1
    52    68    62    1
    53    54    55    1
    54    63    62    1
    55   126   125    2
    56    62    56   am
    57    56    55    1
    58    56    57    2
    59   125   124    1
    60    55    58    1
    61   118   117    2
    62   114   112    1
    63    58    59    1
    64   124   127    1
    65   124   123    1
    66    61    59   am
    67   113   112    1
    68   130   129    2
    69    59    60    2
    70   117   123   am
    71   117   116    1
    72   112   111    1
    73   127   128    1
    74    12    11    1
    75   129   131   am
    76   129   128    1
    77   116   115    1
    78   116   119    1
    79    22    20   ar
    80    22    21   ar
    81   121   119    1
    82   106   105   ar
    83   106   104   ar
    84   111   108    1
    85    11    10   ar
    86    11     9   ar
    87    10     8   ar
    88   105   103   ar
    89    20    18   ar
    90   119   120    1
    91   107   108    1
    92    21    19   ar
    93    75    77   ar
    94    75    74   ar
    95    77    78   ar
    96   104   102   ar
    97   108   109    1
    98   120   122    1
    99    88    87    1
   100     9     7   ar
   101    95    93    1
   102    74    73    1
   103    74    76   ar
   104    78    80   ar
   105    78    76   ar
   106     8     6   ar
   107   103   101   ar
   108    73    70    1
   109    18    19   ar
   110    18    17    1
   111    80    82   ar
   112    94    93    1
   113    76    79   ar
   114    93    90    1
   115   102   101   ar
   116   109   110    2
   117     7     6   ar
   118    87    84    1
   119   101   100    1
   120    82    81   ar
   121    79    81   ar
   122     6     5    1
   123    17    14    1
   124    84    83    1
   125    84    85    1
   126    83    71   am
   127    70    71    1
   128    70    69    1
   129    71    72    2
   130    14    13    1
   131    14    15    1
   132    90    91    1
   133    90    89    1
   134     4     3    2
   135   100    97    1
   136     5     2    1
   137    13     3   am
   138    91    92    2
   139    85    86    2
   140     3     2    1
   141    15    16    2
   142    97    96    1
   143    97    98    1
   144     2     1    1
   145    98    99    2
