@<TRIPOS>MOLECULE
tmp/4y2gA00.pdb
 152 147 0 0 0
SMALL
GASTEIGER

@<TRIPOS>ATOM
      1  N        -13.5440   14.3590  -22.3920 N.3     9  VAL9       -0.1231
      2  CA       -13.3890   13.1540  -23.2020 C.3     9  VAL9        0.1692
      3  C        -14.5690   12.2140  -22.9950 C.2     9  VAL9        0.2593
      4  O        -15.2790   12.3050  -21.9930 O.2     9  VAL9       -0.2718
      5  CB       -12.0870   12.3990  -22.8750 C.3     9  VAL9        0.0266
      6  CG1      -10.8880   13.3240  -22.9940 C.3     9  VAL9        0.0020
      7  CG2      -12.1670   11.7780  -21.4840 C.3     9  VAL9        0.0020
      8  N        -14.7740   11.3130  -23.9470 N.am   10  SER10      -0.1938
      9  CA       -15.8600   10.3470  -23.8560 C.3    10  SER10       0.2055
     10  C        -15.4920    9.0370  -24.5410 C.2    10  SER10       0.2644
     11  O        -14.8690    9.0320  -25.6030 O.2    10  SER10      -0.2714
     12  CB       -17.1360   10.9220  -24.4700 C.3    10  SER10       0.2130
     13  OG       -18.1990    9.9880  -24.3980 O.3    10  SER10      -0.2179
     14  N        -15.8730    7.9260  -23.9200 N.am   11  GLY11      -0.1939
     15  CA       -15.6430    6.6150  -24.4960 C.3    11  GLY11       0.2014
     16  C        -14.1920    6.1800  -24.4470 C.2    11  GLY11       0.2639
     17  O        -13.7990    5.2190  -25.1080 O.2    11  GLY11      -0.2714
     18  N        -13.3890    6.8900  -23.6630 N.am   12  LEU12      -0.1963
     19  CA       -11.9880    6.5300  -23.4960 C.3    12  LEU12       0.1728
     20  C        -11.7840    5.6760  -22.2530 C.2    12  LEU12       0.2617
     21  O        -12.4940    5.8280  -21.2590 O.2    12  LEU12      -0.2715
     22  CB       -11.1110    7.7800  -23.4110 C.3    12  LEU12       0.0311
     23  CG       -10.9680    8.6190  -24.6790 C.3    12  LEU12       0.0022
     24  CD1       -9.9150    9.6980  -24.4810 C.3    12  LEU12       0.0001
     25  CD2      -10.6230    7.7360  -25.8670 C.3    12  LEU12       0.0001
     26  N        -10.8120    4.7730  -22.3180 N.am   13  THR13      -0.1937
     27  CA       -10.3930    4.0310  -21.1400 C.3    13  THR13       0.2013
     28  C         -9.7170    4.9950  -20.1770 C.2    13  THR13       0.2484
     29  O         -9.3560    6.1070  -20.5670 O.2    13  THR13      -0.2729
     30  CB        -9.4230    2.8870  -21.4900 C.3    13  THR13       0.1807
     31  OG1       -8.2150    3.4330  -22.0370 O.3    13  THR13      -0.2208
     32  CG2      -10.0530    1.9410  -22.5000 C.3    13  THR13       0.0379
     33  N         -9.5490    4.5800  -18.9140 N.am   14  PRO14      -0.2726
     34  CA        -8.8030    5.3960  -17.9500 C.3    14  PRO14       0.1402
     35  C         -7.3890    5.6800  -18.4500 C.2    14  PRO14       0.2269
     36  O         -6.8100    6.7180  -18.1280 O.2    14  PRO14      -0.2865
     37  CB        -8.7830    4.5240  -16.6910 C.3    14  PRO14       0.0296
     38  CG        -9.9750    3.6350  -16.8310 C.3    14  PRO14       0.0237
     39  CD       -10.0960    3.3580  -18.3000 C.3    14  PRO14       0.0939
     40  N        -19.5430    5.7390  -30.7300 N.3    53  GLU53      -0.1231
     41  CA       -20.7300    5.3780  -29.9760 C.3    53  GLU53       0.1699
     42  C        -21.4530    6.6070  -29.4440 C.2    53  GLU53       0.2592
     43  O        -20.8700    7.6610  -29.3030 O.2    53  GLU53      -0.2718
     44  CB       -20.3860    4.4220  -28.8440 C.3    53  GLU53       0.0402
     45  CG       -19.2400    3.4900  -29.1750 C.3    53  GLU53       0.1161
     46  CD       -19.6180    2.0350  -29.0580 C.2    53  GLU53       0.3649
     47  OE1      -19.3920    1.2890  -30.0270 O.co2  53  GLU53      -0.2457
     48  OE2      -20.1370    1.6390  -27.9970 O.co2  53  GLU53      -0.2457
     49  N        -22.7350    6.4570  -29.1670 N.am   54  ARG54      -0.1966
     50  CA       -23.5770    7.5610  -28.7280 C.3    54  ARG54       0.1729
     51  C        -23.6200    7.6500  -27.2050 C.2    54  ARG54       0.2617
     52  O        -24.3380    6.8940  -26.5520 O.2    54  ARG54      -0.2715
     53  CB       -24.9920    7.4130  -29.2860 C.3    54  ARG54       0.0348
     54  CG       -25.0570    7.2720  -30.7990 C.3    54  ARG54       0.0492
     55  CD       -26.4540    7.5730  -31.3160 C.3    54  ARG54       0.2205
     56  NE       -27.4740    6.7830  -30.6330 N.pl3  54  ARG54      -0.0865
     57  CZ       -28.7820    6.9570  -30.7890 C.cat  54  ARG54       0.5346
     58  NH1      -29.2350    7.8990  -31.6050 N.pl3  54  ARG54       0.1354
     59  NH2      -29.6380    6.1930  -30.1260 N.pl3  54  ARG54       0.1354
     60  N        -22.8520    8.5780  -26.6430 N.am   55  THR55      -0.1937
     61  CA       -22.8510    8.7910  -25.2000 C.3    55  THR55       0.2028
     62  C        -23.5160   10.1140  -24.8460 C.2    55  THR55       0.2642
     63  O        -23.8080   10.9250  -25.7250 O.2    55  THR55      -0.2714
     64  CB       -21.4250    8.7770  -24.6250 C.3    55  THR55       0.1808
     65  OG1      -20.6510    9.8110  -25.2430 O.3    55  THR55      -0.2208
     66  CG2      -20.7570    7.4290  -24.8760 C.3    55  THR55       0.0379
     67  N        -23.7540   10.3250  -23.5570 N.am   56  LEU56      -0.1963
     68  CA       -24.3570   11.5650  -23.0880 C.3    56  LEU56       0.1728
     69  C        -23.5440   12.7780  -23.5330 C.2    56  LEU56       0.2616
     70  O        -24.1050   13.7880  -23.9600 O.2    56  LEU56      -0.2715
     71  CB       -24.4930   11.5530  -21.5650 C.3    56  LEU56       0.0311
     72  CG       -25.1710   12.7880  -20.9670 C.3    56  LEU56       0.0022
     73  CD1      -26.5290   13.0230  -21.6270 C.3    56  LEU56       0.0001
     74  CD2      -25.3160   12.6530  -19.4560 C.3    56  LEU56       0.0001
     75  N        -22.2230   12.6700  -23.4370 N.am   57  LYS57      -0.1977
     76  CA       -21.3390   13.7600  -23.8380 C.3    57  LYS57       0.1596
     77  C        -21.4050   13.9880  -25.3450 C.2    57  LYS57       0.2287
     78  O        -21.2740   15.1160  -25.8170 O.2    57  LYS57      -0.2864
     79  CB       -19.9000   13.4760  -23.4060 C.3    57  LYS57       0.0298
     80  CG       -19.6870   13.4870  -21.9000 C.3    57  LYS57       0.0038
     81  CD       -18.2380   13.1790  -21.5500 C.3    57  LYS57       0.0206
     82  CE       -18.0420   13.0300  -20.0530 C.3    57  LYS57       0.1093
     83  NZ       -16.7130   12.4320  -19.7350 N.3    57  LYS57      -0.1314
     84  N        -24.1270   13.5010  -27.3050 N.3    59  PHE59      -0.1241
     85  CA       -25.3660   14.2350  -27.5400 C.3    59  PHE59       0.1605
     86  C        -25.2360   15.6980  -27.1360 C.2    59  PHE59       0.2264
     87  O        -25.5770   16.5990  -27.9030 O.2    59  PHE59      -0.2867
     88  CB       -26.5270   13.5920  -26.7810 C.3    59  PHE59       0.0534
     89  CG       -26.9550   12.2640  -27.3380 C.ar   59  PHE59      -0.0203
     90  CD1      -26.7950   11.1030  -26.6010 C.ar   59  PHE59      -0.0042
     91  CD2      -27.5190   12.1780  -28.6000 C.ar   59  PHE59      -0.0042
     92  CE1      -27.1900    9.8810  -27.1120 C.ar   59  PHE59      -0.0003
     93  CE2      -27.9160   10.9610  -29.1160 C.ar   59  PHE59      -0.0003
     94  CZ       -27.7510    9.8110  -28.3720 C.ar   59  PHE59      -0.0000
     95  N        -22.5710    4.9100  -34.5680 N.3    95  VAL95      -0.1231
     96  CA       -22.9360    3.5480  -34.9400 C.3    95  VAL95       0.1692
     97  C        -24.4180    3.4050  -35.2710 C.2    95  VAL95       0.2591
     98  O        -24.8030    2.5200  -36.0340 O.2    95  VAL95      -0.2718
     99  CB       -22.5920    2.5480  -33.8190 C.3    95  VAL95       0.0266
    100  CG1      -21.0970    2.5330  -33.5610 C.3    95  VAL95       0.0020
    101  CG2      -23.3500    2.8940  -32.5490 C.3    95  VAL95       0.0020
    102  N        -25.2420    4.2800  -34.7020 N.am   96  VAL96      -0.1980
    103  CA       -26.6930    4.1240  -34.7740 C.3    96  VAL96       0.1595
    104  C        -27.3610    4.8620  -35.9360 C.2    96  VAL96       0.2287
    105  O        -28.1860    4.2870  -36.6450 O.2    96  VAL96      -0.2864
    106  CB       -27.3620    4.5920  -33.4640 C.3    96  VAL96       0.0276
    107  CG1      -28.8770    4.5660  -33.6030 C.3    96  VAL96       0.0022
    108  CG2      -26.9130    3.7270  -32.2950 C.3    96  VAL96       0.0022
    109  N        -30.0630    5.7860  -17.1630 N.3   129  ASN129     -0.1225
    110  CA       -28.7590    6.0390  -17.7730 C.3   129  ASN129      0.1785
    111  C        -28.5400    7.4890  -18.1960 C.2   129  ASN129      0.2597
    112  O        -27.4630    7.8470  -18.6690 O.2   129  ASN129     -0.2718
    113  CB       -28.5610    5.1230  -18.9820 C.3   129  ASN129      0.1169
    114  CG       -28.6270    3.6550  -18.6160 C.2   129  ASN129      0.2627
    115  OD1      -28.3150    3.2710  -17.4900 O.2   129  ASN129     -0.2716
    116  ND2      -29.0340    2.8250  -19.5690 N.am  129  ASN129     -0.0877
    117  N        -29.5600    8.3200  -18.0250 N.am  130  MET130     -0.1979
    118  CA       -29.4640    9.7220  -18.4040 C.3   130  MET130      0.1605
    119  C        -30.3830   10.5740  -17.5470 C.2   130  MET130      0.2287
    120  O        -31.5960   10.5710  -17.7560 O.2   130  MET130     -0.2864
    121  CB       -29.8070    9.9010  -19.8820 C.3   130  MET130      0.0413
    122  CG       -29.6790   11.3280  -20.3810 C.3   130  MET130      0.0598
    123  SD       -30.1420   11.4790  -22.1170 S.3   130  MET130     -0.1393
    124  CE       -29.1070   10.2180  -22.8590 C.3   130  MET130      0.0692
    125  N        -37.7920    8.4550  -26.1430 N.3   190  ARG190     -0.1231
    126  CA       -36.5800    9.2530  -25.9950 C.3   190  ARG190      0.1694
    127  C        -35.7020    9.1590  -27.2380 C.2   190  ARG190      0.2591
    128  O        -34.8780   10.0360  -27.4940 O.2   190  ARG190     -0.2718
    129  CB       -35.7960    8.8110  -24.7570 C.3   190  ARG190      0.0321
    130  CG       -34.5670    9.6590  -24.4670 C.3   190  ARG190      0.0489
    131  CD       -33.9280    9.2800  -23.1380 C.3   190  ARG190      0.2205
    132  NE       -33.5730    7.8650  -23.0730 N.pl3 190  ARG190     -0.0865
    133  CZ       -32.9390    7.3030  -22.0490 C.cat 190  ARG190      0.5346
    134  NH1      -32.5860    8.0370  -21.0010 N.pl3 190  ARG190      0.1354
    135  NH2      -32.6540    6.0060  -22.0690 N.pl3 190  ARG190      0.1354
    136  N        -35.8880    8.0930  -28.0090 N.am  191  GLU191     -0.1979
    137  CA       -35.1260    7.8920  -29.2350 C.3   191  GLU191      0.1602
    138  C        -35.3330    9.0280  -30.2280 C.2   191  GLU191      0.2287
    139  O        -34.4160    9.3850  -30.9660 O.2   191  GLU191     -0.2864
    140  CB       -35.5000    6.5590  -29.8820 C.3   191  GLU191      0.0415
    141  CG       -34.9070    5.3570  -29.1770 C.3   191  GLU191      0.1163
    142  CD       -33.3980    5.4530  -29.0560 C.2   191  GLU191      0.3649
    143  OE1      -32.7330    5.6770  -30.0910 O.co2 191  GLU191     -0.2457
    144  OE2      -32.8770    5.3180  -27.9270 O.co2 191  GLU191     -0.2457
    145  N        -32.9600   11.7110  -29.2410 N.3   194  LEU194     -0.1245
    146  CA       -31.5880   11.2700  -29.4620 C.3   194  LEU194      0.1561
    147  C        -31.2380   11.1870  -30.9450 C.2   194  LEU194      0.2260
    148  O        -30.1440   11.5780  -31.3510 O.2   194  LEU194     -0.2867
    149  CB       -31.3540    9.9190  -28.7870 C.3   194  LEU194      0.0270
    150  CG       -31.5360    9.9540  -27.2680 C.3   194  LEU194      0.0019
    151  CD1      -31.1980    8.6120  -26.6390 C.3   194  LEU194      0.0001
    152  CD2      -30.6920   11.0690  -26.6590 C.3   194  LEU194      0.0001
@<TRIPOS>BOND
     1   105   104    2
     2    98    97    2
     3   104   103    1
     4    97    96    1
     5    97   102   am
     6    96    95    1
     7    96    99    1
     8   103   102    1
     9   103   106    1
    10    99   100    1
    11    99   101    1
    12   107   106    1
    13   106   108    1
    14    58    57    1
    15   148   147    2
    16    55    54    1
    17    55    56    1
    18   139   138    2
    19   147   146    1
    20    54    53    1
    21    57    56    2
    22    57    59    1
    23    40    41    1
    24   138   137    1
    25   143   142   ar
    26    47    46   ar
    27    41    42    1
    28    41    44    1
    29   140   137    1
    30   140   141    1
    31   146   145    1
    32   146   149    1
    33    42    43    2
    34    42    49   am
    35    53    50    1
    36   137   136    1
    37   141   142    1
    38    45    46    1
    39    45    44    1
    40    49    50    1
    41    93    91   ar
    42    93    94   ar
    43    46    48   ar
    44   142   144   ar
    45   149   150    1
    46    50    51    1
    47    91    89   ar
    48    94    92   ar
    49   136   127   am
    50    87    86    2
    51    85    84    1
    52    85    86    1
    53    85    88    1
    54   128   127    2
    55    89    88    1
    56    89    90   ar
    57   150   152    1
    58   150   151    1
    59   127   126    1
    60    51    60   am
    61    51    52    2
    62    92    90   ar
    63    60    61    1
    64   125   126    1
    65   126   129    1
    66    25    23    1
    67    78    77    2
    68    63    62    2
    69    11    10    2
    70    77    76    1
    71    65    64    1
    72    61    62    1
    73    61    64    1
    74    17    16    2
    75    66    64    1
    76    62    67   am
    77   129   130    1
    78    23    24    1
    79    23    22    1
    80    10    14   am
    81    10     9    1
    82    15    16    1
    83    15    14    1
    84    12    13    1
    85    12     9    1
    86   130   131    1
    87    16    18   am
    88    70    69    2
    89     8     9    1
    90     8     3   am
    91    76    75    1
    92    76    79    1
    93    18    19    1
    94    67    68    1
    95    69    75   am
    96    69    68    1
    97    19    22    1
    98    19    20    1
    99    79    80    1
   100     2     3    1
   101     2     5    1
   102     2     1    1
   103   131   132    1
   104    68    71    1
   105   132   133    2
   106     3     4    2
   107     6     5    1
   108     5     7    1
   109   124   123    1
   110    32    30    1
   111    26    20   am
   112    26    27    1
   113    20    21    2
   114   123   122    1
   115   135   133    1
   116   133   134    1
   117    31    30    1
   118    80    81    1
   119    73    72    1
   120    71    72    1
   121    81    82    1
   122    30    27    1
   123    27    28    1
   124    72    74    1
   125    29    28    2
   126   122   121    1
   127    28    33   am
   128    82    83    1
   129   121   118    1
   130   116   114   am
   131   113   114    1
   132   113   110    1
   133    33    39    1
   134    33    34    1
   135   112   111    2
   136   114   115    2
   137    35    36    2
   138    35    34    1
   139   118   117    1
   140   118   119    1
   141    39    38    1
   142   111   117   am
   143   111   110    1
   144    34    37    1
   145   110   109    1
   146   120   119    2
   147    38    37    1
