@<TRIPOS>MOLECULE
tmp/4y2hB01.pdb
 152 153 0 0 0
SMALL
GASTEIGER

@<TRIPOS>ATOM
      1  N         22.7230  -14.7060   23.6350 N.3    24  TYR24      -0.1241
      2  CA        23.4170  -14.8060   24.9040 C.3    24  TYR24       0.1605
      3  C         22.9690  -16.0240   25.7130 C.2    24  TYR24       0.2264
      4  O         23.8090  -16.7750   26.1900 O.2    24  TYR24      -0.2867
      5  CB        23.2710  -13.5120   25.7050 C.3    24  TYR24       0.0534
      6  CG        23.6660  -13.6460   27.1550 C.ar   24  TYR24      -0.0201
      7  CD1       25.0040  -13.7490   27.5240 C.ar   24  TYR24      -0.0009
      8  CD2       22.6990  -13.6480   28.1540 C.ar   24  TYR24      -0.0009
      9  CE1       25.3670  -13.8650   28.8490 C.ar   24  TYR24       0.0417
     10  CE2       23.0500  -13.7680   29.4840 C.ar   24  TYR24       0.0417
     11  CZ        24.3850  -13.8800   29.8320 C.ar   24  TYR24       0.1957
     12  OH        24.7300  -14.0020   31.1690 O.3    24  TYR24      -0.2866
     13  N         24.4970  -19.2400   24.7700 N.3    27  CYS27      -0.1221
     14  CA        25.8600  -19.4580   25.2620 C.3    27  CYS27       0.1808
     15  C         25.8780  -20.4000   26.4490 C.2    27  CYS27       0.2601
     16  O         26.9340  -20.8370   26.8630 O.2    27  CYS27      -0.2717
     17  CB        26.5100  -18.1430   25.6890 C.3    27  CYS27       0.0970
     18  SG        26.8970  -16.9780   24.3450 S.3    27  CYS27      -0.0800
     19  N         24.7070  -20.6970   27.0030 N.am   28  TYR28      -0.1976
     20  CA        24.6190  -21.5070   28.2020 C.3    28  TYR28       0.1639
     21  C         23.8430  -22.7950   28.0070 C.2    28  TYR28       0.2290
     22  O         23.5210  -23.4680   28.9990 O.2    28  TYR28      -0.2864
     23  CB        23.9490  -20.7150   29.3100 C.3    28  TYR28       0.0560
     24  CG        24.8600  -19.7850   30.0600 C.ar   28  TYR28      -0.0198
     25  CD1       25.7170  -20.2760   31.0360 C.ar   28  TYR28      -0.0009
     26  CD2       24.8530  -18.4060   29.8040 C.ar   28  TYR28      -0.0009
     27  CE1       26.5460  -19.4360   31.7430 C.ar   28  TYR28       0.0417
     28  CE2       25.6670  -17.5390   30.5270 C.ar   28  TYR28       0.0417
     29  CZ        26.5090  -18.0710   31.4910 C.ar   28  TYR28       0.1957
     30  OH        27.3180  -17.2550   32.2180 O.3    28  TYR28      -0.2866
     31  N         30.1890  -25.2320   29.6270 N.3    33  VAL33      -0.1245
     32  CA        30.1520  -24.0400   30.4390 C.3    33  VAL33       0.1561
     33  C         29.6890  -24.3790   31.8800 C.2    33  VAL33       0.2260
     34  O         30.2170  -23.8290   32.8590 O.2    33  VAL33      -0.2867
     35  CB        29.2720  -23.0050   29.6930 C.3    33  VAL33       0.0252
     36  CG1       28.0410  -22.6280   30.4750 C.3    33  VAL33       0.0019
     37  CG2       30.1030  -21.8120   29.1930 C.3    33  VAL33       0.0019
     38  N         32.4880  -26.4590   33.5030 N.3    36  GLU36      -0.1231
     39  CA        33.4960  -25.5280   34.0030 C.3    36  GLU36       0.1699
     40  C         33.0900  -24.8890   35.3330 C.2    36  GLU36       0.2592
     41  O         33.8920  -24.8340   36.2620 O.2    36  GLU36      -0.2718
     42  CB        33.8360  -24.4600   32.9720 C.3    36  GLU36       0.0402
     43  CG        35.1190  -23.7020   33.2980 C.3    36  GLU36       0.1161
     44  CD        35.4870  -22.6490   32.2520 C.2    36  GLU36       0.3649
     45  OE1       34.8390  -22.6020   31.1810 O.co2  36  GLU36      -0.2457
     46  OE2       36.4400  -21.8690   32.4860 O.co2  36  GLU36      -0.2457
     47  N         31.8400  -24.4510   35.4300 N.am   37  MET37      -0.1979
     48  CA        31.3510  -23.7480   36.6220 C.3    37  MET37       0.1605
     49  C         31.2930  -24.6170   37.8690 C.2    37  MET37       0.2287
     50  O         31.7250  -24.2000   38.9330 O.2    37  MET37      -0.2864
     51  CB        29.9910  -23.0750   36.3460 C.3    37  MET37       0.0413
     52  CG        30.1340  -21.7800   35.5620 C.3    37  MET37       0.0598
     53  SD        28.5550  -20.9410   35.3610 S.3    37  MET37      -0.1393
     54  CE        27.6260  -22.1020   34.3510 C.3    37  MET37       0.0692
     55  N         24.4000  -16.5570   40.8350 N.3   132  GLU132     -0.1231
     56  CA        25.7720  -16.4440   40.3910 C.3   132  GLU132      0.1699
     57  C         25.8000  -15.7400   39.0240 C.2   132  GLU132      0.2592
     58  O         25.6170  -16.3720   37.9720 O.2   132  GLU132     -0.2718
     59  CB        26.4870  -17.8060   40.4130 C.3   132  GLU132      0.0402
     60  CG        28.0020  -17.7050   40.3700 C.3   132  GLU132      0.1161
     61  CD        28.5230  -17.4760   38.9580 C.2   132  GLU132      0.3649
     62  OE1       28.7280  -18.4710   38.2150 O.co2 132  GLU132     -0.2457
     63  OE2       28.7310  -16.2940   38.5800 O.co2 132  GLU132     -0.2457
     64  N         26.0470  -14.4270   39.0550 N.am  133  TRP133     -0.1962
     65  CA        25.7990  -13.5540   37.8900 C.3   133  TRP133      0.1771
     66  C         27.0600  -12.9340   37.3200 C.2   133  TRP133      0.2620
     67  O         27.0140  -12.2180   36.3130 O.2   133  TRP133     -0.2715
     68  CB        24.8250  -12.4290   38.2710 C.3   133  TRP133      0.0590
     69  CG        25.2550  -11.7080   39.5120 C.ar  133  TRP133      0.0006
     70  CD1       24.8430  -11.9680   40.7940 C.ar  133  TRP133      0.0946
     71  CD2       26.2050  -10.6220   39.6120 C.ar  133  TRP133      0.0152
     72  NE1       25.4650  -11.1130   41.6750 N.ar  133  TRP133     -0.2442
     73  CE2       26.3100  -10.2840   40.9810 C.ar  133  TRP133      0.0810
     74  CE3       26.9760   -9.9190   38.6890 C.ar  133  TRP133      0.0012
     75  CZ2       27.1390   -9.2660   41.4380 C.ar  133  TRP133      0.0191
     76  CZ3       27.7950   -8.8920   39.1590 C.ar  133  TRP133      0.0001
     77  CH2       27.8710   -8.5870   40.5170 C.ar  133  TRP133      0.0015
     78  N         28.1810  -13.1910   37.9780 N.am  134  MET134     -0.1963
     79  CA        29.4340  -12.5010   37.6830 C.3   134  MET134      0.1736
     80  C         30.0710  -13.0310   36.4150 C.2   134  MET134      0.2617
     81  O         30.1270  -14.2450   36.2040 O.2   134  MET134     -0.2715
     82  CB        30.4010  -12.6340   38.8660 C.3   134  MET134      0.0427
     83  CG        29.8670  -12.0070   40.1550 C.3   134  MET134      0.0599
     84  SD        28.8160  -13.1020   41.1270 S.3   134  MET134     -0.1393
     85  CE        30.0250  -14.3360   41.6330 C.3   134  MET134      0.0692
     86  N         30.5320  -12.1150   35.5690 N.am  135  GLY135     -0.1940
     87  CA        31.2610  -12.4770   34.3560 C.3   135  GLY135      0.2014
     88  C         32.7290  -12.1190   34.4890 C.2   135  GLY135      0.2638
     89  O         33.1680  -11.7000   35.5470 O.2   135  GLY135     -0.2714
     90  N         33.4920  -12.2750   33.4120 N.am  136  TYR136     -0.1973
     91  CA        34.8850  -11.8250   33.3920 C.3   136  TYR136      0.1639
     92  C         34.8910  -10.3210   33.6730 C.2   136  TYR136      0.2290
     93  O         33.9450   -9.6120   33.2900 O.2   136  TYR136     -0.2864
     94  CB        35.5540  -12.1380   32.0330 C.3   136  TYR136      0.0560
     95  CG        35.5060  -13.5950   31.6140 C.ar  136  TYR136     -0.0198
     96  CD1       35.8730  -14.6030   32.4940 C.ar  136  TYR136     -0.0009
     97  CD2       35.1040  -13.9620   30.3180 C.ar  136  TYR136     -0.0009
     98  CE1       35.8340  -15.9400   32.1140 C.ar  136  TYR136      0.0417
     99  CE2       35.0510  -15.3050   29.9110 C.ar  136  TYR136      0.0417
    100  CZ        35.4230  -16.2890   30.8130 C.ar  136  TYR136      0.1957
    101  OH        35.3900  -17.6160   30.4610 O.3   136  TYR136     -0.2866
    102  N         31.2220   -8.4280   32.5350 N.3   140  HIS140     -0.1226
    103  CA        31.0120   -9.0490   31.2300 C.3   140  HIS140      0.1752
    104  C         29.7590   -9.9150   31.3030 C.2   140  HIS140      0.2595
    105  O         29.4800  -10.5090   32.3480 O.2   140  HIS140     -0.2718
    106  CB        32.2140   -9.8710   30.7750 C.3   140  HIS140      0.0759
    107  CG        32.0390  -10.4930   29.4230 C.ar  140  HIS140      0.0818
    108  ND1       32.0290   -9.7530   28.2600 N.ar  140  HIS140     -0.2268
    109  CD2       31.8700  -11.7850   29.0480 C.ar  140  HIS140      0.1154
    110  CE1       31.8380  -10.5610   27.2320 C.ar  140  HIS140      0.1986
    111  NE2       31.7320  -11.7950   27.6840 N.ar  140  HIS140     -0.2212
    112  N         29.0100   -9.9480   30.2040 N.am  141  GLU141     -0.1979
    113  CA        27.6390  -10.5170   30.1540 C.3   141  GLU141      0.1602
    114  C         26.4810   -9.5600   30.5560 C.2   141  GLU141      0.2287
    115  O         25.3410   -9.7360   30.1040 O.2   141  GLU141     -0.2864
    116  CB        27.5390  -11.8410   30.9320 C.3   141  GLU141      0.0415
    117  CG        28.4780  -12.9470   30.4600 C.3   141  GLU141      0.1163
    118  CD        28.4420  -14.1500   31.3980 C.2   141  GLU141      0.3649
    119  OE1       29.5150  -14.5210   31.9510 O.co2 141  GLU141     -0.2457
    120  OE2       27.3310  -14.7100   31.5950 O.co2 141  GLU141     -0.2457
    121  N         24.7510   -9.4250   33.3320 N.3   143  MET143     -0.1245
    122  CA        23.6830  -10.1140   34.0320 C.3   143  MET143      0.1570
    123  C         23.2150   -9.4070   35.3220 C.2   143  MET143      0.2261
    124  O         22.0830   -9.5920   35.7610 O.2   143  MET143     -0.2867
    125  CB        24.1030  -11.5520   34.3370 C.3   143  MET143      0.0387
    126  CG        23.0650  -12.3400   35.1060 C.3   143  MET143      0.0595
    127  SD        23.3130  -14.1270   35.0760 S.3   143  MET143     -0.1393
    128  CE        22.0710  -14.6300   36.2790 C.3   143  MET143      0.0692
    129  N         37.5680  -20.1870   37.7440 N.3   294  HIS294     -0.1226
    130  CA        37.3730  -20.1400   36.2760 C.3   294  HIS294      0.1752
    131  C         37.3630  -18.7240   35.6740 C.2   294  HIS294      0.2596
    132  O         37.5400  -18.5730   34.4630 O.2   294  HIS294     -0.2718
    133  CB        36.1470  -20.9310   35.8210 C.3   294  HIS294      0.0759
    134  CG        34.8620  -20.1590   35.8960 C.ar  294  HIS294      0.0818
    135  ND1       34.2180  -19.8980   37.0860 N.ar  294  HIS294     -0.2268
    136  CD2       34.0990  -19.6050   34.9270 C.ar  294  HIS294      0.1154
    137  CE1       33.1300  -19.1860   36.8500 C.ar  294  HIS294      0.1986
    138  NE2       33.0210  -19.0160   35.5450 N.ar  294  HIS294     -0.2212
    139  N         37.1610  -17.6980   36.5000 N.am  295  TRP295     -0.1976
    140  CA        37.2530  -16.3140   36.0310 C.3   295  TRP295      0.1640
    141  C         38.6860  -15.8690   35.7960 C.2   295  TRP295      0.2290
    142  O         38.9000  -14.9100   35.0730 O.2   295  TRP295     -0.2864
    143  CB        36.6400  -15.3400   37.0370 C.3   295  TRP295      0.0576
    144  CG        35.1480  -15.4020   37.1400 C.ar  295  TRP295      0.0006
    145  CD1       34.2380  -14.8450   36.2850 C.ar  295  TRP295      0.0946
    146  CD2       34.3870  -16.0520   38.1740 C.ar  295  TRP295      0.0152
    147  NE1       32.9450  -15.1100   36.7170 N.ar  295  TRP295     -0.2442
    148  CE2       33.0060  -15.8500   37.8700 C.ar  295  TRP295      0.0810
    149  CE3       34.7340  -16.7800   39.3290 C.ar  295  TRP295      0.0012
    150  CZ2       31.9720  -16.3330   38.6880 C.ar  295  TRP295      0.0191
    151  CZ3       33.6850  -17.2670   40.1540 C.ar  295  TRP295      0.0001
    152  CH2       32.3230  -17.0310   39.8190 C.ar  295  TRP295      0.0015
@<TRIPOS>BOND
     1     1     2    1
     2    18    17    1
     3    13    14    1
     4     2     5    1
     5     2     3    1
     6    14    17    1
     7    14    15    1
     8     5     6    1
     9     3     4    2
    10    15    16    2
    11    15    19   am
    12    19    20    1
    13     6     7   ar
    14     6     8   ar
    15   110   111   ar
    16   110   108   ar
    17     7     9   ar
    18   111   109   ar
    19    21    20    1
    20    21    22    2
    21     8    10   ar
    22    20    23    1
    23   108   107   ar
    24     9    11   ar
    25   109   107   ar
    26    37    35    1
    27    23    24    1
    28   107   106    1
    29    10    11   ar
    30    31    32    1
    31    35    32    1
    32    35    36    1
    33    26    24   ar
    34    26    28   ar
    35    11    12    1
    36    99    97   ar
    37    99   100   ar
    38    24    25   ar
    39   115   114    2
    40   113   112    1
    41   113   114    1
    42   113   116    1
    43   112   104   am
    44    97    95   ar
    45    32    33    1
    46   117   116    1
    47   117   118    1
    48   101   100    1
    49    28    29   ar
    50   106   103    1
    51   100    98   ar
    52    25    27   ar
    53    45    44   ar
    54   103   104    1
    55   103   102    1
    56   104   105    2
    57   118   120   ar
    58   118   119   ar
    59    29    27   ar
    60    29    30    1
    61    95    94    1
    62    95    96   ar
    63    33    34    2
    64    94    91    1
    65    98    96   ar
    66    44    46   ar
    67    44    43    1
    68    42    43    1
    69    42    39    1
    70    93    92    2
    71   121   122    1
    72    91    90    1
    73    91    92    1
    74    90    88   am
    75    38    39    1
    76    39    40    1
    77   122   125    1
    78   122   123    1
    79   125   126    1
    80    54    53    1
    81    87    88    1
    82    87    86    1
    83   132   131    2
    84    88    89    2
    85   136   138   ar
    86   136   134   ar
    87   142   141    2
    88   127   126    1
    89   127   128    1
    90   123   124    2
    91    40    47   am
    92    40    41    2
    93    53    52    1
    94    47    48    1
    95   138   137   ar
    96    52    51    1
    97    86    80   am
    98   131   130    1
    99   131   139   am
   100   141   140    1
   101   133   134    1
   102   133   130    1
   103   134   135   ar
   104   140   139    1
   105   140   143    1
   106    81    80    2
   107   130   129    1
   108   145   147   ar
   109   145   144   ar
   110    67    66    2
   111    51    48    1
   112    80    79    1
   113    48    49    1
   114   147   148   ar
   115   137   135   ar
   116   143   144    1
   117   144   146   ar
   118    66    65    1
   119    66    78   am
   120    79    78    1
   121    79    82    1
   122    49    50    2
   123   148   146   ar
   124   148   150   ar
   125    65    68    1
   126    65    64    1
   127    58    57    2
   128   146   149   ar
   129    62    61   ar
   130    68    69    1
   131    63    61   ar
   132   150   152   ar
   133    74    76   ar
   134    74    71   ar
   135    82    83    1
   136    61    60    1
   137    57    64   am
   138    57    56    1
   139    76    77   ar
   140   149   151   ar
   141    69    71   ar
   142    69    70   ar
   143    71    73   ar
   144   152   151   ar
   145    83    84    1
   146    60    59    1
   147    56    59    1
   148    56    55    1
   149    77    75   ar
   150    70    72   ar
   151    73    75   ar
   152    73    72   ar
   153    84    85    1
