@<TRIPOS>MOLECULE
tmp/4y2jA00.pdb
 189 185 0 0 0
SMALL
GASTEIGER

@<TRIPOS>ATOM
      1  N        -23.8020   -9.9760   65.3570 N.3   266  PHE266     -0.1228
      2  CA       -23.5050  -11.4130   65.4620 C.3   266  PHE266      0.1721
      3  C        -23.1700  -11.7950   66.9270 C.2   266  PHE266      0.2437
      4  O        -22.4190  -11.0880   67.6060 O.2   266  PHE266     -0.2733
      5  CB       -22.2640  -11.7140   64.6140 C.3   266  PHE266      0.0547
      6  CG       -21.7590  -13.1400   64.7540 C.ar  266  PHE266     -0.0202
      7  CD1      -20.8960  -13.5000   65.8220 C.ar  266  PHE266     -0.0042
      8  CD2      -22.1270  -14.1290   63.8330 C.ar  266  PHE266     -0.0042
      9  CE1      -20.4230  -14.8410   65.9630 C.ar  266  PHE266     -0.0003
     10  CE2      -21.6720  -15.4750   63.9740 C.ar  266  PHE266     -0.0003
     11  CZ       -20.8020  -15.8300   65.0470 C.ar  266  PHE266     -0.0000
     12  N        -23.6720  -12.9350   67.4110 N.am  267  PRO267     -0.2729
     13  CA       -24.6960  -13.7420   66.8550 C.3   267  PRO267      0.1401
     14  C        -25.9440  -13.4380   67.6350 C.2   267  PRO267      0.2269
     15  O        -26.1340  -13.9940   68.7090 O.2   267  PRO267     -0.2865
     16  CB       -24.2080  -15.1790   67.1780 C.3   267  PRO267      0.0296
     17  CG       -23.2710  -15.0540   68.3490 C.3   267  PRO267      0.0237
     18  CD       -23.1030  -13.5470   68.6310 C.3   267  PRO267      0.0939
     19  N        -22.7670   -3.6970   65.5650 N.3   334  ASP334     -0.1225
     20  CA       -21.9170   -4.7940   65.1790 C.3   334  ASP334      0.1805
     21  C        -22.1250   -5.0700   63.6570 C.2   334  ASP334      0.2597
     22  O        -22.1200   -4.1030   62.8650 O.2   334  ASP334     -0.2718
     23  CB       -22.1430   -6.0190   66.1280 C.3   334  ASP334      0.1424
     24  CG       -21.2110   -7.1780   65.8010 C.2   334  ASP334      0.3668
     25  OD1      -21.6510   -8.1090   65.0500 O.co2 334  ASP334     -0.2456
     26  OD2      -20.0370   -7.1220   66.2280 O.co2 334  ASP334     -0.2456
     27  N        -22.3510   -6.3220   63.2060 N.am  335  TRP335     -0.1976
     28  CA       -22.5650   -6.5310   61.7460 C.3   335  TRP335      0.1640
     29  C        -23.7090   -5.6930   61.2290 C.2   335  TRP335      0.2290
     30  O        -23.6760   -5.2510   60.0890 O.2   335  TRP335     -0.2864
     31  CB       -22.8380   -8.0440   61.3810 C.3   335  TRP335      0.0576
     32  CG       -21.5980   -8.6950   60.9750 C.ar  335  TRP335      0.0006
     33  CD1      -20.9400   -9.6730   61.6450 C.ar  335  TRP335      0.0946
     34  CD2      -20.7880   -8.3720   59.8180 C.ar  335  TRP335      0.0152
     35  NE1      -19.7660  -10.0000   60.9870 N.ar  335  TRP335     -0.2442
     36  CE2      -19.6600   -9.2480   59.8470 C.ar  335  TRP335      0.0810
     37  CE3      -20.9390   -7.4800   58.7330 C.ar  335  TRP335      0.0012
     38  CZ2      -18.6370   -9.2260   58.8650 C.ar  335  TRP335      0.0191
     39  CZ3      -19.9360   -7.4620   57.7440 C.ar  335  TRP335      0.0001
     40  CH2      -18.7650   -8.3380   57.8310 C.ar  335  TRP335      0.0015
     41  N        -22.3040   -2.3250   60.3970 N.3   338  MET338     -0.1245
     42  CA       -21.6860   -2.3390   59.0920 C.3   338  MET338      0.1570
     43  C        -22.7200   -2.2070   57.9950 C.2   338  MET338      0.2261
     44  O        -22.4860   -1.5040   56.9900 O.2   338  MET338     -0.2867
     45  CB       -20.9150   -3.6300   58.8350 C.3   338  MET338      0.0387
     46  CG       -20.0320   -3.5270   57.5780 C.3   338  MET338      0.0595
     47  SD       -18.4540   -2.7920   58.0650 S.3   338  MET338     -0.1393
     48  CE       -18.7690   -1.0470   58.0460 C.3   338  MET338      0.0692
     49  N        -19.7140   -0.2680   65.6620 N.3   359  THR359     -0.1218
     50  CA       -19.0930   -0.4580   64.3670 C.3   359  THR359      0.1862
     51  C        -18.7090    0.8320   63.6510 C.2   359  THR359      0.2287
     52  O        -19.6080    1.6490   63.3110 O.2   359  THR359     -0.2866
     53  CB       -20.0340   -1.2590   63.4500 C.3   359  THR359      0.1770
     54  OG1      -20.4690   -2.3980   64.1710 O.3   359  THR359     -0.2211
     55  CG2      -19.3450   -1.6740   62.1590 C.3   359  THR359      0.0375
     56  N         -8.7040   -9.5920   65.5800 N.3   380  PHE380     -0.1241
     57  CA        -9.6040  -10.1760   64.5990 C.3   380  PHE380      0.1605
     58  C         -9.2070  -11.5830   64.2180 C.2   380  PHE380      0.2264
     59  O         -9.7130  -12.1090   63.2200 O.2   380  PHE380     -0.2867
     60  CB        -9.6840   -9.3470   63.3240 C.3   380  PHE380      0.0534
     61  CG       -10.2560   -7.9410   63.4960 C.ar  380  PHE380     -0.0203
     62  CD1      -11.0220   -7.5800   64.6170 C.ar  380  PHE380     -0.0042
     63  CD2      -10.0330   -6.9660   62.4700 C.ar  380  PHE380     -0.0042
     64  CE1      -11.5280   -6.2730   64.7250 C.ar  380  PHE380     -0.0003
     65  CE2      -10.5140   -5.6590   62.5900 C.ar  380  PHE380     -0.0003
     66  CZ       -11.2780   -5.3230   63.7050 C.ar  380  PHE380     -0.0000
     67  N        -10.0610  -14.2860   65.5020 N.3   382  TYR382     -0.1227
     68  CA       -11.2360  -15.1620   65.5460 C.3   382  TYR382      0.1736
     69  C        -11.9470  -15.1420   64.1420 C.2   382  TYR382      0.2595
     70  O        -12.6400  -16.1090   63.7780 O.2   382  TYR382     -0.2718
     71  CB       -12.1940  -14.7520   66.6900 C.3   382  TYR382      0.0548
     72  CG       -13.0390  -13.5600   66.2680 C.ar  382  TYR382     -0.0200
     73  CD1      -14.2500  -13.7540   65.5750 C.ar  382  TYR382     -0.0009
     74  CD2      -12.5940  -12.2590   66.4590 C.ar  382  TYR382     -0.0009
     75  CE1      -15.0020  -12.6810   65.1260 C.ar  382  TYR382      0.0417
     76  CE2      -13.3520  -11.1670   66.0260 C.ar  382  TYR382      0.0417
     77  CZ       -14.5600  -11.3900   65.3620 C.ar  382  TYR382      0.1957
     78  OH       -15.3470  -10.3510   64.8890 O.3   382  TYR382     -0.2866
     79  N        -11.7740  -14.0490   63.3710 N.am  383  GLN383     -0.1979
     80  CA       -12.4410  -13.9720   62.0590 C.3   383  GLN383      0.1601
     81  C        -11.8250  -14.9620   61.0730 C.2   383  GLN383      0.2287
     82  O        -12.5190  -15.4750   60.1870 O.2   383  GLN383     -0.2864
     83  CB       -12.4440  -12.5430   61.4900 C.3   383  GLN383      0.0394
     84  CG       -13.0340  -11.5000   62.4630 C.3   383  GLN383      0.0908
     85  CD       -13.1910  -10.1170   61.8430 C.2   383  GLN383      0.2608
     86  OE1      -13.5890   -9.1580   62.5000 O.2   383  GLN383     -0.2717
     87  NE2      -12.8740  -10.0070   60.5970 N.am  383  GLN383     -0.0878
     88  N        -13.3540  -18.2520   61.8220 N.3   386  PHE386     -0.1241
     89  CA       -14.7030  -18.3410   61.2580 C.3   386  PHE386      0.1605
     90  C        -14.7620  -18.6820   59.7610 C.2   386  PHE386      0.2264
     91  O        -15.8550  -19.0020   59.2480 O.2   386  PHE386     -0.2867
     92  CB       -15.3960  -16.9920   61.4540 C.3   386  PHE386      0.0534
     93  CG       -15.8950  -16.7480   62.8750 C.ar  386  PHE386     -0.0203
     94  CD1      -15.6520  -17.6600   63.9050 C.ar  386  PHE386     -0.0042
     95  CD2      -16.6540  -15.6060   63.1710 C.ar  386  PHE386     -0.0042
     96  CE1      -16.1670  -17.4490   65.1780 C.ar  386  PHE386     -0.0003
     97  CE2      -17.1630  -15.3880   64.4520 C.ar  386  PHE386     -0.0003
     98  CZ       -16.9280  -16.2980   65.4610 C.ar  386  PHE386     -0.0000
     99  N        -20.4080  -15.7370   75.4890 N.3   407  LEU407     -0.1245
    100  CA       -20.3700  -14.4800   74.6890 C.3   407  LEU407      0.1561
    101  C        -20.9400  -13.2670   75.4450 C.2   407  LEU407      0.2260
    102  O        -20.2350  -12.2830   75.6360 O.2   407  LEU407     -0.2867
    103  CB       -21.1190  -14.7110   73.3480 C.3   407  LEU407      0.0270
    104  CG       -20.4220  -15.7090   72.4000 C.3   407  LEU407      0.0019
    105  CD1      -21.3790  -16.0090   71.2640 C.3   407  LEU407      0.0001
    106  CD2      -19.1350  -15.0980   71.8830 C.3   407  LEU407      0.0001
    107  N        -13.2760  -15.1590   77.7000 N.3   416  LEU416     -0.1245
    108  CA       -12.6920  -15.5310   76.4100 C.3   416  LEU416      0.1561
    109  C        -11.9640  -14.3300   75.8420 C.2   416  LEU416      0.2260
    110  O        -12.5650  -13.3030   75.5040 O.2   416  LEU416     -0.2867
    111  CB       -13.7490  -16.1020   75.4030 C.3   416  LEU416      0.0270
    112  CG       -15.2710  -15.8510   75.3640 C.3   416  LEU416      0.0019
    113  CD1      -15.7190  -14.6110   76.1440 C.3   416  LEU416      0.0001
    114  CD2      -15.7290  -15.6980   73.9370 C.3   416  LEU416      0.0001
    115  N         -9.9920  -12.9820   72.6310 N.3   418  MET418     -0.1245
    116  CA       -10.0580  -13.2440   71.2160 C.3   418  MET418      0.1570
    117  C         -8.6320  -13.5480   70.7460 C.2   418  MET418      0.2261
    118  O         -8.2430  -13.2950   69.5900 O.2   418  MET418     -0.2867
    119  CB       -10.6530  -12.0030   70.5500 C.3   418  MET418      0.0387
    120  CG       -11.9520  -11.5460   71.2080 C.3   418  MET418      0.0595
    121  SD       -13.2510  -12.7290   70.8270 S.3   418  MET418     -0.1393
    122  CE       -13.1410  -13.8560   72.1960 C.3   418  MET418      0.0692
    123  N        -12.9970  -20.9800   70.0410 N.3   427  LEU427     -0.1245
    124  CA       -13.2910  -19.7000   70.6770 C.3   427  LEU427      0.1561
    125  C        -13.4180  -19.8740   72.1510 C.2   427  LEU427      0.2260
    126  O        -13.1580  -18.9520   72.9230 O.2   427  LEU427     -0.2867
    127  CB       -14.5930  -19.1250   70.0890 C.3   427  LEU427      0.0270
    128  CG       -14.9780  -17.6720   70.3410 C.3   427  LEU427      0.0019
    129  CD1      -13.8740  -16.7550   69.8780 C.3   427  LEU427      0.0001
    130  CD2      -16.2540  -17.3690   69.5720 C.3   427  LEU427      0.0001
    131  N        -19.4640  -13.3400   57.9040 N.3   465  TYR465     -0.1241
    132  CA       -18.0220  -13.1540   57.9590 C.3   465  TYR465      0.1605
    133  C        -17.3190  -13.7950   56.7760 C.2   465  TYR465      0.2264
    134  O        -16.1100  -13.6990   56.6270 O.2   465  TYR465     -0.2867
    135  CB       -17.5350  -13.8770   59.1900 C.3   465  TYR465      0.0534
    136  CG       -17.6490  -13.0870   60.5140 C.ar  465  TYR465     -0.0201
    137  CD1      -16.7910  -12.0210   60.7760 C.ar  465  TYR465     -0.0009
    138  CD2      -18.6360  -13.4080   61.4870 C.ar  465  TYR465     -0.0009
    139  CE1      -16.8350  -11.3170   62.0000 C.ar  465  TYR465      0.0417
    140  CE2      -18.6770  -12.7330   62.7150 C.ar  465  TYR465      0.0417
    141  CZ       -17.7700  -11.6990   62.9500 C.ar  465  TYR465      0.1957
    142  OH       -17.7400  -10.9650   64.1180 O.3   465  TYR465     -0.2866
    143  N        -15.6420  -11.5540   52.8540 N.3   468  MET468     -0.1245
    144  CA       -14.6770  -10.4540   52.9770 C.3   468  MET468      0.1570
    145  C        -14.2960   -9.8620   51.6180 C.2   468  MET468      0.2261
    146  O        -14.3220   -8.6410   51.4420 O.2   468  MET468     -0.2867
    147  CB       -13.4290  -10.8790   53.7610 C.3   468  MET468      0.0387
    148  CG       -13.7500  -11.1580   55.2420 C.3   468  MET468      0.0595
    149  SD       -14.7710   -9.8870   56.0980 S.3   468  MET468     -0.1393
    150  CE       -14.6290  -10.4070   57.8220 C.3   468  MET468      0.0692
    151  N        -13.0930   -5.5510   70.8000 N.3   497  VAL497     -0.1231
    152  CA       -13.0400   -5.9860   69.3950 C.3   497  VAL497      0.1692
    153  C        -13.2490   -4.7680   68.4760 C.2   497  VAL497      0.2591
    154  O        -12.4270   -4.4830   67.5490 O.2   497  VAL497     -0.2718
    155  CB       -14.1090   -7.0640   69.1110 C.3   497  VAL497      0.0266
    156  CG1      -13.9270   -7.6500   67.7280 C.3   497  VAL497      0.0020
    157  CG2      -14.0360   -8.1470   70.1670 C.3   497  VAL497      0.0020
    158  N        -14.3500   -4.0530   68.7230 N.am  498  LEU498     -0.1980
    159  CA       -14.6570   -2.8360   67.9600 C.3   498  LEU498      0.1596
    160  C        -14.3030   -1.6250   68.8460 C.2   498  LEU498      0.2287
    161  O        -15.1820   -1.0540   69.4970 O.2   498  LEU498     -0.2864
    162  CB       -16.1390   -2.8060   67.5490 C.3   498  LEU498      0.0297
    163  CG       -16.6220   -3.9790   66.6680 C.3   498  LEU498      0.0022
    164  CD1      -18.1250   -3.8670   66.3090 C.3   498  LEU498      0.0001
    165  CD2      -15.7340   -4.1290   65.4030 C.3   498  LEU498      0.0001
    166  N        -18.8290   -4.8660   74.5650 N.3   523  HIS523     -0.1226
    167  CA       -19.3180   -5.1130   73.2130 C.3   523  HIS523      0.1752
    168  C        -20.8690   -5.2190   73.0600 C.2   523  HIS523      0.2596
    169  O        -21.3860   -4.8310   72.0210 O.2   523  HIS523     -0.2718
    170  CB       -18.7090   -6.4110   72.6100 C.3   523  HIS523      0.0759
    171  CG       -19.2330   -6.6980   71.2300 C.ar  523  HIS523      0.0818
    172  ND1      -18.8480   -5.9550   70.1300 N.ar  523  HIS523     -0.2268
    173  CD2      -20.2070   -7.5370   70.7990 C.ar  523  HIS523      0.1154
    174  CE1      -19.5320   -6.3670   69.0750 C.ar  523  HIS523      0.1986
    175  NE2      -20.3490   -7.3380   69.4500 N.ar  523  HIS523     -0.2212
    176  N        -21.5930   -5.7340   74.0680 N.am  524  TRP524     -0.1976
    177  CA       -23.0640   -5.9840   73.9510 C.3   524  TRP524      0.1640
    178  C        -23.8250   -4.7370   74.3900 C.2   524  TRP524      0.2290
    179  O        -24.5270   -4.7570   75.3820 O.2   524  TRP524     -0.2864
    180  CB       -23.4300   -7.2020   74.7890 C.3   524  TRP524      0.0576
    181  CG       -22.4320   -8.2650   74.4790 C.ar  524  TRP524      0.0006
    182  CD1      -21.3440   -8.6280   75.2540 C.ar  524  TRP524      0.0946
    183  CD2      -22.3390   -9.0370   73.2580 C.ar  524  TRP524      0.0152
    184  NE1      -20.6120   -9.6020   74.6050 N.ar  524  TRP524     -0.2442
    185  CE2      -21.1880   -9.8970   73.3970 C.ar  524  TRP524      0.0810
    186  CE3      -23.1410   -9.1450   72.0980 C.ar  524  TRP524      0.0012
    187  CZ2      -20.7870  -10.7980   72.3910 C.ar  524  TRP524      0.0191
    188  CZ3      -22.7680  -10.0750   71.1120 C.ar  524  TRP524      0.0001
    189  CH2      -21.5880  -10.8930   71.2700 C.ar  524  TRP524      0.0015
@<TRIPOS>BOND
     1   146   145    2
     2   145   144    1
     3   143   144    1
     4   144   147    1
     5   147   148    1
     6   148   149    1
     7   149   150    1
     8   134   133    2
     9   133   132    1
    10    44    43    2
    11    46    47    1
    12    46    45    1
    13    39    40   ar
    14    39    37   ar
    15    40    38   ar
    16   131   132    1
    17   132   135    1
    18    43    42    1
    19    48    47    1
    20    37    34   ar
    21    45    42    1
    22    38    36   ar
    23    42    41    1
    24   135   136    1
    25    91    90    2
    26    90    89    1
    27    34    36   ar
    28    34    32   ar
    29    36    35   ar
    30    30    29    2
    31    82    81    2
    32   136   137   ar
    33   136   138   ar
    34    87    85   am
    35   137   139   ar
    36    32    31    1
    37    32    33   ar
    38    35    33   ar
    39    81    80    1
    40    29    28    1
    41    89    92    1
    42    89    88    1
    43    31    28    1
    44    92    93    1
    45   138   140   ar
    46    83    80    1
    47    83    84    1
    48    28    27    1
    49    85    84    1
    50    85    86    2
    51   139   141   ar
    52    80    79    1
    53    55    53    1
    54    63    65   ar
    55    63    61   ar
    56    65    66   ar
    57   140   141   ar
    58    22    21    2
    59    93    95   ar
    60    93    94   ar
    61   141   142    1
    62    95    97   ar
    63    27    21   am
    64    59    58    2
    65    52    51    2
    66    60    61    1
    67    60    57    1
    68    79    69   am
    69    53    54    1
    70    53    50    1
    71    61    62   ar
    72    51    50    1
    73    21    20    1
    74    66    64   ar
    75    70    69    2
    76     8    10   ar
    77     8     6   ar
    78    94    96   ar
    79    10    11   ar
    80    69    68    1
    81    58    57    1
    82    50    49    1
    83    97    98   ar
    84    57    56    1
    85     5     6    1
    86     5     2    1
    87    62    64   ar
    88     6     7   ar
    89    78    77    1
    90    11     9   ar
    91    25    24   ar
    92    75    77   ar
    93    75    73   ar
    94    96    98   ar
    95    20    19    1
    96    20    23    1
    97     1     2    1
    98    77    76   ar
    99   165   163    1
   100     2     3    1
   101    67    68    1
   102    68    71    1
   103    73    72   ar
   104    24    23    1
   105    24    26   ar
   106     7     9   ar
   107    76    74   ar
   108    72    74   ar
   109    72    71    1
   110   164   163    1
   111   163   162    1
   112    13    16    1
   113    13    12    1
   114    13    14    1
   115     3    12   am
   116     3     4    2
   117    16    17    1
   118    12    18    1
   119   154   153    2
   120   162   159    1
   121    14    15    2
   122   156   155    1
   123   159   158    1
   124   159   160    1
   125    17    18    1
   126   153   158   am
   127   153   152    1
   128   160   161    2
   129   174   175   ar
   130   174   172   ar
   131   155   152    1
   132   155   157    1
   133   152   151    1
   134   175   173   ar
   135   130   128    1
   136   118   117    2
   137   129   128    1
   138   123   124    1
   139   127   128    1
   140   127   124    1
   141   172   171   ar
   142   119   120    1
   143   119   116    1
   144   124   125    1
   145   117   116    1
   146   173   171   ar
   147   121   120    1
   148   121   122    1
   149   188   189   ar
   150   188   186   ar
   151   116   115    1
   152   171   170    1
   153   105   104    1
   154   189   187   ar
   155   106   104    1
   156   169   168    2
   157   186   183   ar
   158   125   126    2
   159   187   185   ar
   160   104   103    1
   161   170   167    1
   162   168   167    1
   163   168   176   am
   164   167   166    1
   165   183   185   ar
   166   183   181   ar
   167   103   100    1
   168   185   184   ar
   169   114   112    1
   170   177   176    1
   171   177   178    1
   172   177   180    1
   173   178   179    2
   174   181   180    1
   175   181   182   ar
   176   184   182   ar
   177   100   101    1
   178   100    99    1
   179   112   111    1
   180   112   113    1
   181   111   108    1
   182   101   102    2
   183   110   109    2
   184   109   108    1
   185   108   107    1
