@<TRIPOS>MOLECULE
tmp/4y2pA00.pdb
 181 178 0 0 0
SMALL
GASTEIGER

@<TRIPOS>ATOM
      1  N        -23.9170   -9.9460   65.4780 N.3   266  PHE266     -0.1241
      2  CA       -23.6650  -11.3890   65.5400 C.3   266  PHE266      0.1605
      3  C        -23.2870  -11.7360   67.0090 C.2   266  PHE266      0.2264
      4  O        -22.5190  -10.9980   67.6410 O.2   266  PHE266     -0.2867
      5  CB       -22.4340  -11.6910   64.6450 C.3   266  PHE266      0.0534
      6  CG       -21.9050  -13.1110   64.8130 C.ar  266  PHE266     -0.0203
      7  CD1      -21.0500  -13.4380   65.9000 C.ar  266  PHE266     -0.0042
      8  CD2      -22.3380  -14.1430   63.9440 C.ar  266  PHE266     -0.0042
      9  CE1      -20.5740  -14.7920   66.0560 C.ar  266  PHE266     -0.0003
     10  CE2      -21.8970  -15.5020   64.0860 C.ar  266  PHE266     -0.0003
     11  CZ       -20.9890  -15.8180   65.1750 C.ar  266  PHE266     -0.0000
     12  N        -22.8640   -3.6970   65.6240 N.3   334  ASP334     -0.1225
     13  CA       -22.0290   -4.7670   65.2080 C.3   334  ASP334      0.1805
     14  C        -22.1960   -5.0220   63.6950 C.2   334  ASP334      0.2597
     15  O        -22.1840   -4.0700   62.8940 O.2   334  ASP334     -0.2718
     16  CB       -22.2670   -6.0300   66.1570 C.3   334  ASP334      0.1424
     17  CG       -21.3050   -7.2070   65.8250 C.2   334  ASP334      0.3668
     18  OD1      -20.0890   -7.0520   66.1410 O.co2 334  ASP334     -0.2456
     19  OD2      -21.7190   -8.1720   65.1010 O.co2 334  ASP334     -0.2456
     20  N        -22.4540   -6.2670   63.2660 N.am  335  TRP335     -0.1976
     21  CA       -22.7620   -6.5070   61.8000 C.3   335  TRP335      0.1640
     22  C        -23.8890   -5.6580   61.2560 C.2   335  TRP335      0.2290
     23  O        -23.8490   -5.1810   60.0950 O.2   335  TRP335     -0.2864
     24  CB       -23.0030   -8.0470   61.4520 C.3   335  TRP335      0.0576
     25  CG       -21.7280   -8.6840   60.9650 C.ar  335  TRP335      0.0006
     26  CD1      -21.0200   -9.6970   61.5840 C.ar  335  TRP335      0.0946
     27  CD2      -20.9470   -8.3090   59.7860 C.ar  335  TRP335      0.0152
     28  NE1      -19.8740   -9.9660   60.8620 N.ar  335  TRP335     -0.2442
     29  CE2      -19.8070   -9.1540   59.7610 C.ar  335  TRP335      0.0810
     30  CE3      -21.1170   -7.3700   58.7530 C.ar  335  TRP335      0.0012
     31  CZ2      -18.8060   -9.0780   58.7540 C.ar  335  TRP335      0.0191
     32  CZ3      -20.1580   -7.3050   57.7560 C.ar  335  TRP335      0.0001
     33  CH2      -18.9850   -8.1880   57.7640 C.ar  335  TRP335      0.0015
     34  N        -10.2270  -14.0540   65.6450 N.3   382  TYR382     -0.1241
     35  CA       -11.4080  -14.9480   65.6640 C.3   382  TYR382      0.1605
     36  C        -12.1420  -14.9080   64.2770 C.2   382  TYR382      0.2264
     37  O        -12.8390  -15.8850   63.8750 O.2   382  TYR382     -0.2867
     38  CB       -12.3410  -14.5650   66.7970 C.3   382  TYR382      0.0534
     39  CG       -13.1580  -13.3320   66.3750 C.ar  382  TYR382     -0.0201
     40  CD1      -12.6590  -12.0450   66.5690 C.ar  382  TYR382     -0.0009
     41  CD2      -14.4130  -13.4710   65.7540 C.ar  382  TYR382     -0.0009
     42  CE1      -13.3550  -10.9210   66.1530 C.ar  382  TYR382      0.0417
     43  CE2      -15.1180  -12.3360   65.3350 C.ar  382  TYR382      0.0417
     44  CZ       -14.5790  -11.0900   65.5380 C.ar  382  TYR382      0.1957
     45  OH       -15.2880  -10.0120   65.1390 O.3   382  TYR382     -0.2866
     46  N        -13.5040  -18.0390   62.0470 N.3   386  PHE386     -0.1241
     47  CA       -14.8440  -18.2090   61.4480 C.3   386  PHE386      0.1605
     48  C        -14.9020  -18.5800   59.9350 C.2   386  PHE386      0.2264
     49  O        -16.0110  -18.8780   59.4090 O.2   386  PHE386     -0.2867
     50  CB       -15.6200  -16.8880   61.6560 C.3   386  PHE386      0.0534
     51  CG       -16.0490  -16.6310   63.1020 C.ar  386  PHE386     -0.0203
     52  CD1      -15.7910  -17.5650   64.1300 C.ar  386  PHE386     -0.0042
     53  CD2      -16.8410  -15.4940   63.4180 C.ar  386  PHE386     -0.0042
     54  CE1      -16.2650  -17.3430   65.4300 C.ar  386  PHE386     -0.0003
     55  CE2      -17.3230  -15.2950   64.7160 C.ar  386  PHE386     -0.0003
     56  CZ       -17.0590  -16.2270   65.7220 C.ar  386  PHE386     -0.0000
     57  N        -21.2170  -17.5500   77.6000 N.3   406  SER406     -0.1202
     58  CA       -19.7870  -17.1380   77.4730 C.3   406  SER406      0.2020
     59  C        -19.5940  -15.8310   76.6870 C.2   406  SER406      0.2618
     60  O        -18.6610  -15.0570   76.9830 O.2   406  SER406     -0.2717
     61  CB       -18.9850  -18.2400   76.7260 C.3   406  SER406      0.2103
     62  OG       -19.1600  -19.5020   77.3550 O.3   406  SER406     -0.2182
     63  N        -20.4450  -15.6100   75.6570 N.am  407  LEU407     -0.1979
     64  CA       -20.3820  -14.3550   74.8220 C.3   407  LEU407      0.1596
     65  C        -20.9360  -13.1510   75.5670 C.2   407  LEU407      0.2287
     66  O        -20.2290  -12.1240   75.7510 O.2   407  LEU407     -0.2864
     67  CB       -21.1630  -14.5770   73.5150 C.3   407  LEU407      0.0297
     68  CG       -20.4830  -15.5750   72.5780 C.3   407  LEU407      0.0022
     69  CD1      -21.4920  -15.8830   71.4870 C.3   407  LEU407      0.0001
     70  CD2      -19.1680  -14.9790   72.0330 C.3   407  LEU407      0.0001
     71  N        -21.4130  -10.9180   78.1800 N.3   409  ARG409     -0.1245
     72  CA       -20.7830  -10.5990   79.4580 C.3   409  ARG409      0.1563
     73  C        -20.4420   -9.1240   79.4640 C.2   409  ARG409      0.2260
     74  O        -20.1660   -8.5520   78.3870 O.2   409  ARG409     -0.2867
     75  CB       -19.5260  -11.5260   79.6670 C.3   409  ARG409      0.0307
     76  CG       -19.9660  -12.9880   79.7300 C.3   409  ARG409      0.0489
     77  CD       -18.9140  -13.9740   80.2150 C.3   409  ARG409      0.2205
     78  NE       -18.8860  -13.9890   81.6810 N.pl3 409  ARG409     -0.0865
     79  CZ       -19.7200  -14.6910   82.4250 C.cat 409  ARG409      0.5346
     80  NH1      -19.6070  -14.6430   83.7320 N.pl3 409  ARG409      0.1354
     81  NH2      -20.6850  -15.4240   81.8640 N.pl3 409  ARG409      0.1354
     82  N        -15.2470  -10.9830   81.9330 N.3   414  SER414     -0.1217
     83  CA       -14.9150  -11.8050   80.7580 C.3   414  SER414      0.1889
     84  C        -14.2800  -13.1440   81.0410 C.2   414  SER414      0.2288
     85  O        -13.5590  -13.3120   82.0260 O.2   414  SER414     -0.2866
     86  CB       -14.1180  -11.0530   79.7080 C.3   414  SER414      0.2089
     87  OG       -15.0300  -10.5550   78.7490 O.3   414  SER414     -0.2183
     88  N        -13.5640  -14.9400   77.9120 N.3   416  LEU416     -0.1245
     89  CA       -12.9630  -15.0760   76.5790 C.3   416  LEU416      0.1561
     90  C        -11.9580  -13.9760   76.3240 C.2   416  LEU416      0.2260
     91  O        -12.3250  -12.8090   76.2250 O.2   416  LEU416     -0.2867
     92  CB       -14.0310  -14.9280   75.4740 C.3   416  LEU416      0.0270
     93  CG       -15.2650  -15.8000   75.3480 C.3   416  LEU416      0.0019
     94  CD1      -15.8460  -15.5240   73.9640 C.3   416  LEU416      0.0001
     95  CD2      -14.9300  -17.2640   75.5490 C.3   416  LEU416      0.0001
     96  N        -10.0990  -12.7270   73.1250 N.3   418  MET418     -0.1245
     97  CA       -10.2340  -13.0040   71.7210 C.3   418  MET418      0.1570
     98  C         -8.8170  -13.2810   71.1790 C.2   418  MET418      0.2261
     99  O         -8.4940  -12.9780   70.0360 O.2   418  MET418     -0.2867
    100  CB       -10.9450  -11.8180   71.0680 C.3   418  MET418      0.0387
    101  CG       -12.3930  -11.6480   71.5600 C.3   418  MET418      0.0595
    102  SD       -13.4190  -13.0440   71.0350 S.3   418  MET418     -0.1393
    103  CE       -13.0140  -14.2340   72.2800 C.3   418  MET418      0.0692
    104  N        -13.0330  -20.7550   70.1640 N.3   427  LEU427     -0.1245
    105  CA       -13.3960  -19.5630   70.9260 C.3   427  LEU427      0.1561
    106  C        -13.4730  -19.7840   72.4210 C.2   427  LEU427      0.2260
    107  O        -13.1430  -18.9000   73.2130 O.2   427  LEU427     -0.2867
    108  CB       -14.7500  -19.0130   70.4060 C.3   427  LEU427      0.0270
    109  CG       -14.9470  -17.5200   70.3220 C.3   427  LEU427      0.0019
    110  CD1      -13.7790  -16.7580   69.7360 C.3   427  LEU427      0.0001
    111  CD2      -16.2030  -17.2540   69.5110 C.3   427  LEU427      0.0001
    112  N        -19.6930  -13.3380   58.0790 N.3   465  TYR465     -0.1241
    113  CA       -18.2450  -13.1010   58.1780 C.3   465  TYR465      0.1605
    114  C        -17.5190  -13.7270   56.9900 C.2   465  TYR465      0.2264
    115  O        -16.3020  -13.6130   56.8410 O.2   465  TYR465     -0.2867
    116  CB       -17.7230  -13.7910   59.4510 C.3   465  TYR465      0.0534
    117  CG       -17.7860  -12.9460   60.7440 C.ar  465  TYR465     -0.0201
    118  CD1      -16.8740  -11.9590   60.9670 C.ar  465  TYR465     -0.0009
    119  CD2      -18.8050  -13.1610   61.7380 C.ar  465  TYR465     -0.0009
    120  CE1      -16.9150  -11.1880   62.1430 C.ar  465  TYR465      0.0417
    121  CE2      -18.7970  -12.4460   62.9630 C.ar  465  TYR465      0.0417
    122  CZ       -17.8680  -11.4680   63.1350 C.ar  465  TYR465      0.1957
    123  OH       -17.8080  -10.6980   64.2910 O.3   465  TYR465     -0.2866
    124  N        -15.4790   -1.9390   74.6930 N.3   495  ASP495     -0.1225
    125  CA       -15.5560   -2.9590   73.6150 C.3   495  ASP495      0.1805
    126  C        -14.0970   -3.1360   73.1120 C.2   495  ASP495      0.2598
    127  O        -13.5010   -2.1720   72.5120 O.2   495  ASP495     -0.2718
    128  CB       -16.4960   -2.5140   72.4590 C.3   495  ASP495      0.1424
    129  CG       -16.7180   -3.6290   71.4080 C.2   495  ASP495      0.3668
    130  OD1      -15.7970   -4.4590   71.3050 O.co2 495  ASP495     -0.2456
    131  OD2      -17.7940   -3.6600   70.6870 O.co2 495  ASP495     -0.2456
    132  N        -13.5070   -4.3120   73.3730 N.am  496  PHE496     -0.1962
    133  CA       -12.0920   -4.4780   73.0620 C.3   496  PHE496      0.1771
    134  C        -11.9090   -5.1030   71.7250 C.2   496  PHE496      0.2619
    135  O        -10.7780   -5.3200   71.3250 O.2   496  PHE496     -0.2715
    136  CB       -11.3350   -5.2670   74.1510 C.3   496  PHE496      0.0574
    137  CG       -11.3350   -4.5730   75.4900 C.ar  496  PHE496     -0.0200
    138  CD1      -10.8740   -3.2460   75.6170 C.ar  496  PHE496     -0.0042
    139  CD2      -11.8180   -5.2090   76.6310 C.ar  496  PHE496     -0.0042
    140  CE1      -10.8860   -2.5750   76.8550 C.ar  496  PHE496     -0.0003
    141  CE2      -11.8300   -4.5460   77.8710 C.ar  496  PHE496     -0.0003
    142  CZ       -11.3700   -3.2330   77.9780 C.ar  496  PHE496     -0.0000
    143  N        -13.0160   -5.3950   71.0120 N.am  497  VAL497     -0.1963
    144  CA       -12.9300   -5.8080   69.6040 C.3   497  VAL497      0.1727
    145  C        -13.1890   -4.5860   68.6780 C.2   497  VAL497      0.2616
    146  O        -12.3690   -4.2210   67.8130 O.2   497  VAL497     -0.2715
    147  CB       -13.9280   -6.9620   69.2870 C.3   497  VAL497      0.0290
    148  CG1      -13.7720   -7.4390   67.8500 C.3   497  VAL497      0.0023
    149  CG2      -13.6890   -8.1730   70.2010 C.3   497  VAL497      0.0023
    150  N        -14.3620   -3.9630   68.8460 N.am  498  LEU498     -0.1977
    151  CA       -14.6840   -2.7830   68.0890 C.3   498  LEU498      0.1596
    152  C        -14.3390   -1.5470   68.9050 C.2   498  LEU498      0.2287
    153  O        -15.2060   -0.9260   69.5030 O.2   498  LEU498     -0.2864
    154  CB       -16.1690   -2.7740   67.6590 C.3   498  LEU498      0.0297
    155  CG       -16.6100   -4.0100   66.8370 C.3   498  LEU498      0.0022
    156  CD1      -18.1080   -3.9000   66.4370 C.3   498  LEU498      0.0001
    157  CD2      -15.7520   -4.2590   65.5730 C.3   498  LEU498      0.0001
    158  N        -18.8340   -4.8210   74.5470 N.3   523  HIS523     -0.1226
    159  CA       -19.4030   -5.1390   73.2510 C.3   523  HIS523      0.1752
    160  C        -20.9520   -5.1940   73.1300 C.2   523  HIS523      0.2596
    161  O        -21.4730   -4.7240   72.1130 O.2   523  HIS523     -0.2718
    162  CB       -18.8140   -6.4320   72.6130 C.3   523  HIS523      0.0759
    163  CG       -19.3370   -6.6370   71.2030 C.ar  523  HIS523      0.0818
    164  ND1      -18.9210   -5.8450   70.1440 N.ar  523  HIS523     -0.2268
    165  CD2      -20.3550   -7.4050   70.7260 C.ar  523  HIS523      0.1154
    166  CE1      -19.5960   -6.1910   69.0580 C.ar  523  HIS523      0.1986
    167  NE2      -20.4500   -7.1530   69.3790 N.ar  523  HIS523     -0.2212
    168  N        -21.6660   -5.7270   74.1330 N.am  524  TRP524     -0.1976
    169  CA       -23.1440   -5.9990   74.0320 C.3   524  TRP524      0.1640
    170  C        -23.8960   -4.7660   74.4820 C.2   524  TRP524      0.2290
    171  O        -24.6000   -4.7600   75.4860 O.2   524  TRP524     -0.2864
    172  CB       -23.4630   -7.2780   74.8290 C.3   524  TRP524      0.0576
    173  CG       -22.3950   -8.3140   74.4720 C.ar  524  TRP524      0.0006
    174  CD1      -21.2570   -8.6390   75.2130 C.ar  524  TRP524      0.0946
    175  CD2      -22.3060   -9.0870   73.2480 C.ar  524  TRP524      0.0152
    176  NE1      -20.5170   -9.5730   74.5440 N.ar  524  TRP524     -0.2442
    177  CE2      -21.1260   -9.8870   73.3510 C.ar  524  TRP524      0.0810
    178  CE3      -23.1440   -9.2180   72.0890 C.ar  524  TRP524      0.0012
    179  CZ2      -20.7300  -10.7800   72.3500 C.ar  524  TRP524      0.0191
    180  CZ3      -22.7650  -10.1300   71.1120 C.ar  524  TRP524      0.0001
    181  CH2      -21.5600  -10.8940   71.2370 C.ar  524  TRP524      0.0015
@<TRIPOS>BOND
     1   115   114    2
     2   114   113    1
     3    32    33   ar
     4    32    30   ar
     5    33    31   ar
     6   112   113    1
     7   113   116    1
     8    30    27   ar
     9    31    29   ar
    10    49    48    2
    11   116   117    1
    12    29    27   ar
    13    29    28   ar
    14    27    25   ar
    15    48    47    1
    16    23    22    2
    17   117   118   ar
    18   117   119   ar
    19    28    26   ar
    20    25    24    1
    21    25    26   ar
    22   118   120   ar
    23    22    21    1
    24    47    50    1
    25    47    46    1
    26    24    21    1
    27    50    51    1
    28   119   121   ar
    29    21    20    1
    30   120   122   ar
    31    15    14    2
    32   121   122   ar
    33    51    53   ar
    34    51    52   ar
    35   122   123    1
    36    20    14   am
    37    53    55   ar
    38    14    13    1
    39    37    36    2
    40     8    10   ar
    41     8     6   ar
    42    10    11   ar
    43    52    54   ar
    44    36    35    1
    45     5     6    1
    46     5     2    1
    47    55    56   ar
    48     6     7   ar
    49    19    17   ar
    50    45    44    1
    51    11     9   ar
    52    13    12    1
    53    13    16    1
    54    43    44   ar
    55    43    41   ar
    56    54    56   ar
    57     1     2    1
    58    44    42   ar
    59     2     3    1
    60   157   155    1
    61    34    35    1
    62    35    38    1
    63    41    39   ar
    64    17    18   ar
    65    17    16    1
    66     7     9   ar
    67    42    40   ar
    68    39    40   ar
    69    39    38    1
    70   156   155    1
    71   155   154    1
    72     3     4    2
    73   154   151    1
    74   146   145    2
    75   148   147    1
    76   151   150    1
    77   151   152    1
    78   145   150   am
    79   145   144    1
    80   152   153    2
    81   166   167   ar
    82   166   164   ar
    83   147   144    1
    84   147   149    1
    85   167   165   ar
    86   111   109    1
    87   144   143    1
    88   110   109    1
    89    99    98    2
    90   164   163   ar
    91   104   105    1
    92   109   108    1
    93   108   105    1
    94   131   129   ar
    95   165   163   ar
    96   105   106    1
    97   143   134   am
    98   102   101    1
    99   102   103    1
   100   100   101    1
   101   100    97    1
   102   180   181   ar
   103   180   178   ar
   104    98    97    1
   105   163   162    1
   106   181   179   ar
   107   130   129   ar
   108   135   134    2
   109   129   128    1
   110    69    68    1
   111    97    96    1
   112   134   133    1
   113    70    68    1
   114   178   175   ar
   115   161   160    2
   116   179   177   ar
   117   106   107    2
   118   128   125    1
   119   127   126    2
   120    68    67    1
   121   162   159    1
   122   133   132    1
   123   133   136    1
   124   126   132   am
   125   126   125    1
   126   160   159    1
   127   160   168   am
   128   175   177   ar
   129   175   173   ar
   130   159   158    1
   131   177   176   ar
   132    67    64    1
   133   125   124    1
   134    94    93    1
   135   169   168    1
   136   169   170    1
   137   169   172    1
   138   136   137    1
   139   173   172    1
   140   173   174   ar
   141   170   171    2
   142   176   174   ar
   143    64    65    1
   144    64    63    1
   145    93    92    1
   146    93    95    1
   147    92    89    1
   148   137   138   ar
   149   137   139   ar
   150    65    66    2
   151   138   140   ar
   152    63    59   am
   153    91    90    2
   154    90    89    1
   155    89    88    1
   156   139   141   ar
   157    59    60    2
   158    59    58    1
   159    61    62    1
   160    61    58    1
   161   140   142   ar
   162    58    57    1
   163   141   142   ar
   164    71    72    1
   165    74    73    2
   166    87    86    1
   167    72    73    1
   168    72    75    1
   169    75    76    1
   170    86    83    1
   171    76    77    1
   172    77    78    1
   173    83    84    1
   174    83    82    1
   175    84    85    2
   176    78    79    2
   177    81    79    1
   178    79    80    1
