@<TRIPOS>MOLECULE
tmp/4y2qA00.pdb
 140 136 0 0 0
SMALL
GASTEIGER

@<TRIPOS>ATOM
      1  N        -23.6500   -9.8990   65.1500 N.3   266  PHE266     -0.1228
      2  CA       -23.3590  -11.3400   65.2180 C.3   266  PHE266      0.1721
      3  C        -22.9890  -11.7210   66.6750 C.2   266  PHE266      0.2437
      4  O        -22.1970  -11.0310   67.3140 O.2   266  PHE266     -0.2733
      5  CB       -22.1430  -11.6500   64.3110 C.3   266  PHE266      0.0547
      6  CG       -21.5870  -13.0420   64.5020 C.ar  266  PHE266     -0.0202
      7  CD1      -20.6820  -13.3260   65.5570 C.ar  266  PHE266     -0.0042
      8  CD2      -21.9760  -14.0960   63.6570 C.ar  266  PHE266     -0.0042
      9  CE1      -20.1750  -14.6380   65.7780 C.ar  266  PHE266     -0.0003
     10  CE2      -21.4820  -15.3940   63.8550 C.ar  266  PHE266     -0.0003
     11  CZ       -20.5790  -15.6740   64.9290 C.ar  266  PHE266     -0.0000
     12  N        -23.5010  -12.8380   67.1870 N.am  267  PRO267     -0.2729
     13  CA       -24.5390  -13.6340   66.6350 C.3   267  PRO267      0.1401
     14  C        -25.7580  -13.3610   67.4830 C.2   267  PRO267      0.2269
     15  O        -25.8630  -13.9020   68.5310 O.2   267  PRO267     -0.2865
     16  CB       -24.0240  -15.0820   66.8450 C.3   267  PRO267      0.0296
     17  CG       -23.0520  -15.0040   67.9820 C.3   267  PRO267      0.0237
     18  CD       -22.8440  -13.5350   68.3180 C.3   267  PRO267      0.0939
     19  N        -22.4810   -3.6760   65.4070 N.3   334  ASP334     -0.1239
     20  CA       -21.5890   -4.7720   65.0000 C.3   334  ASP334      0.1674
     21  C        -21.8770   -5.0060   63.4990 C.2   334  ASP334      0.2266
     22  O        -21.9590   -4.0240   62.7650 O.2   334  ASP334     -0.2867
     23  CB       -21.8300   -6.0110   65.9100 C.3   334  ASP334      0.1410
     24  CG       -20.8850   -7.1800   65.5970 C.2   334  ASP334      0.3668
     25  OD1      -19.7220   -7.1920   66.1100 O.co2 334  ASP334     -0.2456
     26  OD2      -21.3230   -8.0770   64.8200 O.co2 334  ASP334     -0.2456
     27  N         -9.9310  -13.8760   65.3560 N.3   382  TYR382     -0.1241
     28  CA       -11.1820  -14.6220   65.4150 C.3   382  TYR382      0.1605
     29  C        -11.8590  -14.6860   64.0030 C.2   382  TYR382      0.2264
     30  O        -12.4710  -15.6840   63.6450 O.2   382  TYR382     -0.2867
     31  CB       -12.1170  -14.0190   66.4800 C.3   382  TYR382      0.0534
     32  CG       -12.8800  -12.8330   65.9300 C.ar  382  TYR382     -0.0201
     33  CD1      -12.3240  -11.5340   65.9520 C.ar  382  TYR382     -0.0009
     34  CD2      -14.1360  -13.0140   65.3330 C.ar  382  TYR382     -0.0009
     35  CE1      -13.0120  -10.4650   65.4170 C.ar  382  TYR382      0.0417
     36  CE2      -14.8220  -11.9470   64.7860 C.ar  382  TYR382      0.0417
     37  CZ       -14.2560  -10.6850   64.8300 C.ar  382  TYR382      0.1957
     38  OH       -14.9480   -9.6620   64.2730 O.3   382  TYR382     -0.2866
     39  N        -13.2160  -18.0270   61.4720 N.3   386  PHE386     -0.1241
     40  CA       -14.6180  -18.1700   61.0370 C.3   386  PHE386      0.1605
     41  C        -14.7240  -18.5870   59.5870 C.2   386  PHE386      0.2264
     42  O        -15.8330  -18.9210   59.1130 O.2   386  PHE386     -0.2867
     43  CB       -15.4070  -16.8680   61.2300 C.3   386  PHE386      0.0534
     44  CG       -15.7940  -16.5730   62.6600 C.ar  386  PHE386     -0.0203
     45  CD1      -15.6280  -17.5140   63.6730 C.ar  386  PHE386     -0.0042
     46  CD2      -16.3700  -15.3310   62.9900 C.ar  386  PHE386     -0.0042
     47  CE1      -16.0020  -17.2220   64.9920 C.ar  386  PHE386     -0.0003
     48  CE2      -16.7460  -15.0230   64.3120 C.ar  386  PHE386     -0.0003
     49  CZ       -16.5740  -15.9750   65.3140 C.ar  386  PHE386     -0.0000
     50  N        -19.7700  -23.5700   67.9490 N.3   396  LEU396     -0.1245
     51  CA       -20.8190  -22.6800   68.4460 C.3   396  LEU396      0.1561
     52  C        -22.1260  -23.3820   68.7200 C.2   396  LEU396      0.2260
     53  O        -22.8660  -22.9860   69.5900 O.2   396  LEU396     -0.2867
     54  CB       -21.0210  -21.5130   67.4800 C.3   396  LEU396      0.0270
     55  CG       -19.8940  -20.4880   67.4710 C.3   396  LEU396      0.0019
     56  CD1      -19.9130  -19.7740   66.1480 C.3   396  LEU396      0.0001
     57  CD2      -20.0870  -19.4910   68.5940 C.3   396  LEU396      0.0001
     58  N        -20.4080  -15.6560   75.4210 N.3   407  LEU407     -0.1245
     59  CA       -20.3280  -14.4540   74.5670 C.3   407  LEU407      0.1561
     60  C        -20.8700  -13.2410   75.2970 C.2   407  LEU407      0.2260
     61  O        -20.1570  -12.2440   75.4540 O.2   407  LEU407     -0.2867
     62  CB       -21.1160  -14.6820   73.2650 C.3   407  LEU407      0.0270
     63  CG       -20.5480  -15.7260   72.2830 C.3   407  LEU407      0.0019
     64  CD1      -21.5450  -15.8410   71.1700 C.3   407  LEU407      0.0001
     65  CD2      -19.2080  -15.2980   71.7110 C.3   407  LEU407      0.0001
     66  N        -13.5510  -15.1780   77.5450 N.3   416  LEU416     -0.1245
     67  CA       -12.9150  -15.3210   76.2300 C.3   416  LEU416      0.1561
     68  C        -12.3550  -13.9940   75.7100 C.2   416  LEU416      0.2260
     69  O        -13.0420  -12.9570   75.6820 O.2   416  LEU416     -0.2867
     70  CB       -13.8580  -15.9830   75.1820 C.3   416  LEU416      0.0270
     71  CG       -15.3570  -15.6990   75.0170 C.3   416  LEU416      0.0019
     72  CD1      -15.8410  -14.4080   75.6710 C.3   416  LEU416      0.0001
     73  CD2      -15.7180  -15.6900   73.5440 C.3   416  LEU416      0.0001
     74  N        -10.3480  -12.3760   72.2630 N.3   418  MET418     -0.1245
     75  CA       -10.4630  -12.5880   70.8270 C.3   418  MET418      0.1570
     76  C         -9.0580  -12.7570   70.2430 C.2   418  MET418      0.2261
     77  O         -8.7940  -12.5420   69.0340 O.2   418  MET418     -0.2867
     78  CB       -11.2630  -11.4320   70.2220 C.3   418  MET418      0.0387
     79  CG       -12.6950  -11.3530   70.7650 C.3   418  MET418      0.0595
     80  SD       -13.7420  -12.6880   70.1500 S.3   418  MET418     -0.1393
     81  CE       -13.4270  -13.9040   71.4030 C.3   418  MET418      0.0692
     82  N        -12.8440  -20.6600   69.9880 N.3   427  LEU427     -0.1245
     83  CA       -13.2790  -19.4930   70.7520 C.3   427  LEU427      0.1561
     84  C        -13.3770  -19.7620   72.2320 C.2   427  LEU427      0.2260
     85  O        -13.2010  -18.8360   73.0460 O.2   427  LEU427     -0.2867
     86  CB       -14.6580  -19.0940   70.2480 C.3   427  LEU427      0.0270
     87  CG       -15.1480  -17.6870   70.0110 C.3   427  LEU427      0.0019
     88  CD1      -14.1220  -16.7430   69.4180 C.3   427  LEU427      0.0001
     89  CD2      -16.3200  -17.8640   69.0620 C.3   427  LEU427      0.0001
     90  N        -19.3380  -13.3090   57.6690 N.3   465  TYR465     -0.1241
     91  CA       -17.9180  -13.1050   57.8370 C.3   465  TYR465      0.1605
     92  C        -17.1370  -13.6950   56.6750 C.2   465  TYR465      0.2264
     93  O        -15.9220  -13.6170   56.6450 O.2   465  TYR465     -0.2867
     94  CB       -17.4630  -13.7330   59.1570 C.3   465  TYR465      0.0534
     95  CG       -17.4820  -12.7840   60.3800 C.ar  465  TYR465     -0.0201
     96  CD1      -16.6290  -11.6940   60.4450 C.ar  465  TYR465     -0.0009
     97  CD2      -18.3460  -12.9950   61.4500 C.ar  465  TYR465     -0.0009
     98  CE1      -16.6070  -10.8480   61.5400 C.ar  465  TYR465      0.0417
     99  CE2      -18.3270  -12.1700   62.5690 C.ar  465  TYR465      0.0417
    100  CZ       -17.4520  -11.0870   62.5930 C.ar  465  TYR465      0.1957
    101  OH       -17.4140  -10.2200   63.6600 O.3   465  TYR465     -0.2866
    102  N        -12.6460   -5.3290   70.5230 N.3   497  VAL497     -0.1231
    103  CA       -12.5860   -5.6350   69.0850 C.3   497  VAL497      0.1692
    104  C        -12.8810   -4.3870   68.2150 C.2   497  VAL497      0.2591
    105  O        -12.1030   -4.0480   67.3180 O.2   497  VAL497     -0.2718
    106  CB       -13.4990   -6.8190   68.6960 C.3   497  VAL497      0.0266
    107  CG1      -13.4720   -7.0630   67.1960 C.3   497  VAL497      0.0020
    108  CG2      -13.0330   -8.0680   69.4080 C.3   497  VAL497      0.0020
    109  N        -14.0010   -3.7110   68.4810 N.am  498  LEU498     -0.1980
    110  CA       -14.3490   -2.5140   67.7200 C.3   498  LEU498      0.1596
    111  C        -14.0120   -1.3490   68.6210 C.2   498  LEU498      0.2287
    112  O        -14.8870   -0.8150   69.2890 O.2   498  LEU498     -0.2864
    113  CB       -15.8390   -2.5270   67.3320 C.3   498  LEU498      0.0297
    114  CG       -16.2700   -3.7720   66.5230 C.3   498  LEU498      0.0022
    115  CD1      -17.7870   -3.9830   66.5320 C.3   498  LEU498      0.0001
    116  CD2      -15.7280   -3.7710   65.0880 C.3   498  LEU498      0.0001
    117  N        -18.6450   -4.8750   74.3870 N.3   523  HIS523     -0.1226
    118  CA       -19.1380   -5.0500   73.0280 C.3   523  HIS523      0.1752
    119  C        -20.6780   -5.1550   72.8990 C.2   523  HIS523      0.2596
    120  O        -21.2240   -4.7600   71.8770 O.2   523  HIS523     -0.2718
    121  CB       -18.5210   -6.2890   72.3540 C.3   523  HIS523      0.0759
    122  CG       -19.1670   -6.5980   71.0360 C.ar  523  HIS523      0.0818
    123  ND1      -18.8500   -5.9220   69.8740 N.ar  523  HIS523     -0.2268
    124  CD2      -20.1780   -7.4490   70.7180 C.ar  523  HIS523      0.1154
    125  CE1      -19.6180   -6.3770   68.8970 C.ar  523  HIS523      0.1986
    126  NE2      -20.4330   -7.2970   69.3840 N.ar  523  HIS523     -0.2212
    127  N        -21.3560   -5.7210   73.9010 N.am  524  TRP524     -0.1976
    128  CA       -22.8160   -5.9420   73.8410 C.3   524  TRP524      0.1640
    129  C        -23.5660   -4.6650   74.2420 C.2   524  TRP524      0.2290
    130  O        -24.3330   -4.6460   75.1990 O.2   524  TRP524     -0.2864
    131  CB       -23.1970   -7.1800   74.6670 C.3   524  TRP524      0.0576
    132  CG       -22.2150   -8.2710   74.3310 C.ar  524  TRP524      0.0006
    133  CD1      -21.1260   -8.6530   75.0840 C.ar  524  TRP524      0.0946
    134  CD2      -22.1410   -9.0380   73.1060 C.ar  524  TRP524      0.0152
    135  NE1      -20.3970   -9.6260   74.4170 N.ar  524  TRP524     -0.2442
    136  CE2      -21.0010   -9.9000   73.2160 C.ar  524  TRP524      0.0810
    137  CE3      -22.9440   -9.1190   71.9440 C.ar  524  TRP524      0.0012
    138  CZ2      -20.6290  -10.7950   72.2020 C.ar  524  TRP524      0.0191
    139  CZ3      -22.5880  -10.0300   70.9520 C.ar  524  TRP524      0.0001
    140  CH2      -21.4260  -10.8550   71.0920 C.ar  524  TRP524      0.0015
@<TRIPOS>BOND
     1    93    92    2
     2    92    91    1
     3    90    91    1
     4    91    94    1
     5    42    41    2
     6    94    95    1
     7    41    40    1
     8    95    96   ar
     9    95    97   ar
    10    96    98   ar
    11    40    43    1
    12    40    39    1
    13    43    44    1
    14    97    99   ar
    15    98   100   ar
    16    99   100   ar
    17   100   101    1
    18    44    46   ar
    19    44    45   ar
    20    22    21    2
    21    46    48   ar
    22    21    20    1
    23    30    29    2
    24     8    10   ar
    25     8     6   ar
    26    45    47   ar
    27    10    11   ar
    28    29    28    1
    29    38    37    1
    30     5     6    1
    31     5     2    1
    32    48    49   ar
    33     6     7   ar
    34    36    37   ar
    35    36    34   ar
    36    26    24   ar
    37    37    35   ar
    38    11     9   ar
    39    47    49   ar
    40    20    19    1
    41    20    23    1
    42   116   114    1
    43     1     2    1
    44     2     3    1
    45    34    32   ar
    46    27    28    1
    47    28    31    1
    48    35    33   ar
    49     7     9   ar
    50    24    23    1
    51    24    25   ar
    52    32    33   ar
    53    32    31    1
    54    56    55    1
    55   114   115    1
    56   114   113    1
    57    13    16    1
    58    13    12    1
    59    13    14    1
    60     3    12   am
    61     3     4    2
    62    16    17    1
    63    12    18    1
    64   107   106    1
    65   105   104    2
    66   113   110    1
    67    55    54    1
    68    55    57    1
    69    54    51    1
    70    14    15    2
    71   110   109    1
    72   110   111    1
    73    50    51    1
    74    17    18    1
    75   104   109   am
    76   104   103    1
    77    51    52    1
    78   111   112    2
    79   106   103    1
    80   106   108    1
    81    52    53    2
    82   125   126   ar
    83   125   123   ar
    84    77    76    2
    85    89    87    1
    86   103   102    1
    87   126   124   ar
    88    88    87    1
    89   123   122   ar
    90    82    83    1
    91    87    86    1
    92    80    79    1
    93    80    81    1
    94    78    79    1
    95    78    75    1
    96    76    75    1
    97    86    83    1
    98   124   122   ar
    99    83    84    1
   100    75    74    1
   101   139   140   ar
   102   139   137   ar
   103   122   121    1
   104   140   138   ar
   105    64    63    1
   106    65    63    1
   107   120   119    2
   108   137   134   ar
   109   138   136   ar
   110    84    85    2
   111    63    62    1
   112   121   118    1
   113   119   118    1
   114   119   127   am
   115   118   117    1
   116   134   136   ar
   117   134   132   ar
   118   136   135   ar
   119    62    59    1
   120    73    71    1
   121   128   127    1
   122   128   129    1
   123   128   131    1
   124   129   130    2
   125   132   131    1
   126   132   133   ar
   127   135   133   ar
   128    59    60    1
   129    59    58    1
   130    71    70    1
   131    71    72    1
   132    70    67    1
   133    60    61    2
   134    69    68    2
   135    68    67    1
   136    67    66    1
