@<TRIPOS>MOLECULE
tmp/4y2rA00.pdb
 140 136 0 0 0
SMALL
GASTEIGER

@<TRIPOS>ATOM
      1  N        -23.4940   -9.9040   65.1970 N.3   266  PHE266     -0.1228
      2  CA       -23.2770  -11.3370   65.3200 C.3   266  PHE266      0.1721
      3  C        -22.9400  -11.7340   66.7790 C.2   266  PHE266      0.2437
      4  O        -22.1600  -11.0540   67.4460 O.2   266  PHE266     -0.2733
      5  CB       -22.1230  -11.7100   64.4230 C.3   266  PHE266      0.0547
      6  CG       -21.5910  -13.0800   64.6730 C.ar  266  PHE266     -0.0202
      7  CD1      -20.7210  -13.3390   65.7730 C.ar  266  PHE266     -0.0042
      8  CD2      -21.9360  -14.1270   63.8310 C.ar  266  PHE266     -0.0042
      9  CE1      -20.2040  -14.6340   66.0140 C.ar  266  PHE266     -0.0003
     10  CE2      -21.4170  -15.4160   64.0610 C.ar  266  PHE266     -0.0003
     11  CZ       -20.5570  -15.6660   65.1550 C.ar  266  PHE266     -0.0000
     12  N        -23.5020  -12.8210   67.2900 N.am  267  PRO267     -0.2729
     13  CA       -24.5300  -13.6300   66.7500 C.3   267  PRO267      0.1401
     14  C        -25.7260  -13.3630   67.6350 C.2   267  PRO267      0.2269
     15  O        -25.8140  -13.9470   68.6820 O.2   267  PRO267     -0.2865
     16  CB       -23.9970  -15.0730   66.9840 C.3   267  PRO267      0.0296
     17  CG       -23.0730  -14.9700   68.1580 C.3   267  PRO267      0.0237
     18  CD       -22.8770  -13.4880   68.4640 C.3   267  PRO267      0.0939
     19  N        -22.4160   -3.6570   65.5700 N.3   334  ASP334     -0.1239
     20  CA       -21.5590   -4.7560   65.1210 C.3   334  ASP334      0.1674
     21  C        -21.8430   -4.9820   63.6280 C.2   334  ASP334      0.2266
     22  O        -21.8290   -4.0230   62.8530 O.2   334  ASP334     -0.2867
     23  CB       -21.8150   -5.9980   66.0130 C.3   334  ASP334      0.1410
     24  CG       -20.8670   -7.1360   65.7250 C.2   334  ASP334      0.3668
     25  OD1      -19.7270   -7.0960   66.2780 O.co2 334  ASP334     -0.2456
     26  OD2      -21.2550   -8.0600   64.9360 O.co2 334  ASP334     -0.2456
     27  N         -9.9270  -13.8470   65.4730 N.3   382  TYR382     -0.1241
     28  CA       -11.1650  -14.5870   65.5290 C.3   382  TYR382      0.1605
     29  C        -11.8580  -14.6500   64.1380 C.2   382  TYR382      0.2264
     30  O        -12.4960  -15.6430   63.8040 O.2   382  TYR382     -0.2867
     31  CB       -12.0720  -13.9890   66.6110 C.3   382  TYR382      0.0534
     32  CG       -12.8630  -12.8050   66.1220 C.ar  382  TYR382     -0.0201
     33  CD1      -14.1140  -12.9970   65.5320 C.ar  382  TYR382     -0.0009
     34  CD2      -12.3540  -11.5010   66.2090 C.ar  382  TYR382     -0.0009
     35  CE1      -14.8330  -11.9380   65.0500 C.ar  382  TYR382      0.0417
     36  CE2      -13.0780  -10.4230   65.7250 C.ar  382  TYR382      0.0417
     37  CZ       -14.3180  -10.6600   65.1470 C.ar  382  TYR382      0.1957
     38  OH       -15.0920   -9.6540   64.6480 O.3   382  TYR382     -0.2866
     39  N        -13.2550  -17.9480   61.6120 N.3   386  PHE386     -0.1241
     40  CA       -14.6340  -18.0860   61.1300 C.3   386  PHE386      0.1605
     41  C        -14.6850  -18.4730   59.6660 C.2   386  PHE386      0.2264
     42  O        -15.7540  -18.8480   59.1410 O.2   386  PHE386     -0.2867
     43  CB       -15.4280  -16.7940   61.3410 C.3   386  PHE386      0.0534
     44  CG       -15.8010  -16.5260   62.7870 C.ar  386  PHE386     -0.0203
     45  CD1      -15.5730  -17.4770   63.7960 C.ar  386  PHE386     -0.0042
     46  CD2      -16.4260  -15.3200   63.1430 C.ar  386  PHE386     -0.0042
     47  CE1      -15.9320  -17.2070   65.1270 C.ar  386  PHE386     -0.0003
     48  CE2      -16.7900  -15.0480   64.4830 C.ar  386  PHE386     -0.0003
     49  CZ       -16.5460  -15.9920   65.4740 C.ar  386  PHE386     -0.0000
     50  N        -20.2030  -15.6020   75.4470 N.3   407  LEU407     -0.1245
     51  CA       -20.2030  -14.3660   74.6470 C.3   407  LEU407      0.1561
     52  C        -20.7630  -13.1810   75.4010 C.2   407  LEU407      0.2260
     53  O        -20.0600  -12.1930   75.5800 O.2   407  LEU407     -0.2867
     54  CB       -20.9810  -14.5860   73.3550 C.3   407  LEU407      0.0270
     55  CG       -20.3670  -15.6360   72.4120 C.3   407  LEU407      0.0019
     56  CD1      -21.3620  -15.8610   71.3380 C.3   407  LEU407      0.0001
     57  CD2      -19.0640  -15.1580   71.8080 C.3   407  LEU407      0.0001
     58  N        -13.5600  -15.1160   77.4760 N.3   416  LEU416     -0.1245
     59  CA       -12.9340  -15.2270   76.1420 C.3   416  LEU416      0.1561
     60  C        -12.3300  -13.8990   75.6980 C.2   416  LEU416      0.2260
     61  O        -12.9710  -12.8370   75.7660 O.2   416  LEU416     -0.2867
     62  CB       -13.9140  -15.7560   75.0550 C.3   416  LEU416      0.0270
     63  CG       -15.4060  -15.4430   75.0290 C.3   416  LEU416      0.0019
     64  CD1      -15.7660  -14.0760   75.6140 C.3   416  LEU416      0.0001
     65  CD2      -15.9070  -15.5410   73.6080 C.3   416  LEU416      0.0001
     66  N        -10.3800  -12.2830   72.2340 N.3   418  MET418     -0.1245
     67  CA       -10.5600  -12.4990   70.7960 C.3   418  MET418      0.1570
     68  C         -9.2010  -12.6550   70.0990 C.2   418  MET418      0.2261
     69  O         -9.0300  -12.5000   68.8600 O.2   418  MET418     -0.2867
     70  CB       -11.3890  -11.3540   70.2350 C.3   418  MET418      0.0387
     71  CG       -12.7960  -11.3070   70.8120 C.3   418  MET418      0.0595
     72  SD       -13.8140  -12.6920   70.2670 S.3   418  MET418     -0.1393
     73  CE       -13.4850  -13.8200   71.6140 C.3   418  MET418      0.0692
     74  N        -12.8230  -20.6530   70.0720 N.3   427  LEU427     -0.1245
     75  CA       -13.2800  -19.4640   70.7880 C.3   427  LEU427      0.1561
     76  C        -13.3710  -19.6790   72.2780 C.2   427  LEU427      0.2260
     77  O        -13.2030  -18.7170   73.0480 O.2   427  LEU427     -0.2867
     78  CB       -14.6500  -19.0600   70.2620 C.3   427  LEU427      0.0270
     79  CG       -15.0420  -17.6090   70.2020 C.3   427  LEU427      0.0019
     80  CD1      -13.9020  -16.7200   69.7750 C.3   427  LEU427      0.0001
     81  CD2      -16.1410  -17.5540   69.1690 C.3   427  LEU427      0.0001
     82  N        -19.2880  -13.2480   57.8130 N.3   465  TYR465     -0.1241
     83  CA       -17.8670  -13.0430   57.9060 C.3   465  TYR465      0.1605
     84  C        -17.1190  -13.6490   56.7270 C.2   465  TYR465      0.2264
     85  O        -15.9020  -13.5950   56.6870 O.2   465  TYR465     -0.2867
     86  CB       -17.3520  -13.7090   59.1650 C.3   465  TYR465      0.0534
     87  CG       -17.4890  -12.8830   60.4440 C.ar  465  TYR465     -0.0201
     88  CD1      -16.6280  -11.8240   60.6940 C.ar  465  TYR465     -0.0009
     89  CD2      -18.4710  -13.1680   61.4050 C.ar  465  TYR465     -0.0009
     90  CE1      -16.6990  -11.0750   61.8570 C.ar  465  TYR465      0.0417
     91  CE2      -18.5490  -12.4240   62.5900 C.ar  465  TYR465      0.0417
     92  CZ       -17.6470  -11.3910   62.7940 C.ar  465  TYR465      0.1957
     93  OH       -17.6730  -10.6020   63.9200 O.3   465  TYR465     -0.2866
     94  N        -15.0060   -1.9830   74.4420 N.3   495  ASP495     -0.1239
     95  CA       -15.1280   -2.9830   73.3920 C.3   495  ASP495      0.1674
     96  C        -13.7040   -3.1870   72.8800 C.2   495  ASP495      0.2266
     97  O        -13.1280   -2.2810   72.2790 O.2   495  ASP495     -0.2867
     98  CB       -16.0970   -2.4950   72.2840 C.3   495  ASP495      0.1410
     99  CG       -16.3940   -3.5630   71.2350 C.2   495  ASP495      0.3668
    100  OD1      -15.5080   -4.3760   70.9810 O.co2 495  ASP495     -0.2456
    101  OD2      -17.4980   -3.5610   70.6270 O.co2 495  ASP495     -0.2456
    102  N        -12.5840   -5.2410   70.6610 N.3   497  VAL497     -0.1231
    103  CA       -12.5360   -5.5510   69.2180 C.3   497  VAL497      0.1692
    104  C        -12.8590   -4.3120   68.3530 C.2   497  VAL497      0.2591
    105  O        -12.0570   -3.9180   67.4880 O.2   497  VAL497     -0.2718
    106  CB       -13.4470   -6.7360   68.8280 C.3   497  VAL497      0.0266
    107  CG1      -13.2550   -7.0810   67.3620 C.3   497  VAL497      0.0020
    108  CG2      -13.1040   -7.9350   69.6770 C.3   497  VAL497      0.0020
    109  N        -14.0290   -3.7060   68.5910 N.am  498  LEU498     -0.1980
    110  CA       -14.3930   -2.5080   67.8560 C.3   498  LEU498      0.1596
    111  C        -14.0060   -1.3390   68.7470 C.2   498  LEU498      0.2287
    112  O        -14.8740   -0.6850   69.3250 O.2   498  LEU498     -0.2864
    113  CB       -15.8810   -2.5140   67.4800 C.3   498  LEU498      0.0297
    114  CG       -16.3050   -3.7380   66.6460 C.3   498  LEU498      0.0022
    115  CD1      -17.8290   -3.8600   66.4870 C.3   498  LEU498      0.0001
    116  CD2      -15.6130   -3.7430   65.2800 C.3   498  LEU498      0.0001
    117  N        -18.5940   -4.7750   74.4980 N.3   523  HIS523     -0.1226
    118  CA       -19.0700   -4.9660   73.1370 C.3   523  HIS523      0.1752
    119  C        -20.6000   -5.0910   72.9910 C.2   523  HIS523      0.2596
    120  O        -21.1520   -4.7520   71.9400 O.2   523  HIS523     -0.2718
    121  CB       -18.4660   -6.2380   72.5360 C.3   523  HIS523      0.0759
    122  CG       -19.0590   -6.5690   71.2070 C.ar  523  HIS523      0.0818
    123  ND1      -18.7170   -5.8870   70.0540 N.ar  523  HIS523     -0.2268
    124  CD2      -20.0410   -7.4390   70.8590 C.ar  523  HIS523      0.1154
    125  CE1      -19.4350   -6.3590   69.0530 C.ar  523  HIS523      0.1986
    126  NE2      -20.2560   -7.2850   69.5160 N.ar  523  HIS523     -0.2212
    127  N        -21.2750   -5.6290   74.0050 N.am  524  TRP524     -0.1976
    128  CA       -22.7340   -5.8780   73.9270 C.3   524  TRP524      0.1640
    129  C        -23.5180   -4.6450   74.3530 C.2   524  TRP524      0.2290
    130  O        -24.3090   -4.6920   75.2900 O.2   524  TRP524     -0.2864
    131  CB       -23.1030   -7.1210   74.7480 C.3   524  TRP524      0.0576
    132  CG       -22.1270   -8.1970   74.4480 C.ar  524  TRP524      0.0006
    133  CD1      -21.0430   -8.5700   75.2150 C.ar  524  TRP524      0.0946
    134  CD2      -22.0600   -8.9850   73.2430 C.ar  524  TRP524      0.0152
    135  NE1      -20.3280   -9.5690   74.5750 N.ar  524  TRP524     -0.2442
    136  CE2      -20.9150   -9.8500   73.3720 C.ar  524  TRP524      0.0810
    137  CE3      -22.8730   -9.0870   72.0930 C.ar  524  TRP524      0.0012
    138  CZ2      -20.5490  -10.7720   72.3810 C.ar  524  TRP524      0.0191
    139  CZ3      -22.5160  -10.0150   71.1040 C.ar  524  TRP524      0.0001
    140  CH2      -21.3510  -10.8470   71.2590 C.ar  524  TRP524      0.0015
@<TRIPOS>BOND
     1    85    84    2
     2    84    83    1
     3    82    83    1
     4    83    86    1
     5    42    41    2
     6    86    87    1
     7    41    40    1
     8    87    88   ar
     9    87    89   ar
    10    88    90   ar
    11    40    43    1
    12    40    39    1
    13    43    44    1
    14    89    91   ar
    15    90    92   ar
    16    91    92   ar
    17    44    46   ar
    18    44    45   ar
    19    92    93    1
    20    22    21    2
    21    46    48   ar
    22    21    20    1
    23    45    47   ar
    24    30    29    2
    25     8    10   ar
    26     8     6   ar
    27    10    11   ar
    28    29    28    1
    29     5     6    1
    30     5     2    1
    31    48    49   ar
    32    38    37    1
    33     6     7   ar
    34    26    24   ar
    35    35    37   ar
    36    35    33   ar
    37    20    19    1
    38    20    23    1
    39    47    49   ar
    40    37    36   ar
    41    11     9   ar
    42     1     2    1
    43   116   114    1
    44     2     3    1
    45    27    28    1
    46    28    31    1
    47    33    32   ar
    48    24    23    1
    49    24    25   ar
    50    36    34   ar
    51     7     9   ar
    52    32    34   ar
    53    32    31    1
    54   115   114    1
    55   114   113    1
    56    13    16    1
    57    13    12    1
    58    13    14    1
    59     3    12   am
    60     3     4    2
    61    16    17    1
    62    12    18    1
    63   107   106    1
    64   113   110    1
    65   105   104    2
    66    14    15    2
    67   110   109    1
    68   110   111    1
    69    17    18    1
    70   104   109   am
    71   104   103    1
    72   111   112    2
    73   106   103    1
    74   106   108    1
    75    69    68    2
    76   125   126   ar
    77   125   123   ar
    78    81    79    1
    79   103   102    1
    80   126   124   ar
    81    80    79    1
    82   123   122   ar
    83    74    75    1
    84    68    67    1
    85    79    78    1
    86    70    67    1
    87    70    71    1
    88    78    75    1
    89    72    71    1
    90    72    73    1
    91   101    99   ar
    92    75    76    1
    93    67    66    1
    94   124   122   ar
    95   100    99   ar
    96   139   140   ar
    97   139   137   ar
    98   122   121    1
    99    99    98    1
   100   140   138   ar
   101    56    55    1
   102    57    55    1
   103   120   119    2
   104   137   134   ar
   105    76    77    2
   106    97    96    2
   107    98    95    1
   108   138   136   ar
   109    55    54    1
   110   121   118    1
   111    96    95    1
   112   119   118    1
   113   119   127   am
   114   118   117    1
   115   134   136   ar
   116   134   132   ar
   117    54    51    1
   118   136   135   ar
   119    95    94    1
   120    65    63    1
   121   128   127    1
   122   128   129    1
   123   128   131    1
   124   129   130    2
   125   132   131    1
   126   132   133   ar
   127   135   133   ar
   128    51    52    1
   129    51    50    1
   130    63    62    1
   131    63    64    1
   132    62    59    1
   133    52    53    2
   134    60    61    2
   135    60    59    1
   136    59    58    1
