@<TRIPOS>MOLECULE
tmp/4y2sA00.pdb
 177 173 0 0 0
SMALL
GASTEIGER

@<TRIPOS>ATOM
      1  N        -23.7440   -9.9690   65.3070 N.3   266  PHE266     -0.1228
      2  CA       -23.5010  -11.3940   65.4440 C.3   266  PHE266      0.1721
      3  C        -23.1240  -11.7610   66.9060 C.2   266  PHE266      0.2437
      4  O        -22.2590  -11.1170   67.5050 O.2   266  PHE266     -0.2733
      5  CB       -22.3210  -11.7500   64.5520 C.3   266  PHE266      0.0547
      6  CG       -21.8280  -13.1560   64.7470 C.ar  266  PHE266     -0.0202
      7  CD1      -20.9480  -13.4760   65.8250 C.ar  266  PHE266     -0.0042
      8  CD2      -22.2700  -14.1760   63.9180 C.ar  266  PHE266     -0.0042
      9  CE1      -20.5020  -14.8160   66.0360 C.ar  266  PHE266     -0.0003
     10  CE2      -21.8620  -15.5190   64.1160 C.ar  266  PHE266     -0.0003
     11  CZ       -20.9600  -15.8480   65.1810 C.ar  266  PHE266     -0.0000
     12  N        -23.6720  -12.8480   67.4550 N.am  267  PRO267     -0.2729
     13  CA       -24.6950  -13.6860   66.9120 C.3   267  PRO267      0.1401
     14  C        -25.9420  -13.3640   67.7020 C.2   267  PRO267      0.2269
     15  O        -26.1410  -13.9090   68.7690 O.2   267  PRO267     -0.2865
     16  CB       -24.1860  -15.1010   67.2400 C.3   267  PRO267      0.0296
     17  CG       -23.3140  -14.9450   68.4350 C.3   267  PRO267      0.0237
     18  CD       -23.0640  -13.4690   68.6570 C.3   267  PRO267      0.0939
     19  N        -22.6370   -3.6860   65.5020 N.3   334  ASP334     -0.1239
     20  CA       -21.7640   -4.7780   65.0660 C.3   334  ASP334      0.1674
     21  C        -22.0190   -5.0360   63.5570 C.2   334  ASP334      0.2266
     22  O        -22.0220   -4.0580   62.7610 O.2   334  ASP334     -0.2867
     23  CB       -21.9250   -6.0110   66.0260 C.3   334  ASP334      0.1410
     24  CG       -20.9930   -7.1760   65.6660 C.2   334  ASP334      0.3668
     25  OD1      -19.8350   -7.1610   66.1490 O.co2 334  ASP334     -0.2456
     26  OD2      -21.4150   -8.1070   64.8890 O.co2 334  ASP334     -0.2456
     27  N        -10.3660  -13.8040   65.5740 N.3   382  TYR382     -0.1241
     28  CA       -11.6360  -14.5480   65.5980 C.3   382  TYR382      0.1605
     29  C        -12.3640  -14.5600   64.2060 C.2   382  TYR382      0.2264
     30  O        -13.0570  -15.5550   63.8430 O.2   382  TYR382     -0.2867
     31  CB       -12.5430  -14.0260   66.7160 C.3   382  TYR382      0.0534
     32  CG       -13.3160  -12.7930   66.3190 C.ar  382  TYR382     -0.0201
     33  CD1      -12.7440  -11.5080   66.4350 C.ar  382  TYR382     -0.0009
     34  CD2      -14.6230  -12.9030   65.8410 C.ar  382  TYR382     -0.0009
     35  CE1      -13.4460  -10.3760   66.0590 C.ar  382  TYR382      0.0417
     36  CE2      -15.3460  -11.7780   65.4750 C.ar  382  TYR382      0.0417
     37  CZ       -14.7500  -10.5180   65.5740 C.ar  382  TYR382      0.1957
     38  OH       -15.4910   -9.4060   65.2260 O.3   382  TYR382     -0.2866
     39  N        -13.4460  -17.8520   61.7420 N.3   386  PHE386     -0.1241
     40  CA       -14.8100  -18.0330   61.2700 C.3   386  PHE386      0.1605
     41  C        -14.8660  -18.3960   59.8000 C.2   386  PHE386      0.2264
     42  O        -15.9610  -18.6410   59.2810 O.2   386  PHE386     -0.2867
     43  CB       -15.6210  -16.7480   61.4820 C.3   386  PHE386      0.0534
     44  CG       -16.0650  -16.5290   62.9030 C.ar  386  PHE386     -0.0203
     45  CD1      -15.8080  -17.4710   63.8990 C.ar  386  PHE386     -0.0042
     46  CD2      -16.7910  -15.3660   63.2510 C.ar  386  PHE386     -0.0042
     47  CE1      -16.2480  -17.2470   65.2040 C.ar  386  PHE386     -0.0003
     48  CE2      -17.2190  -15.1460   64.5720 C.ar  386  PHE386     -0.0003
     49  CZ       -16.9730  -16.1000   65.5480 C.ar  386  PHE386     -0.0000
     50  N        -20.3650  -15.6350   75.6040 N.3   407  LEU407     -0.1245
     51  CA       -20.3170  -14.4170   74.7680 C.3   407  LEU407      0.1561
     52  C        -20.9560  -13.2120   75.4430 C.2   407  LEU407      0.2260
     53  O        -20.3060  -12.2020   75.6030 O.2   407  LEU407     -0.2867
     54  CB       -21.0160  -14.6710   73.4350 C.3   407  LEU407      0.0270
     55  CG       -20.3000  -15.6600   72.5130 C.3   407  LEU407      0.0019
     56  CD1      -21.2850  -15.9340   71.3910 C.3   407  LEU407      0.0001
     57  CD2      -18.9660  -15.0660   72.0100 C.3   407  LEU407      0.0001
     58  N        -21.2660  -11.0600   77.9910 N.3   409  ARG409     -0.1245
     59  CA       -20.6480  -10.7290   79.3020 C.3   409  ARG409      0.1563
     60  C        -20.2510   -9.2510   79.3230 C.2   409  ARG409      0.2260
     61  O        -19.8890   -8.7030   78.2770 O.2   409  ARG409     -0.2867
     62  CB       -19.4140  -11.6810   79.5620 C.3   409  ARG409      0.0307
     63  CG       -19.7610  -13.1870   79.5050 C.3   409  ARG409      0.0489
     64  CD       -18.7510  -14.1430   80.1430 C.3   409  ARG409      0.2205
     65  NE       -18.8260  -14.0990   81.6190 N.pl3 409  ARG409     -0.0865
     66  CZ       -19.7490  -14.7620   82.3020 C.cat 409  ARG409      0.5346
     67  NH1      -19.8190  -14.7030   83.6160 N.pl3 409  ARG409      0.1354
     68  NH2      -20.6450  -15.4750   81.6500 N.pl3 409  ARG409      0.1354
     69  N        -15.3110  -10.9780   81.4520 N.3   414  SER414     -0.1217
     70  CA       -15.0310  -11.7350   80.2230 C.3   414  SER414      0.1889
     71  C        -14.4210  -13.0860   80.5660 C.2   414  SER414      0.2288
     72  O        -13.7290  -13.1890   81.5700 O.2   414  SER414     -0.2866
     73  CB       -14.1290  -10.9340   79.2770 C.3   414  SER414      0.2089
     74  OG       -13.3250  -11.8110   78.4860 O.3   414  SER414     -0.2183
     75  N        -13.1780  -15.1560   77.7820 N.3   416  LEU416     -0.1245
     76  CA       -12.5580  -15.5660   76.5340 C.3   416  LEU416      0.1561
     77  C        -11.9200  -14.3350   75.9260 C.2   416  LEU416      0.2260
     78  O        -12.5850  -13.3210   75.6760 O.2   416  LEU416     -0.2867
     79  CB       -13.5720  -16.2260   75.5450 C.3   416  LEU416      0.0270
     80  CG       -15.0730  -15.9060   75.3930 C.3   416  LEU416      0.0019
     81  CD1      -15.4730  -14.4660   75.6860 C.3   416  LEU416      0.0001
     82  CD2      -15.5490  -16.2650   74.0070 C.3   416  LEU416      0.0001
     83  N        -10.2810  -12.5580   72.7110 N.3   418  MET418     -0.1245
     84  CA       -10.4260  -12.7300   71.2850 C.3   418  MET418      0.1570
     85  C         -9.0110  -12.9440   70.7390 C.2   418  MET418      0.2261
     86  O         -8.6850  -12.5640   69.6100 O.2   418  MET418     -0.2867
     87  CB       -11.1130  -11.5000   70.6950 C.3   418  MET418      0.0387
     88  CG       -12.5380  -11.2650   71.1980 C.3   418  MET418      0.0595
     89  SD       -13.6580  -12.5780   70.6910 S.3   418  MET418     -0.1393
     90  CE       -13.4240  -13.6900   72.0560 C.3   418  MET418      0.0692
     91  N        -12.9210  -20.6630   70.1050 N.3   427  LEU427     -0.1245
     92  CA       -13.3070  -19.4640   70.8940 C.3   427  LEU427      0.1561
     93  C        -13.3650  -19.7530   72.3760 C.2   427  LEU427      0.2260
     94  O        -13.0880  -18.8790   73.2020 O.2   427  LEU427     -0.2867
     95  CB       -14.6890  -18.9940   70.4260 C.3   427  LEU427      0.0270
     96  CG       -15.0590  -17.5610   70.0890 C.3   427  LEU427      0.0019
     97  CD1      -13.8820  -16.7270   69.6210 C.3   427  LEU427      0.0001
     98  CD2      -16.1440  -17.6190   69.0160 C.3   427  LEU427      0.0001
     99  N        -19.4050  -13.2760   57.7030 N.3   465  TYR465     -0.1241
    100  CA       -17.9690  -13.0510   57.8020 C.3   465  TYR465      0.1605
    101  C        -17.2260  -13.6690   56.6460 C.2   465  TYR465      0.2264
    102  O        -16.0020  -13.5180   56.5400 O.2   465  TYR465     -0.2867
    103  CB       -17.4310  -13.7180   59.0460 C.3   465  TYR465      0.0534
    104  CG       -17.7820  -13.0440   60.3950 C.ar  465  TYR465     -0.0201
    105  CD1      -16.9870  -12.0200   60.9280 C.ar  465  TYR465     -0.0009
    106  CD2      -18.9040  -13.4450   61.1100 C.ar  465  TYR465     -0.0009
    107  CE1      -17.2690  -11.4620   62.1670 C.ar  465  TYR465      0.0417
    108  CE2      -19.2180  -12.9110   62.3500 C.ar  465  TYR465      0.0417
    109  CZ       -18.4000  -11.9290   62.8660 C.ar  465  TYR465      0.1957
    110  OH       -18.7500  -11.4100   64.0760 O.3   465  TYR465     -0.2866
    111  N        -15.0980    0.0870   76.3390 N.3   494  LYS494     -0.1231
    112  CA       -14.4710   -1.1890   76.6460 C.3   494  LYS494      0.1693
    113  C        -14.7990   -2.2820   75.6830 C.2   494  LYS494      0.2592
    114  O        -14.6440   -3.4710   76.0020 O.2   494  LYS494     -0.2718
    115  CB       -14.7980   -1.6020   78.0820 C.3   494  LYS494      0.0285
    116  CG       -14.1280   -0.6310   79.0420 C.3   494  LYS494      0.0035
    117  CD       -14.0300   -1.1790   80.4320 C.3   494  LYS494      0.0206
    118  CE       -13.1930   -0.1800   81.2220 C.3   494  LYS494      0.1093
    119  NZ       -13.6360   -0.1380   82.6470 N.3   494  LYS494     -0.1314
    120  N        -15.2380   -1.8930   74.4890 N.am  495  ASP495     -0.1960
    121  CA       -15.3070   -2.8760   73.4190 C.3   495  ASP495      0.1840
    122  C        -13.8430   -3.0880   72.9510 C.2   495  ASP495      0.2622
    123  O        -13.2110   -2.1740   72.3960 O.2   495  ASP495     -0.2715
    124  CB       -16.2440   -2.4340   72.2610 C.3   495  ASP495      0.1450
    125  CG       -16.4990   -3.5630   71.2540 C.2   495  ASP495      0.3671
    126  OD1      -15.5980   -4.4180   71.0810 O.co2 495  ASP495     -0.2456
    127  OD2      -17.5990   -3.6090   70.6210 O.co2 495  ASP495     -0.2456
    128  N        -13.3010   -4.2780   73.1800 N.am  496  PHE496     -0.1960
    129  CA       -11.8750   -4.4630   72.9090 C.3   496  PHE496      0.1771
    130  C        -11.6290   -5.0070   71.5280 C.2   496  PHE496      0.2619
    131  O        -10.4900   -5.2210   71.1660 O.2   496  PHE496     -0.2715
    132  CB       -11.1780   -5.2730   74.0180 C.3   496  PHE496      0.0574
    133  CG       -11.2600   -4.6110   75.3770 C.ar  496  PHE496     -0.0200
    134  CD1      -10.8320   -3.2710   75.5620 C.ar  496  PHE496     -0.0042
    135  CD2      -11.7860   -5.2950   76.4820 C.ar  496  PHE496     -0.0042
    136  CE1      -10.9080   -2.6370   76.8240 C.ar  496  PHE496     -0.0003
    137  CE2      -11.8580   -4.6740   77.7410 C.ar  496  PHE496     -0.0003
    138  CZ       -11.4330   -3.3440   77.9080 C.ar  496  PHE496     -0.0000
    139  N        -12.7080   -5.2260   70.7600 N.am  497  VAL497     -0.1963
    140  CA       -12.6320   -5.5170   69.3190 C.3   497  VAL497      0.1727
    141  C        -12.9540   -4.2590   68.4410 C.2   497  VAL497      0.2616
    142  O        -12.1330   -3.8000   67.6220 O.2   497  VAL497     -0.2715
    143  CB       -13.5230   -6.7050   68.9370 C.3   497  VAL497      0.0290
    144  CG1      -13.4680   -6.9400   67.4370 C.3   497  VAL497      0.0023
    145  CG2      -13.0580   -7.9350   69.6820 C.3   497  VAL497      0.0023
    146  N        -14.1480   -3.6930   68.6440 N.am  498  LEU498     -0.1977
    147  CA       -14.5310   -2.4800   67.9590 C.3   498  LEU498      0.1596
    148  C        -14.1520   -1.2720   68.8540 C.2   498  LEU498      0.2287
    149  O        -15.0000   -0.6830   69.5120 O.2   498  LEU498     -0.2864
    150  CB       -16.0190   -2.5350   67.5870 C.3   498  LEU498      0.0297
    151  CG       -16.4200   -3.7700   66.7640 C.3   498  LEU498      0.0022
    152  CD1      -17.9250   -3.8340   66.4790 C.3   498  LEU498      0.0001
    153  CD2      -15.6440   -3.8700   65.4470 C.3   498  LEU498      0.0001
    154  N        -18.7390   -4.8060   74.4670 N.3   523  HIS523     -0.1226
    155  CA       -19.2430   -5.0680   73.1280 C.3   523  HIS523      0.1752
    156  C        -20.7840   -5.1720   73.0110 C.2   523  HIS523      0.2596
    157  O        -21.3520   -4.8190   71.9870 O.2   523  HIS523     -0.2718
    158  CB       -18.6200   -6.3410   72.5030 C.3   523  HIS523      0.0759
    159  CG       -19.1780   -6.6410   71.1290 C.ar  523  HIS523      0.0818
    160  ND1      -18.7820   -5.9470   69.9990 N.ar  523  HIS523     -0.2268
    161  CD2      -20.1900   -7.4610   70.7270 C.ar  523  HIS523      0.1154
    162  CE1      -19.4840   -6.3690   68.9610 C.ar  523  HIS523      0.1986
    163  NE2      -20.3320   -7.3020   69.3690 N.ar  523  HIS523     -0.2212
    164  N        -21.4660   -5.6440   74.0380 N.am  524  TRP524     -0.1976
    165  CA       -22.9080   -5.9140   73.9330 C.3   524  TRP524      0.1640
    166  C        -23.6640   -4.6600   74.3630 C.2   524  TRP524      0.2290
    167  O        -24.4590   -4.6980   75.2960 O.2   524  TRP524     -0.2864
    168  CB       -23.2550   -7.1540   74.7430 C.3   524  TRP524      0.0576
    169  CG       -22.2600   -8.2090   74.4200 C.ar  524  TRP524      0.0006
    170  CD1      -21.1730   -8.5820   75.1860 C.ar  524  TRP524      0.0946
    171  CD2      -22.1900   -8.9940   73.1930 C.ar  524  TRP524      0.0152
    172  NE1      -20.4530   -9.5670   74.5260 N.ar  524  TRP524     -0.2442
    173  CE2      -21.0390   -9.8340   73.3060 C.ar  524  TRP524      0.0810
    174  CE3      -23.0080   -9.0940   72.0340 C.ar  524  TRP524      0.0012
    175  CZ2      -20.6640  -10.7310   72.3010 C.ar  524  TRP524      0.0191
    176  CZ3      -22.6440   -9.9940   71.0340 C.ar  524  TRP524      0.0001
    177  CH2      -21.4670  -10.8130   71.1810 C.ar  524  TRP524      0.0015
@<TRIPOS>BOND
     1   102   101    2
     2   101   100    1
     3    99   100    1
     4   100   103    1
     5   103   104    1
     6    42    41    2
     7    41    40    1
     8   104   105   ar
     9   104   106   ar
    10   105   107   ar
    11   106   108   ar
    12    40    43    1
    13    40    39    1
    14    43    44    1
    15   107   109   ar
    16   108   109   ar
    17    22    21    2
    18   109   110    1
    19    44    46   ar
    20    44    45   ar
    21    46    48   ar
    22    21    20    1
    23    30    29    2
    24    45    47   ar
    25     8    10   ar
    26     8     6   ar
    27    10    11   ar
    28    29    28    1
    29     5     6    1
    30     5     2    1
    31    48    49   ar
    32     6     7   ar
    33    26    24   ar
    34    20    19    1
    35    20    23    1
    36    11     9   ar
    37    47    49   ar
    38    38    37    1
    39     1     2    1
    40     2     3    1
    41   153   151    1
    42    36    37   ar
    43    36    34   ar
    44    37    35   ar
    45    27    28    1
    46    28    31    1
    47    24    23    1
    48    24    25   ar
    49     7     9   ar
    50    34    32   ar
    51    35    33   ar
    52    32    33   ar
    53    32    31    1
    54   152   151    1
    55   151   150    1
    56     3    12   am
    57     3     4    2
    58    13    16    1
    59    13    12    1
    60    13    14    1
    61    16    17    1
    62   144   143    1
    63    12    18    1
    64   150   147    1
    65   142   141    2
    66    14    15    2
    67   147   146    1
    68   147   148    1
    69    17    18    1
    70   141   146   am
    71   141   140    1
    72   148   149    2
    73   143   140    1
    74   143   145    1
    75   162   163   ar
    76   162   160   ar
    77    98    96    1
    78   140   139    1
    79   163   161   ar
    80    86    85    2
    81    97    96    1
    82   160   159   ar
    83    96    95    1
    84    91    92    1
    85    95    92    1
    86   127   125   ar
    87    89    88    1
    88    89    90    1
    89    87    88    1
    90    87    84    1
    91   161   159   ar
    92    85    84    1
    93   139   130   am
    94    92    93    1
    95   176   177   ar
    96   176   174   ar
    97   126   125   ar
    98   159   158    1
    99   131   130    2
   100   177   175   ar
   101   125   124    1
   102    84    83    1
   103    56    55    1
   104   130   129    1
   105   157   156    2
   106    57    55    1
   107   174   171   ar
   108   124   121    1
   109   175   173   ar
   110    93    94    2
   111   123   122    2
   112   158   155    1
   113    55    54    1
   114   129   128    1
   115   129   132    1
   116   122   128   am
   117   122   121    1
   118   156   155    1
   119   156   164   am
   120   155   154    1
   121   171   173   ar
   122   171   169   ar
   123   173   172   ar
   124   121   120    1
   125    54    51    1
   126   165   164    1
   127   165   166    1
   128   165   168    1
   129    82    80    1
   130   132   133    1
   131   166   167    2
   132   169   168    1
   133   169   170   ar
   134   120   113   am
   135   172   170   ar
   136    51    52    1
   137    51    50    1
   138   133   134   ar
   139   133   135   ar
   140    80    79    1
   141    80    81    1
   142    52    53    2
   143    79    76    1
   144   134   136   ar
   145    78    77    2
   146   113   114    2
   147   113   112    1
   148    77    76    1
   149   111   112    1
   150   135   137   ar
   151    76    75    1
   152   112   115    1
   153   136   138   ar
   154   137   138   ar
   155    58    59    1
   156   115   116    1
   157    61    60    2
   158    74    73    1
   159   116   117    1
   160    73    70    1
   161    59    60    1
   162    59    62    1
   163    63    62    1
   164    63    64    1
   165    64    65    1
   166    70    71    1
   167    70    69    1
   168   117   118    1
   169    71    72    2
   170   118   119    1
   171    65    66    2
   172    68    66    1
   173    66    67    1
