@<TRIPOS>MOLECULE
tmp/4y2tA00.pdb
 185 182 0 0 0
SMALL
GASTEIGER

@<TRIPOS>ATOM
      1  N        -22.5140   -3.6930   65.6160 N.3   334  ASP334     -0.1225
      2  CA       -21.6300   -4.8060   65.1640 C.3   334  ASP334      0.1805
      3  C        -21.8220   -5.0170   63.6300 C.2   334  ASP334      0.2597
      4  O        -21.7770   -4.0260   62.8710 O.2   334  ASP334     -0.2718
      5  CB       -21.8660   -6.0530   66.0460 C.3   334  ASP334      0.1424
      6  CG       -20.9010   -7.2130   65.7330 C.2   334  ASP334      0.3668
      7  OD1      -19.7870   -7.2220   66.3330 O.co2 334  ASP334     -0.2456
      8  OD2      -21.2560   -8.1180   64.8940 O.co2 334  ASP334     -0.2456
      9  N        -22.0450   -6.2540   63.1630 N.am  335  TRP335     -0.1976
     10  CA       -22.3640   -6.4660   61.7210 C.3   335  TRP335      0.1640
     11  C        -23.4990   -5.5890   61.2200 C.2   335  TRP335      0.2290
     12  O        -23.4180   -5.0700   60.1290 O.2   335  TRP335     -0.2864
     13  CB       -22.6630   -7.9580   61.3690 C.3   335  TRP335      0.0576
     14  CG       -21.4870   -8.6260   60.8180 C.ar  335  TRP335      0.0006
     15  CD1      -20.8180   -9.6890   61.3600 C.ar  335  TRP335      0.0946
     16  CD2      -20.7570   -8.2520   59.6140 C.ar  335  TRP335      0.0152
     17  NE1      -19.7380  -10.0260   60.5600 N.ar  335  TRP335     -0.2442
     18  CE2      -19.6820   -9.1720   59.4810 C.ar  335  TRP335      0.0810
     19  CE3      -20.9390   -7.2750   58.6320 C.ar  335  TRP335      0.0012
     20  CZ2      -18.7560   -9.1110   58.4240 C.ar  335  TRP335      0.0191
     21  CZ3      -20.0070   -7.2120   57.5450 C.ar  335  TRP335      0.0001
     22  CH2      -18.9280   -8.1390   57.4630 C.ar  335  TRP335      0.0015
     23  N        -22.0640   -2.2210   60.3910 N.3   338  MET338     -0.1245
     24  CA       -21.3860   -2.1460   59.1220 C.3   338  MET338      0.1570
     25  C        -22.4060   -2.0470   58.0250 C.2   338  MET338      0.2261
     26  O        -22.1790   -1.3450   57.0310 O.2   338  MET338     -0.2867
     27  CB       -20.6170   -3.4240   58.8690 C.3   338  MET338      0.0387
     28  CG       -19.7720   -3.4010   57.5980 C.3   338  MET338      0.0595
     29  SD       -18.2080   -2.6330   58.0280 S.3   338  MET338     -0.1393
     30  CE       -18.6270   -0.9150   58.2190 C.3   338  MET338      0.0692
     31  N        -19.5070   -0.1980   65.7440 N.3   359  THR359     -0.1204
     32  CA       -18.9090   -0.3920   64.4150 C.3   359  THR359      0.1979
     33  C        -18.6000    0.9410   63.7330 C.2   359  THR359      0.2459
     34  O        -19.5250    1.6790   63.3490 O.2   359  THR359     -0.2732
     35  CB       -19.8310   -1.1990   63.4820 C.3   359  THR359      0.1783
     36  OG1      -20.2510   -2.3760   64.1660 O.3   359  THR359     -0.2211
     37  CG2      -19.1330   -1.5720   62.1860 C.3   359  THR359      0.0376
     38  N        -17.3070    1.2350   63.5380 N.am  360  PRO360     -0.2728
     39  CA       -16.9300    2.4620   62.8320 C.3   360  PRO360      0.1401
     40  C        -17.1340    2.2430   61.3330 C.2   360  PRO360      0.2269
     41  O        -17.2280    1.0920   60.9220 O.2   360  PRO360     -0.2865
     42  CB       -15.4360    2.5640   63.1270 C.3   360  PRO360      0.0296
     43  CG       -14.9960    1.1640   63.1680 C.3   360  PRO360      0.0237
     44  CD       -16.1330    0.3820   63.7960 C.3   360  PRO360      0.0939
     45  N        -15.2170    2.0840   58.0960 N.3   362  ILE362     -0.1231
     46  CA       -13.8990    2.1400   57.4500 C.3   362  ILE362      0.1678
     47  C        -14.0270    1.8290   55.9580 C.2   362  ILE362      0.2434
     48  O        -14.5910    0.7890   55.5290 O.2   362  ILE362     -0.2733
     49  CB       -12.7820    1.2900   58.1460 C.3   362  ILE362      0.0265
     50  CG1      -12.5670    1.7310   59.6220 C.3   362  ILE362      0.0019
     51  CG2      -11.4520    1.4310   57.3800 C.3   362  ILE362      0.0020
     52  CD1      -11.3940    1.0630   60.3410 C.3   362  ILE362      0.0001
     53  N        -13.5660    2.7590   55.1530 N.am  363  PRO363     -0.2718
     54  CA       -13.5850    2.5450   53.7000 C.3   363  PRO363      0.1535
     55  C        -12.8090    1.3010   53.2900 C.2   363  PRO363      0.2598
     56  O        -11.9380    0.8430   54.0140 O.2   363  PRO363     -0.2715
     57  CB       -12.8830    3.7860   53.1640 C.3   363  PRO363      0.0310
     58  CG       -12.1330    4.3440   54.3530 C.3   363  PRO363      0.0237
     59  CD       -13.0200    4.0780   55.5180 C.3   363  PRO363      0.0939
     60  N        -13.0950    0.7410   52.1370 N.am  364  ALA364     -0.1964
     61  CA       -12.2680   -0.3530   51.6850 C.3   364  ALA364      0.1728
     62  C        -10.8610    0.2050   51.3840 C.2   364  ALA364      0.2616
     63  O        -10.7090    1.3650   50.9970 O.2   364  ALA364     -0.2715
     64  CB       -12.8970   -0.9980   50.4640 C.3   364  ALA364      0.0334
     65  N         -9.8240   -0.5940   51.5940 N.am  365  ASN365     -0.1972
     66  CA        -8.4990   -0.2170   51.1130 C.3   365  ASN365      0.1688
     67  C         -8.2910   -0.7600   49.7110 C.2   365  ASN365      0.2292
     68  O         -8.1790   -1.9710   49.5620 O.2   365  ASN365     -0.2864
     69  CB        -7.4160   -0.7970   52.0000 C.3   365  ASN365      0.1181
     70  CG        -6.0220   -0.3540   51.5690 C.2   365  ASN365      0.2629
     71  OD1       -5.7470   -0.0650   50.3810 O.2   365  ASN365     -0.2716
     72  ND2       -5.1360   -0.2930   52.5280 N.am  365  ASN365     -0.0877
     73  N         -8.5360   -7.6070   51.4410 N.3   370  PRO370     -0.2116
     74  CA        -9.1810   -7.4880   52.7690 C.3   370  PRO370      0.1372
     75  C         -8.7340   -8.5300   53.8330 C.2   370  PRO370      0.2244
     76  O         -8.5540   -8.1500   54.9810 O.2   370  PRO370     -0.2868
     77  CB       -10.6800   -7.6170   52.4470 C.3   370  PRO370      0.0268
     78  CG       -10.7150   -8.3470   51.1330 C.3   370  PRO370      0.0207
     79  CD        -9.5050   -7.8780   50.3650 C.3   370  PRO370      0.0892
     80  N         -5.7060   -7.0630   55.2650 N.3   373  SER373     -0.1202
     81  CA        -6.0880   -5.9750   56.1600 C.3   373  SER373      0.2020
     82  C         -6.5260   -6.5810   57.4630 C.2   373  SER373      0.2618
     83  O         -6.1610   -6.0640   58.5170 O.2   373  SER373     -0.2717
     84  CB        -7.2230   -5.0940   55.6090 C.3   373  SER373      0.2103
     85  OG        -6.9000   -4.5560   54.3530 O.3   373  SER373     -0.2182
     86  N         -7.3090   -7.6630   57.4070 N.am  374  ILE374     -0.1979
     87  CA        -7.8410   -8.3050   58.6400 C.3   374  ILE374      0.1595
     88  C         -6.7020   -8.9180   59.4720 C.2   374  ILE374      0.2287
     89  O         -6.7100   -8.8360   60.7120 O.2   374  ILE374     -0.2864
     90  CB        -8.9240   -9.3840   58.3380 C.3   374  ILE374      0.0276
     91  CG1      -10.2430   -8.7290   57.9870 C.3   374  ILE374      0.0022
     92  CG2       -9.1380  -10.2780   59.5410 C.3   374  ILE374      0.0022
     93  CD1      -11.1840   -9.6080   57.1710 C.3   374  ILE374      0.0001
     94  N         -8.7760   -8.9610   65.2520 N.3   380  PHE380     -0.1241
     95  CA        -9.7070   -9.5170   64.3110 C.3   380  PHE380      0.1605
     96  C         -9.3590  -10.9750   64.0210 C.2   380  PHE380      0.2264
     97  O         -9.9310  -11.5690   63.1050 O.2   380  PHE380     -0.2867
     98  CB        -9.7330   -8.7460   62.9910 C.3   380  PHE380      0.0534
     99  CG       -10.3760   -7.3740   63.0610 C.ar  380  PHE380     -0.0203
    100  CD1      -11.3860   -7.0790   63.9810 C.ar  380  PHE380     -0.0042
    101  CD2       -9.9860   -6.3740   62.1440 C.ar  380  PHE380     -0.0042
    102  CE1      -11.9710   -5.8070   64.0070 C.ar  380  PHE380     -0.0003
    103  CE2      -10.5630   -5.1080   62.1610 C.ar  380  PHE380     -0.0003
    104  CZ       -11.5550   -4.8210   63.0990 C.ar  380  PHE380     -0.0000
    105  N        -10.2670  -13.5730   65.4270 N.3   382  TYR382     -0.1227
    106  CA       -11.5230  -14.3140   65.4760 C.3   382  TYR382      0.1736
    107  C        -12.2430  -14.3370   64.0920 C.2   382  TYR382      0.2595
    108  O        -12.8600  -15.3290   63.7080 O.2   382  TYR382     -0.2718
    109  CB       -12.4290  -13.8010   66.6010 C.3   382  TYR382      0.0548
    110  CG       -13.2340  -12.5790   66.2090 C.ar  382  TYR382     -0.0200
    111  CD1      -12.6820  -11.2980   66.2870 C.ar  382  TYR382     -0.0009
    112  CD2      -14.5330  -12.7040   65.7370 C.ar  382  TYR382     -0.0009
    113  CE1      -13.4010  -10.1840   65.9220 C.ar  382  TYR382      0.0417
    114  CE2      -15.2670  -11.5900   65.3590 C.ar  382  TYR382      0.0417
    115  CZ       -14.6990  -10.3270   65.4530 C.ar  382  TYR382      0.1957
    116  OH       -15.4370   -9.2080   65.0920 O.3   382  TYR382     -0.2866
    117  N        -12.1060  -13.2730   63.3190 N.am  383  GLN383     -0.1979
    118  CA       -12.6910  -13.2810   61.9870 C.3   383  GLN383      0.1601
    119  C        -12.0290  -14.3220   61.0620 C.2   383  GLN383      0.2287
    120  O        -12.6790  -14.8420   60.1330 O.2   383  GLN383     -0.2864
    121  CB       -12.6980  -11.8710   61.3880 C.3   383  GLN383      0.0394
    122  CG       -13.2970  -10.8040   62.3140 C.3   383  GLN383      0.0908
    123  CD       -13.7750   -9.5860   61.5590 C.2   383  GLN383      0.2608
    124  OE1      -14.3240   -8.6350   62.1350 O.2   383  GLN383     -0.2717
    125  NE2      -13.5570   -9.5910   60.2690 N.am  383  GLN383     -0.0878
    126  N        -19.3590  -13.2940   57.6620 N.3   465  TYR465     -0.1241
    127  CA       -17.9300  -13.0130   57.7520 C.3   465  TYR465      0.1605
    128  C        -17.1810  -13.6020   56.5890 C.2   465  TYR465      0.2264
    129  O        -15.9770  -13.4280   56.5070 O.2   465  TYR465     -0.2867
    130  CB       -17.3380  -13.6220   59.0090 C.3   465  TYR465      0.0534
    131  CG       -17.7080  -12.9490   60.3260 C.ar  465  TYR465     -0.0201
    132  CD1      -16.9390  -11.9170   60.8230 C.ar  465  TYR465     -0.0009
    133  CD2      -18.8040  -13.3780   61.0690 C.ar  465  TYR465     -0.0009
    134  CE1      -17.2220  -11.3190   62.0180 C.ar  465  TYR465      0.0417
    135  CE2      -19.1190  -12.7990   62.2870 C.ar  465  TYR465      0.0417
    136  CZ       -18.3160  -11.7730   62.7470 C.ar  465  TYR465      0.1957
    137  OH       -18.5900  -11.1600   63.9390 O.3   465  TYR465     -0.2866
    138  N        -15.4850  -11.3370   52.6040 N.3   468  MET468     -0.1245
    139  CA       -14.5140  -10.2550   52.7180 C.3   468  MET468      0.1570
    140  C        -14.1750   -9.6750   51.3380 C.2   468  MET468      0.2261
    141  O        -14.3240   -8.4700   51.1060 O.2   468  MET468     -0.2867
    142  CB       -13.2810  -10.7200   53.5260 C.3   468  MET468      0.0387
    143  CG       -13.5990  -10.9160   55.0210 C.3   468  MET468      0.0595
    144  SD       -14.7770   -9.6560   55.7110 S.3   468  MET468     -0.1393
    145  CE       -15.1590  -10.1790   57.3900 C.3   468  MET468      0.0692
    146  N        -15.3200   -6.2130   49.6820 N.3   472  TRP472     -0.1241
    147  CA       -14.2300   -5.3430   49.2730 C.3   472  TRP472      0.1605
    148  C        -14.4830   -4.7790   47.8480 C.2   472  TRP472      0.2264
    149  O        -14.5360   -3.5330   47.6590 O.2   472  TRP472     -0.2867
    150  CB       -12.8790   -6.0640   49.3820 C.3   472  TRP472      0.0550
    151  CG       -11.6860   -5.2630   48.9580 C.ar  472  TRP472      0.0003
    152  CD1      -11.0830   -4.2400   49.6580 C.ar  472  TRP472      0.0946
    153  CD2      -10.9280   -5.4240   47.7620 C.ar  472  TRP472      0.0152
    154  NE1      -10.0120   -3.7430   48.9590 N.ar  472  TRP472     -0.2442
    155  CE2       -9.8910   -4.4450   47.7870 C.ar  472  TRP472      0.0810
    156  CE3      -11.0160   -6.2960   46.6620 C.ar  472  TRP472      0.0012
    157  CZ2       -8.9440   -4.3150   46.7470 C.ar  472  TRP472      0.0191
    158  CZ3      -10.0760   -6.1690   45.6180 C.ar  472  TRP472      0.0001
    159  CH2       -9.0550   -5.1790   45.6760 C.ar  472  TRP472      0.0015
    160  N        -14.0030   -3.5550   68.6760 N.3   498  LEU498     -0.1245
    161  CA       -14.3840   -2.3370   68.0080 C.3   498  LEU498      0.1561
    162  C        -14.0180   -1.1860   68.9440 C.2   498  LEU498      0.2260
    163  O        -14.8910   -0.5970   69.5750 O.2   498  LEU498     -0.2867
    164  CB       -15.8780   -2.3890   67.6660 C.3   498  LEU498      0.0270
    165  CG       -16.2330   -3.6630   66.8630 C.3   498  LEU498      0.0019
    166  CD1      -17.7270   -3.9660   66.7420 C.3   498  LEU498      0.0001
    167  CD2      -15.5720   -3.6380   65.4840 C.3   498  LEU498      0.0001
    168  N        -10.6540    3.0960   66.6350 N.3   502  MET502     -0.1245
    169  CA       -10.9140    2.5750   65.2810 C.3   502  MET502      0.1570
    170  C        -11.8050    3.5340   64.4750 C.2   502  MET502      0.2261
    171  O        -11.7300    3.5420   63.2760 O.2   502  MET502     -0.2867
    172  CB       -11.5810    1.2090   65.3460 C.3   502  MET502      0.0387
    173  CG       -10.6870   -0.0010   65.1420 C.3   502  MET502      0.0595
    174  SD       -11.6740   -1.4870   64.7800 S.3   502  MET502     -0.1393
    175  CE       -12.1640   -1.2240   63.1090 C.3   502  MET502      0.0692
    176  N        -18.6400   -4.7260   74.5630 N.3   523  HIS523     -0.1241
    177  CA       -19.0680   -4.9520   73.1990 C.3   523  HIS523      0.1621
    178  C        -20.5870   -5.0540   73.0370 C.2   523  HIS523      0.2264
    179  O        -21.1060   -4.7120   71.9850 O.2   523  HIS523     -0.2867
    180  CB       -18.4490   -6.2220   72.6120 C.3   523  HIS523      0.0745
    181  CG       -19.0080   -6.5530   71.2660 C.ar  523  HIS523      0.0817
    182  ND1      -18.5730   -5.9320   70.1070 N.ar  523  HIS523     -0.2268
    183  CD2      -20.0370   -7.3670   70.9020 C.ar  523  HIS523      0.1154
    184  CE1      -19.2820   -6.3940   69.0910 C.ar  523  HIS523      0.1986
    185  NE2      -20.1810   -7.2520   69.5490 N.ar  523  HIS523     -0.2212
@<TRIPOS>BOND
     1   158   159   ar
     2   158   156   ar
     3   159   157   ar
     4   156   153   ar
     5   157   155   ar
     6   149   148    2
     7   153   155   ar
     8   153   151   ar
     9   155   154   ar
    10   148   147    1
    11   151   150    1
    12   151   152   ar
    13   154   152   ar
    14   147   150    1
    15   147   146    1
    16    68    67    2
    17    67    66    1
    18    79    78    1
    19    79    73    1
    20    71    70    2
    21    64    61    1
    22    63    62    2
    23   141   140    2
    24    66    65    1
    25    66    69    1
    26    78    77    1
    27   140   139    1
    28    62    65   am
    29    62    61    1
    30    73    74    1
    31    70    69    1
    32    70    72   am
    33    61    60    1
    34    60    55   am
    35    77    74    1
    36   138   139    1
    37   139   142    1
    38    74    75    1
    39    57    54    1
    40    57    58    1
    41    55    54    1
    42    55    56    2
    43   142   143    1
    44    54    53    1
    45    75    76    2
    46    85    84    1
    47    58    59    1
    48   143   144    1
    49    53    59    1
    50    53    47   am
    51    80    81    1
    52    48    47    2
    53    84    81    1
    54   144   145    1
    55    47    46    1
    56    81    82    1
    57   129   128    2
    58   128   127    1
    59    26    25    2
    60    93    91    1
    61    51    49    1
    62    86    82   am
    63    86    87    1
    64    46    45    1
    65    46    49    1
    66    22    21   ar
    67    22    20   ar
    68    82    83    2
    69    21    19   ar
    70    28    29    1
    71    28    27    1
    72   126   127    1
    73   127   130    1
    74    91    90    1
    75    25    24    1
    76    29    30    1
    77    49    50    1
    78    90    87    1
    79    90    92    1
    80    20    18   ar
    81    19    16   ar
    82    87    88    1
    83    27    24    1
    84   130   131    1
    85    24    23    1
    86    88    89    2
    87    18    16   ar
    88    18    17   ar
    89    16    14   ar
    90    50    52    1
    91    12    11    2
    92   120   119    2
    93   125   123   am
    94   131   132   ar
    95   131   133   ar
    96    17    15   ar
    97    14    15   ar
    98    14    13    1
    99   132   134   ar
   100    41    40    2
   101   119   118    1
   102   133   135   ar
   103    11    10    1
   104    40    39    1
   105    13    10    1
   106   121   118    1
   107   121   122    1
   108   123   124    2
   109   123   122    1
   110    10     9    1
   111   118   117    1
   112   134   136   ar
   113   101   103   ar
   114   101    99   ar
   115   103   104   ar
   116    37    35    1
   117   135   136   ar
   118   136   137    1
   119    39    42    1
   120    39    38    1
   121     4     3    2
   122    98    99    1
   123    98    95    1
   124    99   100   ar
   125   104   102   ar
   126    97    96    2
   127   175   174    1
   128    42    43    1
   129     9     3   am
   130    43    44    1
   131   171   170    2
   132   117   107   am
   133    34    33    2
   134    35    36    1
   135    35    32    1
   136    38    33   am
   137    38    44    1
   138     3     2    1
   139   108   107    2
   140    33    32    1
   141   100   102   ar
   142    96    95    1
   143   107   106    1
   144    95    94    1
   145    32    31    1
   146   170   169    1
   147   174   173    1
   148     8     6   ar
   149   116   115    1
   150   173   172    1
   151     2     1    1
   152     2     5    1
   153   169   172    1
   154   169   168    1
   155   114   115   ar
   156   114   112   ar
   157   105   106    1
   158   115   113   ar
   159   106   109    1
   160   167   165    1
   161     6     5    1
   162     6     7   ar
   163   112   110   ar
   164   113   111   ar
   165   110   111   ar
   166   110   109    1
   167   166   165    1
   168   165   164    1
   169   164   161    1
   170   161   160    1
   171   161   162    1
   172   162   163    2
   173   184   185   ar
   174   184   182   ar
   175   185   183   ar
   176   182   181   ar
   177   183   181   ar
   178   181   180    1
   179   179   178    2
   180   180   177    1
   181   178   177    1
   182   177   176    1
