@<TRIPOS>MOLECULE
tmp/4y2uA00.pdb
 181 178 0 0 0
SMALL
GASTEIGER

@<TRIPOS>ATOM
      1  N        -23.5340   -9.8330   65.2350 N.3   266  PHE266     -0.1228
      2  CA       -23.2450  -11.2620   65.2820 C.3   266  PHE266      0.1721
      3  C        -22.8850  -11.6970   66.7080 C.2   266  PHE266      0.2437
      4  O        -22.1710  -10.9820   67.3980 O.2   266  PHE266     -0.2733
      5  CB       -22.0920  -11.5850   64.3460 C.3   266  PHE266      0.0547
      6  CG       -21.6160  -12.9770   64.4640 C.ar  266  PHE266     -0.0202
      7  CD1      -20.7650  -13.3540   65.5220 C.ar  266  PHE266     -0.0042
      8  CD2      -22.0080  -13.9420   63.5310 C.ar  266  PHE266     -0.0042
      9  CE1      -20.3320  -14.6820   65.6580 C.ar  266  PHE266     -0.0003
     10  CE2      -21.5870  -15.2640   63.6600 C.ar  266  PHE266     -0.0003
     11  CZ       -20.7540  -15.6390   64.7260 C.ar  266  PHE266     -0.0000
     12  N        -23.4150  -12.8420   67.1800 N.am  267  PRO267     -0.2729
     13  CA       -24.4930  -13.6270   66.6270 C.3   267  PRO267      0.1401
     14  C        -25.6960  -13.3510   67.5150 C.2   267  PRO267      0.2269
     15  O        -25.8030  -13.9220   68.6020 O.2   267  PRO267     -0.2865
     16  CB       -23.9960  -15.0510   66.8310 C.3   267  PRO267      0.0296
     17  CG       -23.0850  -14.9780   68.0530 C.3   267  PRO267      0.0237
     18  CD       -22.8340  -13.5170   68.3530 C.3   267  PRO267      0.0939
     19  N        -22.4920   -3.5870   65.3790 N.3   334  ASP334     -0.1225
     20  CA       -21.5900   -4.6690   64.9810 C.3   334  ASP334      0.1805
     21  C        -21.7530   -4.9340   63.4780 C.2   334  ASP334      0.2597
     22  O        -21.6240   -4.0180   62.6620 O.2   334  ASP334     -0.2718
     23  CB       -21.9330   -5.8940   65.8140 C.3   334  ASP334      0.1424
     24  CG       -20.9570   -7.0180   65.6260 C.2   334  ASP334      0.3668
     25  OD1      -19.8360   -6.9090   66.1720 O.co2 334  ASP334     -0.2456
     26  OD2      -21.3210   -8.0140   64.9390 O.co2 334  ASP334     -0.2456
     27  N        -22.0630   -6.1660   63.0970 N.am  335  TRP335     -0.1976
     28  CA       -22.3010   -6.4400   61.6720 C.3   335  TRP335      0.1640
     29  C        -23.4200   -5.5710   61.0800 C.2   335  TRP335      0.2290
     30  O        -23.2940   -5.1260   59.9460 O.2   335  TRP335     -0.2864
     31  CB       -22.5670   -7.9310   61.3870 C.3   335  TRP335      0.0576
     32  CG       -21.4440   -8.6310   60.7370 C.ar  335  TRP335      0.0006
     33  CD1      -20.8430   -9.7570   61.1780 C.ar  335  TRP335      0.0946
     34  CD2      -20.7490   -8.2450   59.5370 C.ar  335  TRP335      0.0152
     35  NE1      -19.8070  -10.1180   60.3330 N.ar  335  TRP335     -0.2442
     36  CE2      -19.7200   -9.1970   59.3250 C.ar  335  TRP335      0.0810
     37  CE3      -20.8790   -7.1820   58.6300 C.ar  335  TRP335      0.0012
     38  CZ2      -18.8310   -9.1260   58.2330 C.ar  335  TRP335      0.0191
     39  CZ3      -19.9970   -7.1160   57.5410 C.ar  335  TRP335      0.0001
     40  CH2      -18.9920   -8.0840   57.3520 C.ar  335  TRP335      0.0015
     41  N        -22.0860   -2.2900   60.1780 N.3   338  MET338     -0.1245
     42  CA       -21.4330   -2.2370   58.8700 C.3   338  MET338      0.1570
     43  C        -22.4540   -2.0650   57.7410 C.2   338  MET338      0.2261
     44  O        -22.2450   -1.2900   56.7890 O.2   338  MET338     -0.2867
     45  CB       -20.6760   -3.5300   58.6270 C.3   338  MET338      0.0387
     46  CG       -19.6000   -3.4300   57.5660 C.3   338  MET338      0.0595
     47  SD       -18.1090   -2.6770   58.2250 S.3   338  MET338     -0.1393
     48  CE       -18.4830   -0.9300   57.9980 C.3   338  MET338      0.0692
     49  N        -19.3940   -0.0960   65.5690 N.3   359  THR359     -0.1218
     50  CA       -18.8260   -0.3110   64.2450 C.3   359  THR359      0.1862
     51  C        -18.5010    0.9950   63.5280 C.2   359  THR359      0.2287
     52  O        -19.4110    1.6820   63.0340 O.2   359  THR359     -0.2866
     53  CB       -19.7890   -1.1410   63.3820 C.3   359  THR359      0.1770
     54  OG1      -20.3240   -2.2000   64.1870 O.3   359  THR359     -0.2211
     55  CG2      -19.1160   -1.6980   62.1090 C.3   359  THR359      0.0375
     56  N         -8.3920   -9.1960   65.4450 N.3   380  PHE380     -0.1241
     57  CA        -9.2790   -9.7210   64.4150 C.3   380  PHE380      0.1605
     58  C         -8.9820  -11.1720   64.0210 C.2   380  PHE380      0.2264
     59  O         -9.5700  -11.6700   63.0570 O.2   380  PHE380     -0.2867
     60  CB        -9.2190   -8.8500   63.1480 C.3   380  PHE380      0.0534
     61  CG        -9.8920   -7.5000   63.2670 C.ar  380  PHE380     -0.0203
     62  CD1      -11.0580   -7.3250   64.0190 C.ar  380  PHE380     -0.0042
     63  CD2       -9.3790   -6.4050   62.5660 C.ar  380  PHE380     -0.0042
     64  CE1      -11.6640   -6.0700   64.1060 C.ar  380  PHE380     -0.0003
     65  CE2       -9.9810   -5.1600   62.6420 C.ar  380  PHE380     -0.0003
     66  CZ       -11.1240   -4.9860   63.4170 C.ar  380  PHE380     -0.0000
     67  N         -9.8850  -14.0270   65.1990 N.3   382  TYR382     -0.1227
     68  CA       -11.1220  -14.8070   65.1430 C.3   382  TYR382      0.1736
     69  C        -11.8680  -14.7440   63.7740 C.2   382  TYR382      0.2595
     70  O        -12.5720  -15.6920   63.3960 O.2   382  TYR382     -0.2718
     71  CB       -12.0710  -14.3560   66.2440 C.3   382  TYR382      0.0548
     72  CG       -12.6840  -13.0380   65.8860 C.ar  382  TYR382     -0.0200
     73  CD1      -13.8560  -12.9790   65.1270 C.ar  382  TYR382     -0.0009
     74  CD2      -12.0640  -11.8480   66.2460 C.ar  382  TYR382     -0.0009
     75  CE1      -14.4020  -11.7690   64.7630 C.ar  382  TYR382      0.0417
     76  CE2      -12.6110  -10.6360   65.8940 C.ar  382  TYR382      0.0417
     77  CZ       -13.7740  -10.6090   65.1570 C.ar  382  TYR382      0.1957
     78  OH       -14.3050   -9.4080   64.8080 O.3   382  TYR382     -0.2866
     79  N        -11.7410  -13.6370   63.0440 N.am  383  GLN383     -0.1979
     80  CA       -12.3560  -13.5720   61.7140 C.3   383  GLN383      0.1601
     81  C        -11.7530  -14.5850   60.7540 C.2   383  GLN383      0.2287
     82  O        -12.4130  -15.0280   59.8190 O.2   383  GLN383     -0.2864
     83  CB       -12.2480  -12.1900   61.1110 C.3   383  GLN383      0.0394
     84  CG       -12.8120  -11.0700   61.9660 C.3   383  GLN383      0.0908
     85  CD       -13.2680   -9.8990   61.1160 C.2   383  GLN383      0.2608
     86  OE1      -13.6080   -8.8440   61.6410 O.2   383  GLN383     -0.2717
     87  NE2      -13.3060  -10.0900   59.7900 N.am  383  GLN383     -0.0878
     88  N        -13.1780  -17.9830   61.3280 N.3   386  PHE386     -0.1241
     89  CA       -14.5370  -18.1180   60.8250 C.3   386  PHE386      0.1605
     90  C        -14.6160  -18.4410   59.3300 C.2   386  PHE386      0.2264
     91  O        -15.7220  -18.6390   58.7920 O.2   386  PHE386     -0.2867
     92  CB       -15.3460  -16.8540   61.0960 C.3   386  PHE386      0.0534
     93  CG       -15.7210  -16.6320   62.5440 C.ar  386  PHE386     -0.0203
     94  CD1      -15.5750  -17.6190   63.5080 C.ar  386  PHE386     -0.0042
     95  CD2      -16.2760  -15.4020   62.9400 C.ar  386  PHE386     -0.0042
     96  CE1      -15.9410  -17.3750   64.8440 C.ar  386  PHE386     -0.0003
     97  CE2      -16.6570  -15.1630   64.2670 C.ar  386  PHE386     -0.0003
     98  CZ       -16.4890  -16.1510   65.2200 C.ar  386  PHE386     -0.0000
     99  N        -19.5580  -23.5490   67.8900 N.3   396  LEU396     -0.1245
    100  CA       -20.6120  -22.6820   68.4030 C.3   396  LEU396      0.1561
    101  C        -21.9510  -23.3700   68.6250 C.2   396  LEU396      0.2260
    102  O        -22.6750  -23.0060   69.5400 O.2   396  LEU396     -0.2867
    103  CB       -20.7760  -21.4860   67.5000 C.3   396  LEU396      0.0270
    104  CG       -19.5910  -20.5330   67.5850 C.3   396  LEU396      0.0019
    105  CD1      -19.4280  -19.7860   66.2710 C.3   396  LEU396      0.0001
    106  CD2      -19.8260  -19.5800   68.7440 C.3   396  LEU396      0.0001
    107  N        -20.2360  -15.4800   75.4360 N.3   407  LEU407     -0.1245
    108  CA       -20.0950  -14.3150   74.5790 C.3   407  LEU407      0.1561
    109  C        -20.6660  -13.0820   75.2560 C.2   407  LEU407      0.2260
    110  O        -20.0170  -12.0460   75.2940 O.2   407  LEU407     -0.2867
    111  CB       -20.8140  -14.5600   73.2500 C.3   407  LEU407      0.0270
    112  CG       -20.1400  -15.5450   72.3100 C.3   407  LEU407      0.0019
    113  CD1      -21.0450  -15.7150   71.1320 C.3   407  LEU407      0.0001
    114  CD2      -18.7640  -15.0450   71.8790 C.3   407  LEU407      0.0001
    115  N         -9.7400  -12.9470   72.6230 N.3   418  MET418     -0.1245
    116  CA        -9.7630  -13.0480   71.1620 C.3   418  MET418      0.1570
    117  C         -8.3630  -13.3490   70.6160 C.2   418  MET418      0.2261
    118  O         -8.1250  -13.3460   69.3960 O.2   418  MET418     -0.2867
    119  CB       -10.3160  -11.7550   70.5520 C.3   418  MET418      0.0387
    120  CG       -11.7820  -11.4790   70.8540 C.3   418  MET418      0.0595
    121  SD       -12.8880  -12.8470   70.4380 S.3   418  MET418     -0.1393
    122  CE       -13.0370  -13.6550   72.0290 C.3   418  MET418      0.0692
    123  N        -12.7460  -20.7880   70.0340 N.3   427  LEU427     -0.1245
    124  CA       -13.0910  -19.5500   70.7030 C.3   427  LEU427      0.1561
    125  C        -13.2350  -19.8200   72.1970 C.2   427  LEU427      0.2260
    126  O        -13.0330  -18.9250   73.0390 O.2   427  LEU427     -0.2867
    127  CB       -14.4040  -19.0420   70.1060 C.3   427  LEU427      0.0270
    128  CG       -14.6590  -17.5510   69.9610 C.3   427  LEU427      0.0019
    129  CD1      -13.5350  -16.8650   69.2100 C.3   427  LEU427      0.0001
    130  CD2      -15.9740  -17.3640   69.2240 C.3   427  LEU427      0.0001
    131  N        -19.2950  -13.3200   57.4290 N.3   465  TYR465     -0.1241
    132  CA       -17.8510  -13.1540   57.5070 C.3   465  TYR465      0.1605
    133  C        -17.1080  -13.6960   56.3190 C.2   465  TYR465      0.2264
    134  O        -15.9010  -13.5530   56.2510 O.2   465  TYR465     -0.2867
    135  CB       -17.3360  -13.8570   58.7210 C.3   465  TYR465      0.0534
    136  CG       -17.5710  -13.1230   60.0310 C.ar  465  TYR465     -0.0201
    137  CD1      -16.7200  -12.0870   60.4470 C.ar  465  TYR465     -0.0009
    138  CD2      -18.6240  -13.5020   60.8890 C.ar  465  TYR465     -0.0009
    139  CE1      -16.9140  -11.4470   61.6600 C.ar  465  TYR465      0.0417
    140  CE2      -18.8160  -12.8760   62.1030 C.ar  465  TYR465      0.0417
    141  CZ       -17.9570  -11.8550   62.4710 C.ar  465  TYR465      0.1957
    142  OH       -18.1690  -11.2410   63.6720 O.3   465  TYR465     -0.2866
    143  N        -12.4730   -5.1630   70.8630 N.3   497  VAL497     -0.1231
    144  CA       -12.4460   -5.4930   69.4250 C.3   497  VAL497      0.1692
    145  C        -12.7640   -4.2430   68.5640 C.2   497  VAL497      0.2591
    146  O        -11.9080   -3.7460   67.8100 O.2   497  VAL497     -0.2718
    147  CB       -13.4540   -6.6210   69.0920 C.3   497  VAL497      0.0266
    148  CG1      -13.2330   -7.1580   67.6840 C.3   497  VAL497      0.0020
    149  CG2      -13.3760   -7.7150   70.1350 C.3   497  VAL497      0.0020
    150  N        -13.9900   -3.7320   68.6720 N.am  498  LEU498     -0.1980
    151  CA       -14.3230   -2.5240   67.9370 C.3   498  LEU498      0.1596
    152  C        -13.9930   -1.3530   68.8290 C.2   498  LEU498      0.2287
    153  O        -14.8830   -0.8000   69.4770 O.2   498  LEU498     -0.2864
    154  CB       -15.7920   -2.5080   67.5130 C.3   498  LEU498      0.0297
    155  CG       -16.2770   -3.7210   66.7140 C.3   498  LEU498      0.0022
    156  CD1      -17.8040   -3.7390   66.5590 C.3   498  LEU498      0.0001
    157  CD2      -15.5680   -3.7800   65.3580 C.3   498  LEU498      0.0001
    158  N        -18.6730   -4.7360   74.5270 N.3   523  HIS523     -0.1226
    159  CA       -19.1440   -4.9130   73.1720 C.3   523  HIS523      0.1752
    160  C        -20.6600   -4.9810   73.0310 C.2   523  HIS523      0.2596
    161  O        -21.2070   -4.6130   71.9800 O.2   523  HIS523     -0.2718
    162  CB       -18.5490   -6.1680   72.5710 C.3   523  HIS523      0.0759
    163  CG       -19.0740   -6.4730   71.2020 C.ar  523  HIS523      0.0818
    164  ND1      -18.5720   -5.8750   70.0620 N.ar  523  HIS523     -0.2268
    165  CD2      -20.0620   -7.3060   70.7910 C.ar  523  HIS523      0.1154
    166  CE1      -19.2180   -6.3450   69.0100 C.ar  523  HIS523      0.1986
    167  NE2      -20.1300   -7.2100   69.4240 N.ar  523  HIS523     -0.2212
    168  N        -21.3390   -5.4660   74.0700 N.am  524  TRP524     -0.1976
    169  CA       -22.7610   -5.7640   73.9460 C.3   524  TRP524      0.1640
    170  C        -23.5390   -4.5550   74.4180 C.2   524  TRP524      0.2290
    171  O        -24.3130   -4.6320   75.3730 O.2   524  TRP524     -0.2864
    172  CB       -23.0940   -7.0200   74.7300 C.3   524  TRP524      0.0576
    173  CG       -22.0880   -8.0850   74.4300 C.ar  524  TRP524      0.0006
    174  CD1      -20.9930   -8.4170   75.1730 C.ar  524  TRP524      0.0946
    175  CD2      -22.0560   -8.9250   73.2600 C.ar  524  TRP524      0.0152
    176  NE1      -20.2910   -9.4220   74.5540 N.ar  524  TRP524     -0.2442
    177  CE2      -20.9160   -9.7530   73.3780 C.ar  524  TRP524      0.0810
    178  CE3      -22.8890   -9.0620   72.1290 C.ar  524  TRP524      0.0012
    179  CZ2      -20.5780  -10.7010   72.4050 C.ar  524  TRP524      0.0191
    180  CZ3      -22.5610  -10.0020   71.1640 C.ar  524  TRP524      0.0001
    181  CH2      -21.4060  -10.8100   71.3030 C.ar  524  TRP524      0.0015
@<TRIPOS>BOND
     1   134   133    2
     2   133   132    1
     3    44    43    2
     4    40    39   ar
     5    40    38   ar
     6   131   132    1
     7   132   135    1
     8    39    37   ar
     9    46    47    1
    10    46    45    1
    11    43    42    1
    12    48    47    1
    13    38    36   ar
    14    45    42    1
    15    37    34   ar
    16   135   136    1
    17    91    90    2
    18    42    41    1
    19    36    34   ar
    20    36    35   ar
    21    90    89    1
    22    34    32   ar
    23    87    85   am
    24    82    81    2
    25    30    29    2
    26   136   137   ar
    27   136   138   ar
    28    35    33   ar
    29   137   139   ar
    30    32    33   ar
    31    32    31    1
    32    81    80    1
    33    89    92    1
    34    89    88    1
    35   138   140   ar
    36    29    28    1
    37    92    93    1
    38    83    80    1
    39    83    84    1
    40    85    86    2
    41    85    84    1
    42    31    28    1
    43   139   141   ar
    44    28    27    1
    45    80    79    1
    46   140   141   ar
    47    55    53    1
    48   141   142    1
    49    93    95   ar
    50    93    94   ar
    51    63    65   ar
    52    63    61   ar
    53    65    66   ar
    54    22    21    2
    55    95    97   ar
    56    52    51    2
    57    79    69   am
    58    59    58    2
    59    27    21   am
    60    60    61    1
    61    60    57    1
    62    61    62   ar
    63    53    54    1
    64    53    50    1
    65    70    69    2
    66    66    64   ar
    67    21    20    1
    68    94    96   ar
    69    51    50    1
    70     8    10   ar
    71     8     6   ar
    72    10    11   ar
    73    69    68    1
    74    62    64   ar
    75    58    57    1
    76    50    49    1
    77    97    98   ar
    78     5     6    1
    79     5     2    1
    80    57    56    1
    81     6     7   ar
    82    11     9   ar
    83    75    73   ar
    84    75    77   ar
    85    78    77    1
    86    96    98   ar
    87    26    24   ar
    88    20    19    1
    89    20    23    1
    90    73    72   ar
    91    68    67    1
    92    68    71    1
    93    77    76   ar
    94     1     2    1
    95     2     3    1
    96   157   155    1
    97     7     9   ar
    98    24    23    1
    99    24    25   ar
   100    72    71    1
   101    72    74   ar
   102    76    74   ar
   103   105   104    1
   104   156   155    1
   105    13    16    1
   106    13    12    1
   107    13    14    1
   108     3    12   am
   109     3     4    2
   110   155   154    1
   111    16    17    1
   112    12    18    1
   113   103   104    1
   114   103   100    1
   115   154   151    1
   116    14    15    2
   117   104   106    1
   118   148   147    1
   119   146   145    2
   120    99   100    1
   121   151   150    1
   122   151   152    1
   123    17    18    1
   124   100   101    1
   125   145   150   am
   126   145   144    1
   127   101   102    2
   128   152   153    2
   129   166   167   ar
   130   166   164   ar
   131   147   144    1
   132   147   149    1
   133   129   128    1
   134   130   128    1
   135   118   117    2
   136   167   165   ar
   137   144   143    1
   138   128   127    1
   139   123   124    1
   140   164   163   ar
   141   127   124    1
   142   121   120    1
   143   121   122    1
   144   119   120    1
   145   119   116    1
   146   117   116    1
   147   124   125    1
   148   165   163   ar
   149   113   112    1
   150   116   115    1
   151   180   181   ar
   152   180   178   ar
   153   163   162    1
   154   181   179   ar
   155   114   112    1
   156   161   160    2
   157   178   175   ar
   158   125   126    2
   159   112   111    1
   160   179   177   ar
   161   162   159    1
   162   160   159    1
   163   160   168   am
   164   159   158    1
   165   111   108    1
   166   175   177   ar
   167   175   173   ar
   168   177   176   ar
   169   169   168    1
   170   169   170    1
   171   169   172    1
   172   170   171    2
   173   173   172    1
   174   173   174   ar
   175   176   174   ar
   176   108   109    1
   177   108   107    1
   178   109   110    2
