@<TRIPOS>MOLECULE
tmp/4y2vA00.pdb
 152 148 0 0 0
SMALL
GASTEIGER

@<TRIPOS>ATOM
      1  N        -23.3600   -9.9800   65.3200 N.3   266  PHE266     -0.1241
      2  CA       -23.1750  -11.3850   65.4550 C.3   266  PHE266      0.1605
      3  C        -22.8470  -11.7680   66.9140 C.2   266  PHE266      0.2264
      4  O        -22.1190  -11.0500   67.5980 O.2   266  PHE266     -0.2867
      5  CB       -22.0590  -11.8160   64.5250 C.3   266  PHE266      0.0534
      6  CG       -21.5750  -13.2120   64.7700 C.ar  266  PHE266     -0.0203
      7  CD1      -20.6880  -13.4970   65.8260 C.ar  266  PHE266     -0.0042
      8  CD2      -21.9840  -14.2540   63.9450 C.ar  266  PHE266     -0.0042
      9  CE1      -20.2230  -14.8130   66.0490 C.ar  266  PHE266     -0.0003
     10  CE2      -21.5220  -15.5480   64.1610 C.ar  266  PHE266     -0.0003
     11  CZ       -20.6470  -15.8290   65.2190 C.ar  266  PHE266     -0.0000
     12  N        -22.3480   -3.7570   65.6080 N.3   334  ASP334     -0.1239
     13  CA       -21.4820   -4.8470   65.1480 C.3   334  ASP334      0.1674
     14  C        -21.7480   -5.0700   63.6270 C.2   334  ASP334      0.2266
     15  O        -21.6810   -4.0980   62.8360 O.2   334  ASP334     -0.2867
     16  CB       -21.6660   -6.0900   66.0670 C.3   334  ASP334      0.1410
     17  CG       -20.7340   -7.2580   65.6980 C.2   334  ASP334      0.3668
     18  OD1      -19.5530   -7.2800   66.1790 O.co2 334  ASP334     -0.2456
     19  OD2      -21.1740   -8.1450   64.9180 O.co2 334  ASP334     -0.2456
     20  N        -10.0830  -13.7870   65.6400 N.3   382  TYR382     -0.1241
     21  CA       -11.3170  -14.5550   65.6640 C.3   382  TYR382      0.1605
     22  C        -12.0240  -14.5640   64.2620 C.2   382  TYR382      0.2264
     23  O        -12.6880  -15.5320   63.8910 O.2   382  TYR382     -0.2867
     24  CB       -12.2270  -14.0380   66.7730 C.3   382  TYR382      0.0534
     25  CG       -13.0630  -12.8450   66.3690 C.ar  382  TYR382     -0.0201
     26  CD1      -14.2960  -13.0220   65.7330 C.ar  382  TYR382     -0.0009
     27  CD2      -12.6120  -11.5390   66.6080 C.ar  382  TYR382     -0.0009
     28  CE1      -15.0590  -11.9310   65.3590 C.ar  382  TYR382      0.0417
     29  CE2      -13.3620  -10.4420   66.2450 C.ar  382  TYR382      0.0417
     30  CZ       -14.5840  -10.6450   65.6160 C.ar  382  TYR382      0.1957
     31  OH       -15.3580   -9.5670   65.2620 O.3   382  TYR382     -0.2866
     32  N        -20.1030  -15.6460   75.5780 N.3   407  LEU407     -0.1245
     33  CA       -20.0660  -14.4260   74.7640 C.3   407  LEU407      0.1561
     34  C        -20.6800  -13.2190   75.4700 C.2   407  LEU407      0.2260
     35  O        -20.0310  -12.1830   75.5700 O.2   407  LEU407     -0.2867
     36  CB       -20.8180  -14.6850   73.4550 C.3   407  LEU407      0.0270
     37  CG       -20.1460  -15.6780   72.5010 C.3   407  LEU407      0.0019
     38  CD1      -21.0700  -15.8210   71.3290 C.3   407  LEU407      0.0001
     39  CD2      -18.7590  -15.2000   72.0790 C.3   407  LEU407      0.0001
     40  N        -15.0560  -11.0390   81.3840 N.3   414  SER414     -0.1217
     41  CA       -14.7730  -11.8030   80.1640 C.3   414  SER414      0.1889
     42  C        -13.8590  -12.9980   80.3820 C.2   414  SER414      0.2288
     43  O        -12.8900  -12.9120   81.1280 O.2   414  SER414     -0.2866
     44  CB       -14.2210  -10.9100   79.0500 C.3   414  SER414      0.2089
     45  OG       -13.9750  -11.7080   77.8900 O.3   414  SER414     -0.2183
     46  N        -12.9340  -15.2200   77.5670 N.3   416  LEU416     -0.1245
     47  CA       -12.3910  -15.6450   76.2810 C.3   416  LEU416      0.1561
     48  C        -11.5650  -14.5150   75.7460 C.2   416  LEU416      0.2260
     49  O        -12.0550  -13.3940   75.6470 O.2   416  LEU416     -0.2867
     50  CB       -13.5150  -15.9730   75.2630 C.3   416  LEU416      0.0270
     51  CG       -14.8810  -15.2590   75.1520 C.3   416  LEU416      0.0019
     52  CD1      -14.8420  -13.7500   75.3670 C.3   416  LEU416      0.0001
     53  CD2      -15.5310  -15.5330   73.8190 C.3   416  LEU416      0.0001
     54  N         -9.8130  -12.8320   72.4850 N.3   418  MET418     -0.1245
     55  CA        -9.8370  -12.8620   71.0320 C.3   418  MET418      0.1570
     56  C         -8.4180  -13.0630   70.4790 C.2   418  MET418      0.2261
     57  O         -8.1570  -12.9680   69.2660 O.2   418  MET418     -0.2867
     58  CB       -10.5010  -11.5850   70.5170 C.3   418  MET418      0.0387
     59  CG       -11.9090  -11.3690   71.0660 C.3   418  MET418      0.0595
     60  SD       -13.0120  -12.7640   70.7240 S.3   418  MET418     -0.1393
     61  CE       -12.8530  -13.7020   72.2340 C.3   418  MET418      0.0692
     62  N        -12.5790  -20.5980   70.2860 N.3   427  LEU427     -0.1245
     63  CA       -12.9590  -19.3840   71.0180 C.3   427  LEU427      0.1561
     64  C        -13.2140  -19.6590   72.4920 C.2   427  LEU427      0.2260
     65  O        -13.1060  -18.7530   73.3180 O.2   427  LEU427     -0.2867
     66  CB       -14.2010  -18.7780   70.3530 C.3   427  LEU427      0.0270
     67  CG       -14.5840  -17.3120   70.3350 C.3   427  LEU427      0.0019
     68  CD1      -13.5520  -16.4460   69.6670 C.3   427  LEU427      0.0001
     69  CD2      -15.8620  -17.2570   69.5340 C.3   427  LEU427      0.0001
     70  N        -19.1760  -13.2600   57.7320 N.3   465  TYR465     -0.1241
     71  CA       -17.7410  -13.0040   57.8600 C.3   465  TYR465      0.1605
     72  C        -16.9840  -13.6010   56.7180 C.2   465  TYR465      0.2264
     73  O        -15.7580  -13.4690   56.6500 O.2   465  TYR465     -0.2867
     74  CB       -17.1720  -13.6690   59.0940 C.3   465  TYR465      0.0534
     75  CG       -17.5150  -13.0170   60.4020 C.ar  465  TYR465     -0.0201
     76  CD1      -16.7270  -11.9970   60.9360 C.ar  465  TYR465     -0.0009
     77  CD2      -18.6170  -13.4190   61.1070 C.ar  465  TYR465     -0.0009
     78  CE1      -17.0290  -11.4040   62.1520 C.ar  465  TYR465      0.0417
     79  CE2      -18.9290  -12.8390   62.3220 C.ar  465  TYR465      0.0417
     80  CZ       -18.1350  -11.8480   62.8370 C.ar  465  TYR465      0.1957
     81  OH       -18.4780  -11.3220   64.0480 O.3   465  TYR465     -0.2866
     82  N        -14.8970    0.0790   76.4000 N.3   494  LYS494     -0.1231
     83  CA       -14.2450   -1.1940   76.7160 C.3   494  LYS494      0.1693
     84  C        -14.4980   -2.2800   75.7310 C.2   494  LYS494      0.2592
     85  O        -14.3320   -3.4790   76.0200 O.2   494  LYS494     -0.2718
     86  CB       -14.6120   -1.6420   78.1390 C.3   494  LYS494      0.0285
     87  CG       -14.1680   -0.6020   79.1640 C.3   494  LYS494      0.0035
     88  CD       -13.8780   -1.2480   80.4820 C.3   494  LYS494      0.0206
     89  CE       -13.0770   -0.2970   81.3340 C.3   494  LYS494      0.1093
     90  NZ       -13.7560   -0.2110   82.6610 N.3   494  LYS494     -0.1314
     91  N        -14.8690   -1.8830   74.5280 N.am  495  ASP495     -0.1960
     92  CA       -14.9940   -2.8850   73.4730 C.3   495  ASP495      0.1840
     93  C        -13.5850   -3.1090   72.9430 C.2   495  ASP495      0.2622
     94  O        -13.0300   -2.2760   72.2110 O.2   495  ASP495     -0.2715
     95  CB       -16.0130   -2.4870   72.3850 C.3   495  ASP495      0.1450
     96  CG       -16.2610   -3.5990   71.3860 C.2   495  ASP495      0.3671
     97  OD1      -15.3710   -4.4740   71.2510 O.co2 495  ASP495     -0.2456
     98  OD2      -17.3240   -3.5720   70.6860 O.co2 495  ASP495     -0.2456
     99  N        -13.0080   -4.2310   73.3320 N.am  496  PHE496     -0.1960
    100  CA       -11.5990   -4.4220   73.1270 C.3   496  PHE496      0.1771
    101  C        -11.3300   -4.8810   71.7270 C.2   496  PHE496      0.2619
    102  O        -10.1830   -5.0170   71.3480 O.2   496  PHE496     -0.2715
    103  CB       -11.0000   -5.3210   74.2120 C.3   496  PHE496      0.0574
    104  CG       -10.9380   -4.6470   75.5720 C.ar  496  PHE496     -0.0200
    105  CD1      -10.4810   -3.3030   75.7020 C.ar  496  PHE496     -0.0042
    106  CD2      -11.3430   -5.3190   76.7390 C.ar  496  PHE496     -0.0042
    107  CE1      -10.4120   -2.6700   76.9530 C.ar  496  PHE496     -0.0003
    108  CE2      -11.2750   -4.6830   77.9920 C.ar  496  PHE496     -0.0003
    109  CZ       -10.8110   -3.3670   78.0930 C.ar  496  PHE496     -0.0000
    110  N        -12.3960   -5.1210   70.9620 N.am  497  VAL497     -0.1963
    111  CA       -12.2790   -5.4050   69.5140 C.3   497  VAL497      0.1727
    112  C        -12.6160   -4.1550   68.6730 C.2   497  VAL497      0.2616
    113  O        -11.7620   -3.6270   67.9390 O.2   497  VAL497     -0.2715
    114  CB       -13.0890   -6.6610   69.1030 C.3   497  VAL497      0.0290
    115  CG1      -13.0330   -6.9030   67.5950 C.3   497  VAL497      0.0023
    116  CG2      -12.5350   -7.8650   69.8490 C.3   497  VAL497      0.0023
    117  N        -13.8480   -3.6580   68.8070 N.am  498  LEU498     -0.1977
    118  CA       -14.2180   -2.4700   68.0720 C.3   498  LEU498      0.1596
    119  C        -13.8730   -1.3200   68.9730 C.2   498  LEU498      0.2287
    120  O        -14.7670   -0.7540   69.6070 O.2   498  LEU498     -0.2864
    121  CB       -15.6960   -2.5010   67.6950 C.3   498  LEU498      0.0297
    122  CG       -16.0940   -3.7500   66.8940 C.3   498  LEU498      0.0022
    123  CD1      -17.5820   -3.7880   66.5490 C.3   498  LEU498      0.0001
    124  CD2      -15.2870   -3.8730   65.6090 C.3   498  LEU498      0.0001
    125  N        -18.7290   -2.6350   77.3180 N.3   522  GLY522     -0.1210
    126  CA       -17.9830   -3.5300   76.4440 C.3   522  GLY522      0.1956
    127  C        -18.6500   -3.6100   75.0590 C.2   522  GLY522      0.2612
    128  O        -19.2650   -2.6180   74.5640 O.2   522  GLY522     -0.2717
    129  N        -18.5360   -4.7820   74.4390 N.am  523  HIS523     -0.1961
    130  CA       -19.0460   -5.0400   73.0900 C.3   523  HIS523      0.1787
    131  C        -20.5870   -5.1710   72.9690 C.2   523  HIS523      0.2620
    132  O        -21.1400   -4.8280   71.9270 O.2   523  HIS523     -0.2715
    133  CB       -18.3860   -6.3000   72.4880 C.3   523  HIS523      0.0785
    134  CG       -18.9330   -6.6630   71.1420 C.ar  523  HIS523      0.0821
    135  ND1      -18.5980   -5.9690   69.9910 N.ar  523  HIS523     -0.2267
    136  CD2      -19.8600   -7.5930   70.7750 C.ar  523  HIS523      0.1154
    137  CE1      -19.3000   -6.4680   68.9830 C.ar  523  HIS523      0.1986
    138  NE2      -20.0540   -7.4660   69.4250 N.ar  523  HIS523     -0.2212
    139  N        -21.2580   -5.6790   74.0100 N.am  524  TRP524     -0.1974
    140  CA       -22.7140   -5.9500   73.9920 C.3   524  TRP524      0.1640
    141  C        -23.4970   -4.7190   74.4360 C.2   524  TRP524      0.2290
    142  O        -24.2610   -4.7300   75.4050 O.2   524  TRP524     -0.2864
    143  CB       -23.0090   -7.1750   74.8480 C.3   524  TRP524      0.0576
    144  CG       -22.0240   -8.2570   74.4960 C.ar  524  TRP524      0.0006
    145  CD1      -20.9430   -8.6200   75.2210 C.ar  524  TRP524      0.0946
    146  CD2      -21.9730   -9.0330   73.2740 C.ar  524  TRP524      0.0152
    147  NE1      -20.2220   -9.5930   74.5530 N.ar  524  TRP524     -0.2442
    148  CE2      -20.8330   -9.8720   73.3620 C.ar  524  TRP524      0.0810
    149  CE3      -22.7900   -9.1130   72.1190 C.ar  524  TRP524      0.0012
    150  CZ2      -20.4860  -10.7890   72.3470 C.ar  524  TRP524      0.0191
    151  CZ3      -22.4540  -10.0110   71.1270 C.ar  524  TRP524      0.0001
    152  CH2      -21.3050  -10.8430   71.2410 C.ar  524  TRP524      0.0015
@<TRIPOS>BOND
     1    73    72    2
     2    72    71    1
     3    70    71    1
     4    71    74    1
     5    74    75    1
     6    75    76   ar
     7    75    77   ar
     8    76    78   ar
     9    77    79   ar
    10    78    80   ar
    11    79    80   ar
    12    15    14    2
    13    80    81    1
    14    14    13    1
    15    23    22    2
    16     8    10   ar
    17     8     6   ar
    18    10    11   ar
    19    22    21    1
    20     5     6    1
    21     5     2    1
    22     6     7   ar
    23    19    17   ar
    24    13    12    1
    25    13    16    1
    26    11     9   ar
    27    31    30    1
    28     1     2    1
    29    28    30   ar
    30    28    26   ar
    31     2     3    1
    32   124   122    1
    33    30    29   ar
    34    20    21    1
    35    21    24    1
    36    17    16    1
    37    17    18   ar
    38    26    25   ar
    39     7     9   ar
    40    29    27   ar
    41    25    27   ar
    42    25    24    1
    43   123   122    1
    44   122   121    1
    45     3     4    2
    46   115   114    1
    47   121   118    1
    48   113   112    2
    49   118   117    1
    50   118   119    1
    51   112   117   am
    52   112   111    1
    53   119   120    2
    54   137   138   ar
    55   137   135   ar
    56   114   111    1
    57   114   116    1
    58    57    56    2
    59   138   136   ar
    60   111   110    1
    61    69    67    1
    62    68    67    1
    63   135   134   ar
    64    62    63    1
    65    67    66    1
    66    66    63    1
    67    56    55    1
    68    58    55    1
    69    58    59    1
    70    98    96   ar
    71    60    59    1
    72    60    61    1
    73   136   134   ar
    74   110   101   am
    75    63    64    1
    76    55    54    1
    77   151   152   ar
    78   151   149   ar
    79   134   133    1
    80   152   150   ar
    81    97    96   ar
    82    38    37    1
    83   102   101    2
    84    96    95    1
    85   101   100    1
    86   132   131    2
    87    39    37    1
    88   149   146   ar
    89    94    93    2
    90   150   148   ar
    91    95    92    1
    92   133   130    1
    93    64    65    2
    94    37    36    1
    95    93    99   am
    96    93    92    1
    97   131   130    1
    98   131   139   am
    99   130   129    1
   100   100    99    1
   101   100   103    1
   102   146   148   ar
   103   146   144   ar
   104   148   147   ar
   105    36    33    1
   106    92    91    1
   107    53    51    1
   108   140   139    1
   109   140   141    1
   110   140   143    1
   111   103   104    1
   112   141   142    2
   113   129   127   am
   114   144   143    1
   115   144   145   ar
   116    91    84   am
   117   147   145   ar
   118   128   127    2
   119    33    34    1
   120    33    32    1
   121   127   126    1
   122    51    50    1
   123    51    52    1
   124    50    47    1
   125    34    35    2
   126   104   105   ar
   127   104   106   ar
   128    49    48    2
   129   105   107   ar
   130    84    85    2
   131    84    83    1
   132    48    47    1
   133    47    46    1
   134    82    83    1
   135   126   125    1
   136    83    86    1
   137   106   108   ar
   138   107   109   ar
   139    45    44    1
   140   108   109   ar
   141    86    87    1
   142    44    41    1
   143    87    88    1
   144    41    42    1
   145    41    40    1
   146    42    43    2
   147    88    89    1
   148    89    90    1
