@<TRIPOS>MOLECULE
tmp/4y2xA00.pdb
 189 185 0 0 0
SMALL
GASTEIGER

@<TRIPOS>ATOM
      1  N        -23.6380   -9.8630   65.0270 N.3   266  PHE266     -0.1228
      2  CA       -23.3230  -11.3040   65.1270 C.3   266  PHE266      0.1721
      3  C        -22.9560  -11.6500   66.5700 C.2   266  PHE266      0.2437
      4  O        -22.1250  -10.9600   67.1720 O.2   266  PHE266     -0.2733
      5  CB       -22.1320  -11.6560   64.2470 C.3   266  PHE266      0.0547
      6  CG       -21.6550  -13.0680   64.4010 C.ar  266  PHE266     -0.0202
      7  CD1      -20.7800  -13.4290   65.4460 C.ar  266  PHE266     -0.0042
      8  CD2      -22.0580  -14.0590   63.5010 C.ar  266  PHE266     -0.0042
      9  CE1      -20.3290  -14.7530   65.6060 C.ar  266  PHE266     -0.0003
     10  CE2      -21.6100  -15.3770   63.6420 C.ar  266  PHE266     -0.0003
     11  CZ       -20.7500  -15.7270   64.7090 C.ar  266  PHE266     -0.0000
     12  N        -23.5430  -12.7170   67.1360 N.am  267  PRO267     -0.2729
     13  CA       -24.6060  -13.5660   66.6470 C.3   267  PRO267      0.1401
     14  C        -25.8460  -13.2990   67.4700 C.2   267  PRO267      0.2269
     15  O        -26.0690  -13.9680   68.4780 O.2   267  PRO267     -0.2865
     16  CB       -24.0980  -14.9600   66.9730 C.3   267  PRO267      0.0296
     17  CG       -23.2200  -14.7780   68.1780 C.3   267  PRO267      0.0237
     18  CD       -22.9050  -13.3050   68.3230 C.3   267  PRO267      0.0939
     19  N        -22.6780   -3.7220   65.6390 N.3   334  ASP334     -0.1225
     20  CA       -21.7850   -4.7970   65.1520 C.3   334  ASP334      0.1805
     21  C        -21.9380   -4.9960   63.6290 C.2   334  ASP334      0.2597
     22  O        -21.8110   -4.0150   62.8920 O.2   334  ASP334     -0.2718
     23  CB       -22.0180   -6.0930   65.9300 C.3   334  ASP334      0.1424
     24  CG       -20.9630   -7.1140   65.6620 C.2   334  ASP334      0.3668
     25  OD1      -19.8610   -6.9970   66.2290 O.co2 334  ASP334     -0.2456
     26  OD2      -21.2200   -8.0260   64.8480 O.co2 334  ASP334     -0.2456
     27  N        -22.2190   -6.2220   63.1620 N.am  335  TRP335     -0.1976
     28  CA       -22.4180   -6.4560   61.7110 C.3   335  TRP335      0.1640
     29  C        -23.4720   -5.5520   61.0930 C.2   335  TRP335      0.2290
     30  O        -23.2990   -5.1090   59.9700 O.2   335  TRP335     -0.2864
     31  CB       -22.7600   -7.9280   61.3570 C.3   335  TRP335      0.0576
     32  CG       -21.6430   -8.6260   60.7200 C.ar  335  TRP335      0.0006
     33  CD1      -20.9970   -9.6980   61.2090 C.ar  335  TRP335      0.0946
     34  CD2      -20.9810   -8.2710   59.4970 C.ar  335  TRP335      0.0152
     35  NE1      -19.9640  -10.0660   60.3710 N.ar  335  TRP335     -0.2442
     36  CE2      -19.9320   -9.2010   59.3100 C.ar  335  TRP335      0.0810
     37  CE3      -21.1670   -7.2640   58.5450 C.ar  335  TRP335      0.0012
     38  CZ2      -19.0650   -9.1640   58.1900 C.ar  335  TRP335      0.0191
     39  CZ3      -20.3080   -7.2210   57.4280 C.ar  335  TRP335      0.0001
     40  CH2      -19.2610   -8.1680   57.2690 C.ar  335  TRP335      0.0015
     41  N        -22.1610   -2.1680   60.2210 N.3   338  MET338     -0.1245
     42  CA       -21.3980   -2.1540   58.9620 C.3   338  MET338      0.1570
     43  C        -22.3490   -2.0360   57.7910 C.2   338  MET338      0.2261
     44  O        -22.0980   -1.2960   56.8110 O.2   338  MET338     -0.2867
     45  CB       -20.6070   -3.4560   58.7830 C.3   338  MET338      0.0387
     46  CG       -19.6390   -3.4990   57.5860 C.3   338  MET338      0.0595
     47  SD       -18.0600   -2.6930   57.9630 S.3   338  MET338     -0.1393
     48  CE       -18.4890   -0.9440   57.9480 C.3   338  MET338      0.0692
     49  N        -19.4180   -0.1860   65.6750 N.3   359  THR359     -0.1218
     50  CA       -18.8580   -0.3270   64.3320 C.3   359  THR359      0.1862
     51  C        -18.5240    1.0090   63.6200 C.2   359  THR359      0.2287
     52  O        -19.4370    1.7440   63.1840 O.2   359  THR359     -0.2866
     53  CB       -19.8400   -1.1520   63.4840 C.3   359  THR359      0.1770
     54  OG1      -20.2640   -2.2570   64.2640 O.3   359  THR359     -0.2211
     55  CG2      -19.2190   -1.6620   62.2060 C.3   359  THR359      0.0375
     56  N         -8.5650   -9.2870   65.2750 N.3   380  PHE380     -0.1241
     57  CA        -9.4630   -9.8610   64.2960 C.3   380  PHE380      0.1605
     58  C         -9.0990  -11.3020   63.9020 C.2   380  PHE380      0.2264
     59  O         -9.6270  -11.8160   62.9120 O.2   380  PHE380     -0.2867
     60  CB        -9.5540   -8.9850   63.0360 C.3   380  PHE380      0.0534
     61  CG       -10.2790   -7.6730   63.2360 C.ar  380  PHE380     -0.0203
     62  CD1      -11.3710   -7.5690   64.1000 C.ar  380  PHE380     -0.0042
     63  CD2       -9.8860   -6.5360   62.5190 C.ar  380  PHE380     -0.0042
     64  CE1      -12.0360   -6.3590   64.2670 C.ar  380  PHE380     -0.0003
     65  CE2      -10.5510   -5.3270   62.6800 C.ar  380  PHE380     -0.0003
     66  CZ       -11.6280   -5.2370   63.5590 C.ar  380  PHE380     -0.0000
     67  N        -10.1770  -14.0290   65.1210 N.3   382  TYR382     -0.1227
     68  CA       -11.4220  -14.8040   65.0590 C.3   382  TYR382      0.1736
     69  C        -12.0910  -14.8020   63.6690 C.2   382  TYR382      0.2595
     70  O        -12.7720  -15.7610   63.3210 O.2   382  TYR382     -0.2718
     71  CB       -12.4150  -14.3220   66.1090 C.3   382  TYR382      0.0548
     72  CG       -13.0410  -13.0010   65.7410 C.ar  382  TYR382     -0.0200
     73  CD1      -14.1380  -12.9430   64.8920 C.ar  382  TYR382     -0.0009
     74  CD2      -12.5170  -11.8130   66.2280 C.ar  382  TYR382     -0.0009
     75  CE1      -14.6930  -11.7350   64.5410 C.ar  382  TYR382      0.0417
     76  CE2      -13.0720  -10.5960   65.8980 C.ar  382  TYR382      0.0417
     77  CZ       -14.1590  -10.5580   65.0530 C.ar  382  TYR382      0.1957
     78  OH       -14.7140   -9.3310   64.7170 O.3   382  TYR382     -0.2866
     79  N        -11.8830  -13.7420   62.8850 N.am  383  GLN383     -0.1979
     80  CA       -12.4930  -13.6510   61.5560 C.3   383  GLN383      0.1601
     81  C        -11.8790  -14.6460   60.5850 C.2   383  GLN383      0.2287
     82  O        -12.5220  -15.0300   59.6020 O.2   383  GLN383     -0.2864
     83  CB       -12.4540  -12.2360   60.9600 C.3   383  GLN383      0.0394
     84  CG       -13.1680  -11.1650   61.7610 C.3   383  GLN383      0.0908
     85  CD       -13.3860   -9.8870   60.9520 C.2   383  GLN383      0.2608
     86  OE1      -14.1150   -8.9690   61.3670 O.2   383  GLN383     -0.2717
     87  NE2      -12.7610   -9.8200   59.7870 N.am  383  GLN383     -0.0878
     88  N        -13.4060  -18.1020   61.2000 N.3   386  PHE386     -0.1241
     89  CA       -14.7730  -18.1920   60.7070 C.3   386  PHE386      0.1605
     90  C        -14.8450  -18.5560   59.2110 C.2   386  PHE386      0.2264
     91  O        -15.9240  -18.7880   58.6660 O.2   386  PHE386     -0.2867
     92  CB       -15.5050  -16.8790   60.9780 C.3   386  PHE386      0.0534
     93  CG       -15.8590  -16.6510   62.4270 C.ar  386  PHE386     -0.0203
     94  CD1      -15.6730  -17.6480   63.3920 C.ar  386  PHE386     -0.0042
     95  CD2      -16.4350  -15.4330   62.8270 C.ar  386  PHE386     -0.0042
     96  CE1      -16.0120  -17.4140   64.7150 C.ar  386  PHE386     -0.0003
     97  CE2      -16.7700  -15.2140   64.1420 C.ar  386  PHE386     -0.0003
     98  CZ       -16.5550  -16.1990   65.0840 C.ar  386  PHE386     -0.0000
     99  N        -20.4600  -15.6820   75.3710 N.3   407  LEU407     -0.1245
    100  CA       -20.3410  -14.4890   74.5200 C.3   407  LEU407      0.1561
    101  C        -20.8970  -13.2250   75.1950 C.2   407  LEU407      0.2260
    102  O        -20.2650  -12.1710   75.1720 O.2   407  LEU407     -0.2867
    103  CB       -21.0600  -14.7370   73.1840 C.3   407  LEU407      0.0270
    104  CG       -20.4370  -15.8170   72.2910 C.3   407  LEU407      0.0019
    105  CD1      -21.2880  -16.0490   71.0760 C.3   407  LEU407      0.0001
    106  CD2      -18.9900  -15.4910   71.9110 C.3   407  LEU407      0.0001
    107  N        -12.9400  -15.1860   77.8070 N.3   416  LEU416     -0.1245
    108  CA       -12.2040  -15.6460   76.6310 C.3   416  LEU416      0.1561
    109  C        -11.3090  -14.5500   76.0700 C.2   416  LEU416      0.2260
    110  O        -11.7340  -13.3950   75.9620 O.2   416  LEU416     -0.2867
    111  CB       -13.1630  -16.1700   75.5430 C.3   416  LEU416      0.0270
    112  CG       -14.6020  -15.6790   75.3850 C.3   416  LEU416      0.0019
    113  CD1      -14.7230  -14.1680   75.2340 C.3   416  LEU416      0.0001
    114  CD2      -15.2370  -16.3780   74.2010 C.3   416  LEU416      0.0001
    115  N         -9.4780  -13.0800   72.7600 N.3   418  MET418     -0.1245
    116  CA        -9.5650  -13.0630   71.2880 C.3   418  MET418      0.1570
    117  C         -8.2280  -13.3420   70.6170 C.2   418  MET418      0.2261
    118  O         -8.0670  -13.1540   69.4010 O.2   418  MET418     -0.2867
    119  CB       -10.1240  -11.7150   70.8040 C.3   418  MET418      0.0387
    120  CG       -11.6410  -11.6040   70.8430 C.3   418  MET418      0.0595
    121  SD       -12.4630  -13.1860   70.5370 S.3   418  MET418     -0.1393
    122  CE       -12.8900  -13.6820   72.2080 C.3   418  MET418      0.0692
    123  N        -12.9040  -20.7120   69.5920 N.3   427  LEU427     -0.1245
    124  CA       -13.1880  -19.5090   70.3570 C.3   427  LEU427      0.1561
    125  C        -13.2740  -19.8230   71.8370 C.2   427  LEU427      0.2260
    126  O        -12.9200  -18.9770   72.6520 O.2   427  LEU427     -0.2867
    127  CB       -14.4940  -18.8780   69.8560 C.3   427  LEU427      0.0270
    128  CG       -14.8140  -17.3860   69.8910 C.3   427  LEU427      0.0019
    129  CD1      -13.6390  -16.4970   69.5270 C.3   427  LEU427      0.0001
    130  CD2      -15.9790  -17.1380   68.9380 C.3   427  LEU427      0.0001
    131  N        -19.3840  -13.3090   57.4870 N.3   465  TYR465     -0.1241
    132  CA       -17.9270  -13.2070   57.4930 C.3   465  TYR465      0.1605
    133  C        -17.2640  -13.8150   56.2790 C.2   465  TYR465      0.2264
    134  O        -16.0500  -13.7480   56.1760 O.2   465  TYR465     -0.2867
    135  CB       -17.3430  -13.8940   58.7120 C.3   465  TYR465      0.0534
    136  CG       -17.5870  -13.1750   60.0160 C.ar  465  TYR465     -0.0201
    137  CD1      -16.7390  -12.1600   60.4430 C.ar  465  TYR465     -0.0009
    138  CD2      -18.6490  -13.5260   60.8320 C.ar  465  TYR465     -0.0009
    139  CE1      -16.9490  -11.5040   61.6340 C.ar  465  TYR465      0.0417
    140  CE2      -18.8700  -12.8800   62.0400 C.ar  465  TYR465      0.0417
    141  CZ       -18.0220  -11.8680   62.4300 C.ar  465  TYR465      0.1957
    142  OH       -18.2410  -11.2050   63.6250 O.3   465  TYR465     -0.2866
    143  N        -15.5420  -11.6480   52.1220 N.3   468  MET468     -0.1245
    144  CA       -14.6260  -10.5000   52.3260 C.3   468  MET468      0.1570
    145  C        -14.2390   -9.8660   50.9810 C.2   468  MET468      0.2261
    146  O        -14.4700   -8.6730   50.7630 O.2   468  MET468     -0.2867
    147  CB       -13.3830  -10.8620   53.1800 C.3   468  MET468      0.0387
    148  CG       -13.6220  -11.2350   54.6510 C.3   468  MET468      0.0595
    149  SD       -14.6150  -10.0520   55.6090 S.3   468  MET468     -0.1393
    150  CE       -14.3990  -10.6290   57.2980 C.3   468  MET468      0.0692
    151  N        -12.5920   -5.0670   70.7640 N.3   497  VAL497     -0.1231
    152  CA       -12.4660   -5.4230   69.3570 C.3   497  VAL497      0.1692
    153  C        -12.7640   -4.1670   68.5380 C.2   497  VAL497      0.2591
    154  O        -11.9830   -3.7610   67.6750 O.2   497  VAL497     -0.2718
    155  CB       -13.3890   -6.6240   68.9910 C.3   497  VAL497      0.0266
    156  CG1      -13.4620   -6.8520   67.4960 C.3   497  VAL497      0.0020
    157  CG2      -12.8830   -7.8910   69.6540 C.3   497  VAL497      0.0020
    158  N        -13.9120   -3.5560   68.8120 N.am  498  LEU498     -0.1980
    159  CA       -14.2910   -2.3480   68.1130 C.3   498  LEU498      0.1596
    160  C        -13.9620   -1.1990   69.0790 C.2   498  LEU498      0.2287
    161  O        -14.8340   -0.6790   69.8060 O.2   498  LEU498     -0.2864
    162  CB       -15.7690   -2.3930   67.6670 C.3   498  LEU498      0.0297
    163  CG       -16.2730   -3.5340   66.7660 C.3   498  LEU498      0.0022
    164  CD1      -17.7680   -3.4180   66.5290 C.3   498  LEU498      0.0001
    165  CD2      -15.5690   -3.5920   65.4190 C.3   498  LEU498      0.0001
    166  N        -18.8380   -4.7840   74.5440 N.3   523  HIS523     -0.1226
    167  CA       -19.2780   -4.9530   73.1750 C.3   523  HIS523      0.1752
    168  C        -20.7990   -5.0310   73.0030 C.2   523  HIS523      0.2596
    169  O        -21.3310   -4.6870   71.9420 O.2   523  HIS523     -0.2718
    170  CB       -18.6450   -6.1790   72.5320 C.3   523  HIS523      0.0759
    171  CG       -19.2380   -6.4860   71.1980 C.ar  523  HIS523      0.0818
    172  ND1      -18.9710   -5.7220   70.0810 N.ar  523  HIS523     -0.2268
    173  CD2      -20.1610   -7.4010   70.8190 C.ar  523  HIS523      0.1154
    174  CE1      -19.6730   -6.1840   69.0620 C.ar  523  HIS523      0.1986
    175  NE2      -20.4030   -7.2010   69.4830 N.ar  523  HIS523     -0.2212
    176  N        -21.4970   -5.4920   74.0350 N.am  524  TRP524     -0.1976
    177  CA       -22.9400   -5.7400   73.9480 C.3   524  TRP524      0.1640
    178  C        -23.7010   -4.4950   74.3180 C.2   524  TRP524      0.2290
    179  O        -24.5180   -4.4830   75.2310 O.2   524  TRP524     -0.2864
    180  CB       -23.3180   -6.9350   74.8090 C.3   524  TRP524      0.0576
    181  CG       -22.3720   -8.0600   74.5160 C.ar  524  TRP524      0.0006
    182  CD1      -21.3380   -8.4760   75.2940 C.ar  524  TRP524      0.0946
    183  CD2      -22.3210   -8.8660   73.3050 C.ar  524  TRP524      0.0152
    184  NE1      -20.6540   -9.5080   74.6620 N.ar  524  TRP524     -0.2442
    185  CE2      -21.2320   -9.7730   73.4530 C.ar  524  TRP524      0.0810
    186  CE3      -23.0970   -8.9210   72.1350 C.ar  524  TRP524      0.0012
    187  CZ2      -20.8980  -10.7140   72.4840 C.ar  524  TRP524      0.0191
    188  CZ3      -22.7590   -9.8720   71.1510 C.ar  524  TRP524      0.0001
    189  CH2      -21.6740  -10.7580   71.3440 C.ar  524  TRP524      0.0015
@<TRIPOS>BOND
     1   146   145    2
     2   145   144    1
     3   143   144    1
     4   144   147    1
     5   147   148    1
     6   148   149    1
     7   149   150    1
     8   134   133    2
     9   133   132    1
    10    44    43    2
    11    40    39   ar
    12    40    38   ar
    13    39    37   ar
    14   131   132    1
    15   132   135    1
    16    46    47    1
    17    46    45    1
    18    43    42    1
    19    48    47    1
    20    38    36   ar
    21    37    34   ar
    22    91    90    2
    23   135   136    1
    24    45    42    1
    25    42    41    1
    26    90    89    1
    27    36    34   ar
    28    36    35   ar
    29    34    32   ar
    30    82    81    2
    31    87    85   am
    32    30    29    2
    33   136   137   ar
    34   136   138   ar
    35    35    33   ar
    36   137   139   ar
    37    81    80    1
    38    89    92    1
    39    89    88    1
    40    32    33   ar
    41    32    31    1
    42   138   140   ar
    43    85    86    2
    44    85    84    1
    45    83    80    1
    46    83    84    1
    47    92    93    1
    48    29    28    1
    49    31    28    1
    50    80    79    1
    51   139   141   ar
    52    28    27    1
    53   140   141   ar
    54    55    53    1
    55    93    95   ar
    56    93    94   ar
    57   141   142    1
    58    63    65   ar
    59    63    61   ar
    60    65    66   ar
    61    95    97   ar
    62    79    69   am
    63    22    21    2
    64    59    58    2
    65    60    61    1
    66    60    57    1
    67    27    21   am
    68    52    51    2
    69    61    62   ar
    70    70    69    2
    71    94    96   ar
    72    53    54    1
    73    53    50    1
    74     8    10   ar
    75     8     6   ar
    76    66    64   ar
    77    51    50    1
    78    21    20    1
    79    10    11   ar
    80    69    68    1
    81    58    57    1
    82    62    64   ar
    83    97    98   ar
    84     5     6    1
    85     5     2    1
    86    57    56    1
    87    50    49    1
    88     6     7   ar
    89    75    73   ar
    90    75    77   ar
    91    11     9   ar
    92    96    98   ar
    93    78    77    1
    94    26    24   ar
    95    73    72   ar
    96     1     2    1
    97    77    76   ar
    98    68    67    1
    99    68    71    1
   100     2     3    1
   101    20    19    1
   102    20    23    1
   103   165   163    1
   104     7     9   ar
   105    24    23    1
   106    24    25   ar
   107    72    71    1
   108    72    74   ar
   109    76    74   ar
   110   164   163    1
   111     3    12   am
   112     3     4    2
   113    13    16    1
   114    13    12    1
   115    13    14    1
   116   163   162    1
   117    16    17    1
   118    12    18    1
   119    14    15    2
   120   156   155    1
   121   162   159    1
   122   154   153    2
   123   159   158    1
   124   159   160    1
   125    17    18    1
   126   153   158   am
   127   153   152    1
   128   130   128    1
   129   155   152    1
   130   155   157    1
   131   174   175   ar
   132   174   172   ar
   133   160   161    2
   134   152   151    1
   135   118   117    2
   136   175   173   ar
   137   129   128    1
   138   123   124    1
   139   127   128    1
   140   127   124    1
   141   172   171   ar
   142   124   125    1
   143   121   120    1
   144   121   122    1
   145   117   116    1
   146   119   120    1
   147   119   116    1
   148   173   171   ar
   149   105   104    1
   150   188   189   ar
   151   188   186   ar
   152   171   170    1
   153   116   115    1
   154   189   187   ar
   155   125   126    2
   156   106   104    1
   157   169   168    2
   158   186   183   ar
   159   104   103    1
   160   187   185   ar
   161   170   167    1
   162   168   167    1
   163   168   176   am
   164   167   166    1
   165   103   100    1
   166   183   185   ar
   167   183   181   ar
   168   185   184   ar
   169   177   176    1
   170   177   178    1
   171   177   180    1
   172   114   112    1
   173   178   179    2
   174   181   180    1
   175   181   182   ar
   176   100   101    1
   177   100    99    1
   178   184   182   ar
   179   102   101    2
   180   113   112    1
   181   112   111    1
   182   111   108    1
   183   110   109    2
   184   109   108    1
   185   108   107    1
