@<TRIPOS>MOLECULE
tmp/4y2yA00.pdb
 189 185 0 0 0
SMALL
GASTEIGER

@<TRIPOS>ATOM
      1  N        -23.6480   -9.9270   65.2510 N.3   266  PHE266     -0.1228
      2  CA       -23.3190  -11.3400   65.3730 C.3   266  PHE266      0.1721
      3  C        -22.9820  -11.7490   66.8410 C.2   266  PHE266      0.2437
      4  O        -22.2760  -11.0160   67.5370 O.2   266  PHE266     -0.2733
      5  CB       -22.1530  -11.6720   64.4430 C.3   266  PHE266      0.0547
      6  CG       -21.6370  -13.0590   64.6090 C.ar  266  PHE266     -0.0202
      7  CD1      -20.8630  -13.4070   65.7280 C.ar  266  PHE266     -0.0042
      8  CD2      -21.9490  -14.0410   63.6810 C.ar  266  PHE266     -0.0042
      9  CE1      -20.3890  -14.7210   65.9120 C.ar  266  PHE266     -0.0003
     10  CE2      -21.5170  -15.3420   63.8480 C.ar  266  PHE266     -0.0003
     11  CZ       -20.7250  -15.6940   64.9670 C.ar  266  PHE266     -0.0000
     12  N        -23.5110  -12.8980   67.3340 N.am  267  PRO267     -0.2729
     13  CA       -24.5880  -13.6880   66.7770 C.3   267  PRO267      0.1401
     14  C        -25.8600  -13.3640   67.5540 C.2   267  PRO267      0.2269
     15  O        -26.1450  -13.9990   68.5730 O.2   267  PRO267     -0.2865
     16  CB       -24.1280  -15.1380   67.0520 C.3   267  PRO267      0.0296
     17  CG       -23.1990  -15.0500   68.2360 C.3   267  PRO267      0.0237
     18  CD       -22.9000  -13.5800   68.4990 C.3   267  PRO267      0.0939
     19  N        -22.6690   -3.7660   65.6320 N.3   334  ASP334     -0.1225
     20  CA       -21.8070   -4.8630   65.1880 C.3   334  ASP334      0.1805
     21  C        -21.9550   -5.0740   63.6760 C.2   334  ASP334      0.2597
     22  O        -21.8380   -4.1030   62.9180 O.2   334  ASP334     -0.2718
     23  CB       -22.0890   -6.1110   66.0410 C.3   334  ASP334      0.1424
     24  CG       -21.1200   -7.2190   65.7770 C.2   334  ASP334      0.3668
     25  OD1      -19.9840   -7.1160   66.2700 O.co2 334  ASP334     -0.2456
     26  OD2      -21.5030   -8.1880   65.0630 O.co2 334  ASP334     -0.2456
     27  N        -22.2690   -6.2900   63.2120 N.am  335  TRP335     -0.1976
     28  CA       -22.5520   -6.4760   61.7590 C.3   335  TRP335      0.1640
     29  C        -23.7160   -5.6260   61.2380 C.2   335  TRP335      0.2290
     30  O        -23.6870   -5.1660   60.1040 O.2   335  TRP335     -0.2864
     31  CB       -22.7360   -7.9640   61.3550 C.3   335  TRP335      0.0576
     32  CG       -21.4370   -8.6170   60.9260 C.ar  335  TRP335      0.0006
     33  CD1      -20.6980   -9.5170   61.6510 C.ar  335  TRP335      0.0946
     34  CD2      -20.6930   -8.3850   59.7130 C.ar  335  TRP335      0.0152
     35  NE1      -19.5370   -9.8750   60.9660 N.ar  335  TRP335     -0.2442
     36  CE2      -19.5090   -9.1980   59.7760 C.ar  335  TRP335      0.0810
     37  CE3      -20.8970   -7.5830   58.5950 C.ar  335  TRP335      0.0012
     38  CZ2      -18.5460   -9.2310   58.7520 C.ar  335  TRP335      0.0191
     39  CZ3      -19.9250   -7.6210   57.5510 C.ar  335  TRP335      0.0001
     40  CH2      -18.7600   -8.4420   57.6500 C.ar  335  TRP335      0.0015
     41  N        -22.2360   -2.3300   60.2340 N.3   338  MET338     -0.1245
     42  CA       -21.5590   -2.2500   58.9610 C.3   338  MET338      0.1570
     43  C        -22.5710   -2.1160   57.8270 C.2   338  MET338      0.2261
     44  O        -22.3220   -1.4210   56.8520 O.2   338  MET338     -0.2867
     45  CB       -20.7620   -3.5230   58.7160 C.3   338  MET338      0.0387
     46  CG       -19.8180   -3.4840   57.5220 C.3   338  MET338      0.0595
     47  SD       -18.3170   -2.6050   57.9960 S.3   338  MET338     -0.1393
     48  CE       -18.7150   -0.8780   57.6480 C.3   338  MET338      0.0692
     49  N        -19.6280   -0.3140   65.7320 N.3   359  THR359     -0.1218
     50  CA       -19.0700   -0.4390   64.3660 C.3   359  THR359      0.1862
     51  C        -18.7110    0.8840   63.6690 C.2   359  THR359      0.2287
     52  O        -19.5980    1.6470   63.2730 O.2   359  THR359     -0.2866
     53  CB       -20.0070   -1.2230   63.4410 C.3   359  THR359      0.1770
     54  OG1      -20.6630   -2.2420   64.2000 O.3   359  THR359     -0.2211
     55  CG2      -19.2630   -1.8400   62.2840 C.3   359  THR359      0.0375
     56  N         -8.6720   -9.5560   65.6070 N.3   380  PHE380     -0.1241
     57  CA        -9.5100  -10.1340   64.5610 C.3   380  PHE380      0.1605
     58  C         -9.1520  -11.5730   64.1950 C.2   380  PHE380      0.2264
     59  O         -9.6360  -12.1060   63.1690 O.2   380  PHE380     -0.2867
     60  CB        -9.4430   -9.3180   63.2620 C.3   380  PHE380      0.0534
     61  CG       -10.1670   -7.9840   63.3050 C.ar  380  PHE380     -0.0203
     62  CD1      -10.9130   -7.5930   64.4080 C.ar  380  PHE380     -0.0042
     63  CD2      -10.0880   -7.1120   62.1990 C.ar  380  PHE380     -0.0042
     64  CE1      -11.5820   -6.3740   64.4100 C.ar  380  PHE380     -0.0003
     65  CE2      -10.7280   -5.8850   62.2050 C.ar  380  PHE380     -0.0003
     66  CZ       -11.4740   -5.5090   63.3110 C.ar  380  PHE380     -0.0000
     67  N         -9.9990  -14.3520   65.4890 N.3   382  TYR382     -0.1227
     68  CA       -11.2160  -15.1380   65.5370 C.3   382  TYR382      0.1736
     69  C        -11.9020  -15.1990   64.1500 C.2   382  TYR382      0.2595
     70  O        -12.5010  -16.2340   63.7810 O.2   382  TYR382     -0.2718
     71  CB       -12.1690  -14.5980   66.6240 C.3   382  TYR382      0.0548
     72  CG       -13.0160  -13.4430   66.1200 C.ar  382  TYR382     -0.0200
     73  CD1      -14.1770  -13.6830   65.3810 C.ar  382  TYR382     -0.0009
     74  CD2      -12.6530  -12.1150   66.3520 C.ar  382  TYR382     -0.0009
     75  CE1      -14.9360  -12.6530   64.8790 C.ar  382  TYR382      0.0417
     76  CE2      -13.4250  -11.0740   65.8550 C.ar  382  TYR382      0.0417
     77  CZ       -14.5640  -11.3590   65.1150 C.ar  382  TYR382      0.1957
     78  OH       -15.3640  -10.3500   64.6050 O.3   382  TYR382     -0.2866
     79  N        -11.8160  -14.1030   63.3920 N.am  383  GLN383     -0.1979
     80  CA       -12.4130  -14.0630   62.0600 C.3   383  GLN383      0.1601
     81  C        -11.7600  -15.0230   61.0780 C.2   383  GLN383      0.2287
     82  O        -12.4100  -15.4490   60.1110 O.2   383  GLN383     -0.2864
     83  CB       -12.3510  -12.6690   61.4620 C.3   383  GLN383      0.0394
     84  CG       -12.9110  -11.6200   62.3950 C.3   383  GLN383      0.0908
     85  CD       -13.0120  -10.2560   61.7690 C.2   383  GLN383      0.2608
     86  OE1      -13.4020   -9.2930   62.4390 O.2   383  GLN383     -0.2717
     87  NE2      -12.6780  -10.1530   60.4830 N.am  383  GLN383     -0.0878
     88  N        -13.1810  -18.2340   61.6380 N.3   386  PHE386     -0.1241
     89  CA       -14.5740  -18.3060   61.1730 C.3   386  PHE386      0.1605
     90  C        -14.6620  -18.7290   59.7100 C.2   386  PHE386      0.2264
     91  O        -15.7620  -19.0310   59.2270 O.2   386  PHE386     -0.2867
     92  CB       -15.3130  -16.9690   61.3850 C.3   386  PHE386      0.0534
     93  CG       -15.8240  -16.7570   62.8030 C.ar  386  PHE386     -0.0203
     94  CD1      -15.6530  -17.7370   63.7980 C.ar  386  PHE386     -0.0042
     95  CD2      -16.5230  -15.5820   63.1370 C.ar  386  PHE386     -0.0042
     96  CE1      -16.1400  -17.5150   65.0810 C.ar  386  PHE386     -0.0003
     97  CE2      -17.0110  -15.3570   64.4400 C.ar  386  PHE386     -0.0003
     98  CZ       -16.8190  -16.3140   65.4060 C.ar  386  PHE386     -0.0000
     99  N        -20.3290  -15.6540   75.4840 N.3   407  LEU407     -0.1245
    100  CA       -20.2740  -14.4130   74.6720 C.3   407  LEU407      0.1561
    101  C        -20.8840  -13.2380   75.3950 C.2   407  LEU407      0.2260
    102  O        -20.2270  -12.2360   75.5730 O.2   407  LEU407     -0.2867
    103  CB       -21.0320  -14.6110   73.3580 C.3   407  LEU407      0.0270
    104  CG       -20.4470  -15.6050   72.3690 C.3   407  LEU407      0.0019
    105  CD1      -21.5000  -15.8780   71.3440 C.3   407  LEU407      0.0001
    106  CD2      -19.1900  -15.0420   71.7370 C.3   407  LEU407      0.0001
    107  N        -13.1880  -15.0670   77.7510 N.3   416  LEU416     -0.1245
    108  CA       -12.6840  -15.4190   76.4080 C.3   416  LEU416      0.1561
    109  C        -11.9070  -14.2850   75.7580 C.2   416  LEU416      0.2260
    110  O        -12.4880  -13.3150   75.2720 O.2   416  LEU416     -0.2867
    111  CB       -13.8180  -15.9230   75.4530 C.3   416  LEU416      0.0270
    112  CG       -15.2810  -15.4240   75.4120 C.3   416  LEU416      0.0019
    113  CD1      -15.5750  -14.1490   76.2360 C.3   416  LEU416      0.0001
    114  CD2      -15.7450  -15.2770   73.9710 C.3   416  LEU416      0.0001
    115  N         -9.8420  -12.8990   72.6240 N.3   418  MET418     -0.1245
    116  CA       -10.0030  -13.1080   71.1880 C.3   418  MET418      0.1570
    117  C         -8.6410  -13.4890   70.6250 C.2   418  MET418      0.2261
    118  O         -8.3720  -13.4140   69.4000 O.2   418  MET418     -0.2867
    119  CB       -10.5460  -11.8270   70.5410 C.3   418  MET418      0.0387
    120  CG       -11.9490  -11.4250   70.9970 C.3   418  MET418      0.0595
    121  SD       -13.1840  -12.6680   70.5900 S.3   418  MET418     -0.1393
    122  CE       -13.0840  -13.7040   72.0500 C.3   418  MET418      0.0692
    123  N        -12.9450  -20.9340   69.9430 N.3   427  LEU427     -0.1245
    124  CA       -13.2180  -19.6980   70.6450 C.3   427  LEU427      0.1561
    125  C        -13.4380  -19.9550   72.1370 C.2   427  LEU427      0.2260
    126  O        -13.2990  -19.0500   72.9540 O.2   427  LEU427     -0.2867
    127  CB       -14.4260  -19.0400   69.9730 C.3   427  LEU427      0.0270
    128  CG       -14.9870  -17.6530   70.2100 C.3   427  LEU427      0.0019
    129  CD1      -14.0190  -16.5500   69.7910 C.3   427  LEU427      0.0001
    130  CD2      -16.2510  -17.6290   69.3670 C.3   427  LEU427      0.0001
    131  N        -19.3960  -13.1850   57.8890 N.3   465  TYR465     -0.1241
    132  CA       -17.9360  -13.1530   57.8690 C.3   465  TYR465      0.1605
    133  C        -17.2420  -13.8080   56.6770 C.2   465  TYR465      0.2264
    134  O        -16.0380  -13.6770   56.5290 O.2   465  TYR465     -0.2867
    135  CB       -17.4000  -13.8370   59.1030 C.3   465  TYR465      0.0534
    136  CG       -17.4790  -13.0320   60.3890 C.ar  465  TYR465     -0.0201
    137  CD1      -16.5310  -12.0400   60.6810 C.ar  465  TYR465     -0.0009
    138  CD2      -18.4700  -13.2940   61.3240 C.ar  465  TYR465     -0.0009
    139  CE1      -16.5640  -11.3320   61.8660 C.ar  465  TYR465      0.0417
    140  CE2      -18.5200  -12.5990   62.5240 C.ar  465  TYR465      0.0417
    141  CZ       -17.5570  -11.6230   62.7870 C.ar  465  TYR465      0.1957
    142  OH       -17.6120  -10.9150   63.9580 O.3   465  TYR465     -0.2866
    143  N        -15.4230  -11.6410   52.6610 N.3   468  MET468     -0.1245
    144  CA       -14.4340  -10.5980   52.7930 C.3   468  MET468      0.1570
    145  C        -14.1170   -9.9830   51.4240 C.2   468  MET468      0.2261
    146  O        -14.2880   -8.7660   51.2750 O.2   468  MET468     -0.2867
    147  CB       -13.2050  -11.0690   53.5780 C.3   468  MET468      0.0387
    148  CG       -13.4570  -11.3480   55.0690 C.3   468  MET468      0.0595
    149  SD       -14.4730  -10.1590   56.0450 S.3   468  MET468     -0.1393
    150  CE       -14.3820  -10.8720   57.7020 C.3   468  MET468      0.0692
    151  N        -12.9720   -5.4010   70.8000 N.3   497  VAL497     -0.1231
    152  CA       -12.9270   -5.9270   69.4400 C.3   497  VAL497      0.1692
    153  C        -13.1520   -4.7500   68.4570 C.2   497  VAL497      0.2591
    154  O        -12.3620   -4.5580   67.4910 O.2   497  VAL497     -0.2718
    155  CB       -13.9630   -7.0550   69.2510 C.3   497  VAL497      0.0266
    156  CG1      -13.9340   -7.5810   67.8380 C.3   497  VAL497      0.0020
    157  CG2      -13.6980   -8.1740   70.2480 C.3   497  VAL497      0.0020
    158  N        -14.2190   -3.9750   68.7120 N.am  498  LEU498     -0.1980
    159  CA       -14.4730   -2.7330   67.9920 C.3   498  LEU498      0.1596
    160  C        -14.0990   -1.5840   68.9230 C.2   498  LEU498      0.2287
    161  O        -14.9680   -0.9680   69.5400 O.2   498  LEU498     -0.2864
    162  CB       -15.9520   -2.6180   67.5400 C.3   498  LEU498      0.0297
    163  CG       -16.4710   -3.8210   66.7260 C.3   498  LEU498      0.0022
    164  CD1      -17.9880   -3.8280   66.5450 C.3   498  LEU498      0.0001
    165  CD2      -15.7430   -3.9970   65.3820 C.3   498  LEU498      0.0001
    166  N        -18.8060   -4.9320   74.5960 N.3   523  HIS523     -0.1226
    167  CA       -19.2340   -5.1020   73.2090 C.3   523  HIS523      0.1752
    168  C        -20.7480   -5.1940   73.0140 C.2   523  HIS523      0.2596
    169  O        -21.2560   -4.7760   71.9710 O.2   523  HIS523     -0.2718
    170  CB       -18.5550   -6.2870   72.5520 C.3   523  HIS523      0.0759
    171  CG       -19.1240   -6.6190   71.2140 C.ar  523  HIS523      0.0818
    172  ND1      -18.8180   -5.8940   70.0730 N.ar  523  HIS523     -0.2268
    173  CD2      -20.0230   -7.5660   70.8340 C.ar  523  HIS523      0.1154
    174  CE1      -19.4780   -6.4080   69.0490 C.ar  523  HIS523      0.1986
    175  NE2      -20.2210   -7.4200   69.4800 N.ar  523  HIS523     -0.2212
    176  N        -21.4510   -5.7220   74.0110 N.am  524  TRP524     -0.1976
    177  CA       -22.9010   -5.9170   73.9360 C.3   524  TRP524      0.1640
    178  C        -23.6240   -4.6480   74.3680 C.2   524  TRP524      0.2290
    179  O        -24.3640   -4.6520   75.3110 O.2   524  TRP524     -0.2864
    180  CB       -23.2860   -7.1400   74.7840 C.3   524  TRP524      0.0576
    181  CG       -22.3000   -8.2290   74.4650 C.ar  524  TRP524      0.0006
    182  CD1      -21.2280   -8.6210   75.2310 C.ar  524  TRP524      0.0946
    183  CD2      -22.2310   -9.0150   73.2530 C.ar  524  TRP524      0.0152
    184  NE1      -20.5160   -9.6000   74.5860 N.ar  524  TRP524     -0.2442
    185  CE2      -21.1080   -9.8820   73.3880 C.ar  524  TRP524      0.0810
    186  CE3      -23.0280   -9.1020   72.0850 C.ar  524  TRP524      0.0012
    187  CZ2      -20.7370  -10.7840   72.3900 C.ar  524  TRP524      0.0191
    188  CZ3      -22.6720  -10.0160   71.1050 C.ar  524  TRP524      0.0001
    189  CH2      -21.5270  -10.8440   71.2620 C.ar  524  TRP524      0.0015
@<TRIPOS>BOND
     1   146   145    2
     2   145   144    1
     3   143   144    1
     4   144   147    1
     5   147   148    1
     6   148   149    1
     7   149   150    1
     8   134   133    2
     9   133   132    1
    10    44    43    2
    11    46    47    1
    12    46    45    1
    13    39    40   ar
    14    39    37   ar
    15    48    47    1
    16    40    38   ar
    17    43    42    1
    18   132   131    1
    19   132   135    1
    20    37    34   ar
    21    45    42    1
    22    38    36   ar
    23    42    41    1
    24   135   136    1
    25    91    90    2
    26    90    89    1
    27    34    36   ar
    28    34    32   ar
    29    36    35   ar
    30    30    29    2
    31    82    81    2
    32   136   137   ar
    33   136   138   ar
    34    87    85   am
    35   137   139   ar
    36    32    31    1
    37    32    33   ar
    38    35    33   ar
    39    81    80    1
    40    89    92    1
    41    89    88    1
    42    29    28    1
    43   138   140   ar
    44    31    28    1
    45    92    93    1
    46    83    80    1
    47    83    84    1
    48    28    27    1
    49    85    84    1
    50    85    86    2
    51   139   141   ar
    52    80    79    1
    53    63    65   ar
    54    63    61   ar
    55    65    66   ar
    56    55    53    1
    57   140   141   ar
    58   141   142    1
    59    93    95   ar
    60    93    94   ar
    61    22    21    2
    62    95    97   ar
    63    59    58    2
    64    27    21   am
    65    60    61    1
    66    60    57    1
    67    52    51    2
    68    61    62   ar
    69    66    64   ar
    70    79    69   am
    71    53    54    1
    72    53    50    1
    73    51    50    1
    74    21    20    1
    75     8    10   ar
    76     8     6   ar
    77    70    69    2
    78    94    96   ar
    79    10    11   ar
    80    69    68    1
    81    58    57    1
    82    50    49    1
    83    62    64   ar
    84    97    98   ar
    85     5     6    1
    86     5     2    1
    87    57    56    1
    88    78    77    1
    89     6     7   ar
    90    75    77   ar
    91    75    73   ar
    92    11     9   ar
    93    26    24   ar
    94    96    98   ar
    95    77    76   ar
    96    20    19    1
    97    20    23    1
    98     1     2    1
    99     2     3    1
   100    73    72   ar
   101   165   163    1
   102    67    68    1
   103    68    71    1
   104     7     9   ar
   105    24    23    1
   106    24    25   ar
   107    76    74   ar
   108    72    74   ar
   109    72    71    1
   110   164   163    1
   111   163   162    1
   112    13    16    1
   113    13    12    1
   114    13    14    1
   115     3    12   am
   116     3     4    2
   117    16    17    1
   118    12    18    1
   119   154   153    2
   120   162   159    1
   121    14    15    2
   122   156   155    1
   123   159   158    1
   124   159   160    1
   125    17    18    1
   126   153   158   am
   127   153   152    1
   128   160   161    2
   129   174   175   ar
   130   174   172   ar
   131   155   152    1
   132   155   157    1
   133   130   128    1
   134   118   117    2
   135   152   151    1
   136   175   173   ar
   137   129   128    1
   138   123   124    1
   139   127   128    1
   140   127   124    1
   141   172   171   ar
   142   119   120    1
   143   119   116    1
   144   121   120    1
   145   121   122    1
   146   117   116    1
   147   124   125    1
   148   173   171   ar
   149   188   189   ar
   150   188   186   ar
   151   116   115    1
   152   171   170    1
   153   189   187   ar
   154   105   104    1
   155   106   104    1
   156   169   168    2
   157   186   183   ar
   158   125   126    2
   159   104   103    1
   160   187   185   ar
   161   170   167    1
   162   168   167    1
   163   168   176   am
   164   167   166    1
   165   183   185   ar
   166   183   181   ar
   167   103   100    1
   168   185   184   ar
   169   177   176    1
   170   177   178    1
   171   177   180    1
   172   114   112    1
   173   178   179    2
   174   181   180    1
   175   181   182   ar
   176   184   182   ar
   177   100   101    1
   178   100    99    1
   179   110   109    2
   180   101   102    2
   181   112   111    1
   182   112   113    1
   183   111   108    1
   184   109   108    1
   185   108   107    1
