@<TRIPOS>MOLECULE
tmp/4y30A01.pdb
 209 206 0 0 0
SMALL
GASTEIGER

@<TRIPOS>ATOM
      1  N         36.8840  -15.0270    1.1460 N.3     5  ARG5       -0.1245
      2  CA        37.3090  -16.2070    1.9270 C.3     5  ARG5        0.1563
      3  C         38.8310  -16.3660    1.9610 C.2     5  ARG5        0.2260
      4  O         39.4020  -16.6930    3.0050 O.2     5  ARG5       -0.2867
      5  CB        36.6170  -17.5030    1.4820 C.3     5  ARG5        0.0307
      6  CG        36.7780  -17.9110    0.0370 C.3     5  ARG5        0.0489
      7  CD        36.1930  -19.3040   -0.1250 C.3     5  ARG5        0.2205
      8  NE        35.6810  -19.5250   -1.4750 N.pl3   5  ARG5       -0.0865
      9  CZ        34.3850  -19.5290   -1.7940 C.cat   5  ARG5        0.5346
     10  NH1       33.4490  -19.3300   -0.8660 N.pl3   5  ARG5        0.1354
     11  NH2       34.0230  -19.7330   -3.0510 N.pl3   5  ARG5        0.1354
     12  N         40.2780  -13.8790    4.5770 N.3     8  LEU8       -0.1231
     13  CA        40.1630  -14.2970    5.9580 C.3     8  LEU8        0.1693
     14  C         41.1790  -15.3940    6.2450 C.2     8  LEU8        0.2592
     15  O         41.6860  -15.4760    7.3610 O.2     8  LEU8       -0.2718
     16  CB        38.7280  -14.7550    6.3030 C.3     8  LEU8        0.0284
     17  CG        37.6550  -13.6930    6.7190 C.3     8  LEU8        0.0019
     18  CD1       36.3730  -14.2720    7.3220 C.3     8  LEU8        0.0001
     19  CD2       38.2060  -12.6500    7.6860 C.3     8  LEU8        0.0001
     20  N         41.4590  -16.2410    5.2580 N.am    9  TYR9       -0.1976
     21  CA        42.4520  -17.3230    5.4260 C.3     9  TYR9        0.1639
     22  C         43.8410  -16.7270    5.6400 C.2     9  TYR9        0.2290
     23  O         44.5040  -17.0310    6.6360 O.2     9  TYR9       -0.2864
     24  CB        42.4140  -18.2790    4.2250 C.3     9  TYR9        0.0560
     25  CG        43.4670  -19.3570    4.2050 C.ar    9  TYR9       -0.0198
     26  CD1       43.4610  -20.3960    5.1320 C.ar    9  TYR9       -0.0009
     27  CD2       44.4630  -19.3660    3.2240 C.ar    9  TYR9       -0.0009
     28  CE1       44.4370  -21.3830    5.1050 C.ar    9  TYR9        0.0417
     29  CE2       45.4430  -20.3590    3.1960 C.ar    9  TYR9        0.0417
     30  CZ        45.4340  -21.3590    4.1490 C.ar    9  TYR9        0.1957
     31  OH        46.3740  -22.3590    4.1200 O.3     9  TYR9       -0.2866
     32  N         44.8100  -15.0150    8.9380 N.3    12  CYS12      -0.1221
     33  CA        45.2510  -15.8670   10.0230 C.3    12  CYS12       0.1808
     34  C         46.7580  -15.9060   10.0260 C.2    12  CYS12       0.2601
     35  O         47.4070  -15.7190   11.0540 O.2    12  CYS12      -0.2717
     36  CB        44.7320  -17.2740    9.8250 C.3    12  CYS12       0.0970
     37  SG        45.3150  -18.3900   11.0980 S.3    12  CYS12      -0.0800
     38  N         47.3180  -16.1090    8.8390 N.am   13  TYR13      -0.1976
     39  CA        48.7540  -16.2330    8.7070 C.3    13  TYR13       0.1639
     40  C         49.4490  -14.8620    8.6970 C.2    13  TYR13       0.2290
     41  O         50.6700  -14.7940    8.6570 O.2    13  TYR13      -0.2864
     42  CB        49.1070  -17.0150    7.4570 C.3    13  TYR13       0.0560
     43  CG        48.8630  -18.4900    7.5830 C.ar   13  TYR13      -0.0198
     44  CD1       49.6790  -19.2740    8.3810 C.ar   13  TYR13      -0.0009
     45  CD2       47.7980  -19.1130    6.9280 C.ar   13  TYR13      -0.0009
     46  CE1       49.4780  -20.6290    8.4950 C.ar   13  TYR13       0.0417
     47  CE2       47.6060  -20.4760    7.0150 C.ar   13  TYR13       0.0417
     48  CZ        48.4540  -21.2310    7.8100 C.ar   13  TYR13       0.1957
     49  OH        48.2780  -22.5860    7.9350 O.3    13  TYR13      -0.2866
     50  N         50.1290  -18.0740   14.8960 N.3    18  VAL18      -0.1245
     51  CA        50.2150  -19.2790   14.1140 C.3    18  VAL18       0.1561
     52  C         51.6650  -19.6730   13.7900 C.2    18  VAL18       0.2260
     53  O         52.0250  -20.8540   13.8000 O.2    18  VAL18      -0.2867
     54  CB        49.3650  -19.0580   12.8560 C.3    18  VAL18       0.0252
     55  CG1       49.9290  -19.7630   11.6850 C.3    18  VAL18       0.0019
     56  CG2       47.9340  -19.5050   13.1610 C.3    18  VAL18       0.0019
     57  N         53.4130  -20.8580   16.9050 N.3    21  GLU21      -0.1231
     58  CA        52.9890  -22.2140   17.1670 C.3    21  GLU21       0.1699
     59  C         53.6970  -23.1960   16.2360 C.2    21  GLU21       0.2592
     60  O         54.1910  -24.2310   16.6810 O.2    21  GLU21      -0.2718
     61  CB        51.4680  -22.3330   17.0510 C.3    21  GLU21       0.0402
     62  CG        50.9710  -23.7270   17.3530 C.3    21  GLU21       0.1161
     63  CD        49.4500  -23.8430   17.4920 C.2    21  GLU21       0.3649
     64  OE1       48.7060  -22.8930   17.1550 O.co2  21  GLU21      -0.2457
     65  OE2       49.0150  -24.9330   17.9240 O.co2  21  GLU21      -0.2457
     66  N         53.7860  -22.8560   14.9620 N.am   22  MET22      -0.1979
     67  CA        54.4670  -23.7180   14.0020 C.3    22  MET22       0.1605
     68  C         55.9600  -23.8890   14.3170 C.2    22  MET22       0.2287
     69  O         56.5000  -24.9900   14.2480 O.2    22  MET22      -0.2864
     70  CB        54.3010  -23.1850   12.5710 C.3    22  MET22       0.0413
     71  CG        52.9680  -23.5200   11.9460 C.3    22  MET22       0.0598
     72  SD        52.7930  -23.0010   10.2200 S.3    22  MET22      -0.1393
     73  CE        52.8450  -21.2370   10.3580 C.3    22  MET22       0.0692
     74  N         55.5690  -26.6650    3.6850 N.3   117  GLU117     -0.1231
     75  CA        54.7810  -27.2020    4.7790 C.3   117  GLU117      0.1699
     76  C         53.3490  -26.7590    4.4920 C.2   117  GLU117      0.2592
     77  O         52.9610  -25.6220    4.7220 O.2   117  GLU117     -0.2718
     78  CB        55.3160  -26.7820    6.1510 C.3   117  GLU117      0.0402
     79  CG        54.7660  -27.6300    7.2930 C.3   117  GLU117      0.1161
     80  CD        53.4310  -27.1180    7.7770 C.2   117  GLU117      0.3649
     81  OE1       53.4190  -26.2460    8.7080 O.co2 117  GLU117     -0.2457
     82  OE2       52.4000  -27.5280    7.1970 O.co2 117  GLU117     -0.2457
     83  N         52.6030  -27.7000    3.9640 N.am  118  TRP118     -0.1962
     84  CA        51.2670  -27.4770    3.4050 C.3   118  TRP118      0.1771
     85  C         50.1710  -28.2020    4.1720 C.2   118  TRP118      0.2620
     86  O         49.0140  -28.1210    3.8040 O.2   118  TRP118     -0.2715
     87  CB        51.2470  -27.9580    1.9560 C.3   118  TRP118      0.0590
     88  CG        51.7840  -29.3430    1.7820 C.ar  118  TRP118      0.0006
     89  CD1       53.0620  -29.6930    1.4650 C.ar  118  TRP118      0.0946
     90  CD2       51.0490  -30.5630    1.8760 C.ar  118  TRP118      0.0152
     91  NE1       53.1730  -31.0600    1.3730 N.ar  118  TRP118     -0.2442
     92  CE2       51.9440  -31.6090    1.6240 C.ar  118  TRP118      0.0810
     93  CE3       49.7140  -30.8720    2.1410 C.ar  118  TRP118      0.0012
     94  CZ2       51.5520  -32.9450    1.6540 C.ar  118  TRP118      0.0191
     95  CZ3       49.3290  -32.2020    2.1490 C.ar  118  TRP118      0.0001
     96  CH2       50.2370  -33.2140    1.9120 C.ar  118  TRP118      0.0015
     97  N         50.5370  -28.9240    5.2270 N.am  119  MET119     -0.1963
     98  CA        49.6370  -29.8550    5.8600 C.3   119  MET119      0.1736
     99  C         48.7570  -29.1710    6.8970 C.2   119  MET119      0.2617
    100  O         49.2490  -28.4550    7.7750 O.2   119  MET119     -0.2715
    101  CB        50.4290  -30.9770    6.5240 C.3   119  MET119      0.0427
    102  CG        51.2720  -31.8010    5.5630 C.3   119  MET119      0.0599
    103  SD        52.9110  -31.1250    5.2510 S.3   119  MET119     -0.1393
    104  CE        53.7660  -31.5700    6.7690 C.3   119  MET119      0.0692
    105  N         47.4550  -29.4270    6.8020 N.am  120  GLY120     -0.1940
    106  CA        46.5150  -28.9470    7.7950 C.3   120  GLY120      0.2014
    107  C         46.1130  -30.0270    8.7850 C.2   120  GLY120      0.2638
    108  O         46.5660  -31.1620    8.6800 O.2   120  GLY120     -0.2714
    109  N         45.2330  -29.6730    9.7210 N.am  121  TYR121     -0.1973
    110  CA        44.6200  -30.6730   10.5720 C.3   121  TYR121      0.1639
    111  C         44.0070  -31.7340    9.6630 C.2   121  TYR121      0.2290
    112  O         43.4630  -31.4220    8.5940 O.2   121  TYR121     -0.2864
    113  CB        43.5530  -30.1070   11.4920 C.3   121  TYR121      0.0560
    114  CG        44.0100  -28.9820   12.4050 C.ar  121  TYR121     -0.0198
    115  CD1       45.1440  -29.1230   13.1930 C.ar  121  TYR121     -0.0009
    116  CD2       43.2810  -27.8030   12.5100 C.ar  121  TYR121     -0.0009
    117  CE1       45.5580  -28.1160   14.0410 C.ar  121  TYR121      0.0417
    118  CE2       43.6830  -26.7700   13.3620 C.ar  121  TYR121      0.0417
    119  CZ        44.8280  -26.9310   14.1170 C.ar  121  TYR121      0.1957
    120  OH        45.2460  -25.9590   14.9820 O.3   121  TYR121     -0.2866
    121  N         42.8380  -30.3200    5.7500 N.3   125  HIS125     -0.1226
    122  CA        42.2120  -29.0680    6.1520 C.3   125  HIS125      0.1752
    123  C         43.0960  -27.9200    5.6510 C.2   125  HIS125      0.2595
    124  O         44.3150  -28.0460    5.6080 O.2   125  HIS125     -0.2718
    125  CB        42.0060  -29.0300    7.6690 C.3   125  HIS125      0.0759
    126  CG        41.3050  -27.8060    8.1710 C.ar  125  HIS125      0.0818
    127  ND1       40.0230  -27.4820    7.8040 N.ar  125  HIS125     -0.2268
    128  CD2       41.7060  -26.8310    9.0250 C.ar  125  HIS125      0.1154
    129  CE1       39.6740  -26.3350    8.3680 C.ar  125  HIS125      0.1986
    130  NE2       40.6700  -25.9390    9.1400 N.ar  125  HIS125     -0.2212
    131  N         42.4560  -26.8340    5.2230 N.am  126  GLU126     -0.1979
    132  CA        43.0860  -25.6880    4.5600 C.3   126  GLU126      0.1602
    133  C         43.2220  -25.8470    3.0250 C.2   126  GLU126      0.2287
    134  O         43.3330  -24.8620    2.3070 O.2   126  GLU126     -0.2864
    135  CB        44.4570  -25.3310    5.1580 C.3   126  GLU126      0.0415
    136  CG        44.4690  -25.0100    6.6450 C.3   126  GLU126      0.1163
    137  CD        45.8520  -24.5710    7.1420 C.2   126  GLU126      0.3649
    138  OE1       46.3290  -25.1480    8.1520 O.co2 126  GLU126     -0.2457
    139  OE2       46.4570  -23.6590    6.5110 O.co2 126  GLU126     -0.2457
    140  N         45.6350  -26.7360    1.1220 N.3   128  MET128     -0.1245
    141  CA        46.8360  -26.1500    0.5410 C.3   128  MET128      0.1570
    142  C         47.5370  -27.0610   -0.4590 C.2   128  MET128      0.2261
    143  O         48.3090  -26.5810   -1.2930 O.2   128  MET128     -0.2867
    144  CB        47.8130  -25.7620    1.6420 C.3   128  MET128      0.0387
    145  CG        49.0150  -24.9600    1.1560 C.3   128  MET128      0.0595
    146  SD        49.8790  -24.1880    2.5240 S.3   128  MET128     -0.1393
    147  CE        51.4050  -23.7600    1.6940 C.3   128  MET128      0.0692
    148  N         51.7540  -29.8870   16.8140 N.3   279  HIS279     -0.1226
    149  CA        50.6830  -28.9370   16.9740 C.3   279  HIS279      0.1752
    150  C         49.4610  -29.4020   16.1660 C.2   279  HIS279      0.2596
    151  O         48.3640  -28.8580   16.3290 O.2   279  HIS279     -0.2718
    152  CB        51.1310  -27.5290   16.5880 C.3   279  HIS279      0.0759
    153  CG        51.0940  -27.2660   15.1160 C.ar  279  HIS279      0.0818
    154  ND1       52.0580  -27.7370   14.2530 N.ar  279  HIS279     -0.2268
    155  CD2       50.2090  -26.5890   14.3520 C.ar  279  HIS279      0.1154
    156  CE1       51.7760  -27.3540   13.0210 C.ar  279  HIS279      0.1986
    157  NE2       50.6560  -26.6620   13.0530 N.ar  279  HIS279     -0.2212
    158  N         49.6390  -30.4030   15.2970 N.am  280  TRP280     -0.1976
    159  CA        48.4850  -30.9970   14.5840 C.3   280  TRP280      0.1640
    160  C         47.6580  -31.9260   15.4730 C.2   280  TRP280      0.2290
    161  O         46.5120  -32.2350   15.1500 O.2   280  TRP280     -0.2864
    162  CB        48.9540  -31.7890   13.3630 C.3   280  TRP280      0.0576
    163  CG        49.3740  -30.9570   12.2190 C.ar  280  TRP280      0.0006
    164  CD1       48.5610  -30.3210   11.3650 C.ar  280  TRP280      0.0946
    165  CD2       50.7080  -30.7210   11.7660 C.ar  280  TRP280      0.0152
    166  NE1       49.2900  -29.6620   10.4270 N.ar  280  TRP280     -0.2442
    167  CE2       50.6150  -29.8980   10.6370 C.ar  280  TRP280      0.0810
    168  CE3       51.9780  -31.1250   12.2090 C.ar  280  TRP280      0.0012
    169  CZ2       51.7430  -29.4710    9.9170 C.ar  280  TRP280      0.0191
    170  CZ3       53.0920  -30.7000   11.5070 C.ar  280  TRP280      0.0001
    171  CH2       52.9670  -29.8870   10.3610 C.ar  280  TRP280      0.0015
    172  N         32.7430  -23.9490    1.8300 N.3   311  ASN311     -0.1240
    173  CA        34.1120  -23.4530    1.9980 C.3   311  ASN311      0.1653
    174  C         35.1480  -24.5280    1.6340 C.2   311  ASN311      0.2266
    175  O         35.4000  -25.4540    2.4070 O.2   311  ASN311     -0.2867
    176  CB        34.3500  -22.9770    3.4160 C.3   311  ASN311      0.1155
    177  CG        35.7640  -22.4470    3.6190 C.2   311  ASN311      0.2627
    178  OD1       36.5350  -22.2440    2.6590 O.2   311  ASN311     -0.2716
    179  ND2       36.1260  -22.2460    4.8780 N.am  311  ASN311     -0.0877
    180  N         38.2870  -24.6040    1.7010 N.3   313  ARG313     -0.1231
    181  CA        39.3920  -24.7670    2.6280 C.3   313  ARG313      0.1694
    182  C         39.0190  -25.5040    3.9260 C.2   313  ARG313      0.2591
    183  O         39.9000  -25.7680    4.7250 O.2   313  ARG313     -0.2718
    184  CB        40.0280  -23.4040    2.9290 C.3   313  ARG313      0.0321
    185  CG        40.7260  -22.8220    1.7130 C.3   313  ARG313      0.0489
    186  CD        41.7680  -21.8180    2.1340 C.3   313  ARG313      0.2205
    187  NE        42.3720  -21.0760    1.0250 N.pl3 313  ARG313     -0.0865
    188  CZ        43.4080  -21.4840    0.3060 C.cat 313  ARG313      0.5346
    189  NH1       43.8750  -20.7050   -0.6610 N.pl3 313  ARG313      0.1354
    190  NH2       43.9980  -22.6540    0.5550 N.pl3 313  ARG313      0.1354
    191  N         37.7330  -25.7850    4.1380 N.am  314  ARG314     -0.1980
    192  CA        37.2690  -26.4910    5.3170 C.3   314  ARG314      0.1597
    193  C         37.1410  -27.9800    5.0480 C.2   314  ARG314      0.2287
    194  O         36.4220  -28.3920    4.1530 O.2   314  ARG314     -0.2864
    195  CB        35.9180  -25.9430    5.7880 C.3   314  ARG314      0.0334
    196  CG        35.4380  -26.5280    7.1100 C.3   314  ARG314      0.0492
    197  CD        34.1220  -25.8840    7.5480 C.3   314  ARG314      0.2205
    198  NE        33.7570  -26.3020    8.9080 N.pl3 314  ARG314     -0.0865
    199  CZ        32.5110  -26.3140    9.4060 C.cat 314  ARG314      0.5346
    200  NH1       31.4810  -25.9390    8.6550 N.pl3 314  ARG314      0.1354
    201  NH2       32.2880  -26.7160   10.6700 N.pl3 314  ARG314      0.1354
    202  N         35.3630  -24.8900   13.8720 N.3   337  ASP337     -0.1239
    203  CA        35.9290  -23.5420   13.7080 C.3   337  ASP337      0.1674
    204  C         37.1410  -23.3740   14.6320 C.2   337  ASP337      0.2266
    205  O         37.2220  -24.0020   15.6970 O.2   337  ASP337     -0.2867
    206  CB        34.8820  -22.4720   14.0310 C.3   337  ASP337      0.1410
    207  CG        33.6400  -22.5810   13.1510 C.2   337  ASP337      0.3668
    208  OD1       33.7670  -22.5680   11.9110 O.co2 337  ASP337     -0.2456
    209  OD2       32.5310  -22.6960   13.7070 O.co2 337  ASP337     -0.2456
@<TRIPOS>BOND
     1    11     9    1
     2     9     8    2
     3     9    10    1
     4     8     7    1
     5   143   142    2
     6   189   188    1
     7   142   141    1
     8     7     6    1
     9     6     5    1
    10   188   190    1
    11   188   187    2
    12   141   140    1
    13   141   144    1
    14   187   186    1
    15     1     2    1
    16   145   144    1
    17   145   146    1
    18    91    89   ar
    19    91    92   ar
    20    89    88   ar
    21     5     2    1
    22    92    94   ar
    23    92    90   ar
    24   174   173    1
    25   174   175    2
    26    94    96   ar
    27   147   146    1
    28   180   181    1
    29   185   186    1
    30   185   184    1
    31    88    90   ar
    32    88    87    1
    33   172   173    1
    34    90    93   ar
    35    96    95   ar
    36     2     3    1
    37    87    84    1
    38     3     4    2
    39   173   176    1
    40    93    95   ar
    41   134   133    2
    42   181   184    1
    43   181   182    1
    44   178   177    2
    45   133   132    1
    46    29    27   ar
    47    29    30   ar
    48    27    25   ar
    49    84    83    1
    50    84    85    1
    51   176   177    1
    52   177   179   am
    53    74    75    1
    54    86    85    2
    55   182   191   am
    56   182   183    2
    57    83    76   am
    58    31    30    1
    59   191   192    1
    60    30    28   ar
    61   194   193    2
    62    85    97   am
    63    25    24    1
    64    25    26   ar
    65    24    21    1
    66    76    77    2
    67    76    75    1
    68   132   135    1
    69   132   131    1
    70    12    13    1
    71    75    78    1
    72   193   192    1
    73    28    26   ar
    74   135   136    1
    75   131   123   am
    76    97    98    1
    77   103   102    1
    78   103   104    1
    79    20    21    1
    80    20    14   am
    81   192   195    1
    82    21    22    1
    83   102   101    1
    84   124   123    2
    85    22    23    2
    86   123   122    1
    87   121   122    1
    88   195   196    1
    89    98   101    1
    90    98    99    1
    91    13    14    1
    92    13    16    1
    93    78    79    1
    94   122   125    1
    95    14    15    2
    96    16    17    1
    97   139   137   ar
    98   136   137    1
    99    17    18    1
   100    17    19    1
   101   105    99   am
   102   105   106    1
   103    99   100    2
   104    45    47   ar
   105    45    43   ar
   106    47    48   ar
   107   196   197    1
   108   137   138   ar
   109    82    80   ar
   110    79    80    1
   111    42    43    1
   112    42    39    1
   113   197   198    1
   114    43    44   ar
   115   125   126    1
   116    80    81   ar
   117   106   107    1
   118   127   126   ar
   119   127   129   ar
   120    48    49    1
   121    48    46   ar
   122   126   128   ar
   123   129   130   ar
   124    44    46   ar
   125   112   111    2
   126   200   199    1
   127    41    40    2
   128   108   107    2
   129    40    39    1
   130    39    38    1
   131   107   109   am
   132    38    34   am
   133   198   199    2
   134    32    33    1
   135   128   130   ar
   136   199   201    1
   137   111   110    1
   138   109   110    1
   139    36    33    1
   140    36    37    1
   141   169   171   ar
   142   169   167   ar
   143    33    34    1
   144    34    35    2
   145    72    73    1
   146    72    71    1
   147   171   170   ar
   148   166   167   ar
   149   166   164   ar
   150   110   113    1
   151   167   165   ar
   152   164   163   ar
   153   113   114    1
   154   170   168   ar
   155    55    54    1
   156   165   168   ar
   157   165   163   ar
   158   208   207   ar
   159    71    70    1
   160   163   162    1
   161   114   116   ar
   162   114   115   ar
   163   116   118   ar
   164    70    67    1
   165    54    56    1
   166    54    51    1
   167   156   157   ar
   168   156   154   ar
   169   157   155   ar
   170   207   209   ar
   171   207   206    1
   172   115   117   ar
   173   118   119   ar
   174   162   159    1
   175   203   202    1
   176   203   206    1
   177   203   204    1
   178    52    53    2
   179    52    51    1
   180    67    68    1
   181    67    66    1
   182   117   119   ar
   183    51    50    1
   184   119   120    1
   185    69    68    2
   186   154   153   ar
   187   155   153   ar
   188   159   158    1
   189   159   160    1
   190   204   205    2
   191    66    59   am
   192   153   152    1
   193   161   160    2
   194   158   150   am
   195   150   151    2
   196   150   149    1
   197    59    60    2
   198    59    58    1
   199   152   149    1
   200   148   149    1
   201    57    58    1
   202    61    58    1
   203    61    62    1
   204    64    63   ar
   205    62    63    1
   206    63    65   ar
