@<TRIPOS>MOLECULE
tmp/4y35A00.pdb
 100 93 0 0 0
SMALL
GASTEIGER

@<TRIPOS>ATOM
      1  N          5.3280   -0.6500    9.8830 N.3    35  ASP35      -0.1239
      2  CA         4.9780    0.7400    9.6360 C.3    35  ASP35       0.1674
      3  C          6.2080    1.6310    9.6850 C.2    35  ASP35       0.2266
      4  O          6.6640    1.9830   10.7680 O.2    35  ASP35      -0.2867
      5  CB         3.9570    1.1800   10.6980 C.3    35  ASP35       0.1410
      6  CG         3.5070    2.6230   10.5440 C.2    35  ASP35       0.3668
      7  OD1        3.8040    3.2470    9.5180 O.co2  35  ASP35      -0.2456
      8  OD2        2.8270    3.1250   11.4730 O.co2  35  ASP35      -0.2456
      9  N          6.3650    4.6150    9.1180 N.3    37  GLY37      -0.1210
     10  CA         5.9450    5.9280    9.5550 C.3    37  GLY37       0.1956
     11  C          5.6580    6.0860   11.0450 C.2    37  GLY37       0.2612
     12  O          5.1790    7.1440   11.4660 O.2    37  GLY37      -0.2717
     13  N          5.9610    5.0690   11.8490 N.am   38  SER38      -0.1952
     14  CA         5.8550    5.1870   13.3090 C.3    38  SER38       0.1924
     15  C          6.8980    4.3030   13.9590 C.2    38  SER38       0.2314
     16  O          7.6250    3.5910   13.2650 O.2    38  SER38      -0.2863
     17  CB         4.4400    4.8390   13.7940 C.3    38  SER38       0.2116
     18  OG         4.2000    3.4590   13.6740 O.3    38  SER38      -0.2180
     19  N         -2.7150    7.8990   14.9130 N.3    79  TYR79      -0.1227
     20  CA        -2.2740    7.6680   13.5460 C.3    79  TYR79       0.1736
     21  C         -2.9410    8.6420   12.5900 C.2    79  TYR79       0.2596
     22  O         -3.8170    9.4090   12.9870 O.2    79  TYR79      -0.2718
     23  CB        -2.5460    6.2130   13.1720 C.3    79  TYR79       0.0548
     24  CG        -1.7180    5.2530   13.9950 C.ar   79  TYR79      -0.0200
     25  CD1       -2.2220    4.6590   15.1410 C.ar   79  TYR79      -0.0009
     26  CD2       -0.4120    4.9610   13.6290 C.ar   79  TYR79      -0.0009
     27  CE1       -1.4510    3.7870   15.8830 C.ar   79  TYR79       0.0417
     28  CE2        0.3650    4.1020   14.3730 C.ar   79  TYR79       0.0417
     29  CZ        -0.1610    3.5130   15.4920 C.ar   79  TYR79       0.1957
     30  OH         0.6330    2.6590   16.2270 O.3    79  TYR79      -0.2866
     31  N         -2.4900    8.6210   11.3390 N.am   80  GLY80      -0.1957
     32  CA        -2.8960    9.6030   10.3490 C.3    80  GLY80       0.1869
     33  C         -4.3770    9.5820   10.0380 C.2    80  GLY80       0.2309
     34  O         -4.9180   10.5750    9.5470 O.2    80  GLY80      -0.2863
     35  N         11.1100   10.6470   10.6170 N.3   194  PHE194     -0.1241
     36  CA        10.6280    9.8250    9.5100 C.3   194  PHE194      0.1605
     37  C         11.7370    9.5460    8.5010 C.2   194  PHE194      0.2264
     38  O         12.7840   10.1810    8.5230 O.2   194  PHE194     -0.2867
     39  CB         9.4890   10.5370    8.7640 C.3   194  PHE194      0.0534
     40  CG         8.3000   10.8590    9.6150 C.ar  194  PHE194     -0.0203
     41  CD1        8.0340   12.1630    9.9730 C.ar  194  PHE194     -0.0042
     42  CD2        7.4410    9.8660   10.0320 C.ar  194  PHE194     -0.0042
     43  CE1        6.9400   12.4720   10.7460 C.ar  194  PHE194     -0.0003
     44  CE2        6.3370   10.1620   10.8010 C.ar  194  PHE194     -0.0003
     45  CZ         6.0850   11.4700   11.1640 C.ar  194  PHE194     -0.0000
     46  N          7.5430   11.4010    2.8980 N.3   217  ILE217     -0.1245
     47  CA         8.0420   10.3030    3.7160 C.3   217  ILE217      0.1561
     48  C          7.7580    8.9630    3.0480 C.2   217  ILE217      0.2260
     49  O          6.7420    8.8050    2.3810 O.2   217  ILE217     -0.2867
     50  CB         7.4790   10.3500    5.1550 C.3   217  ILE217      0.0252
     51  CG1        5.9610   10.1210    5.1860 C.3   217  ILE217      0.0019
     52  CG2        7.8980   11.6710    5.8480 C.3   217  ILE217      0.0019
     53  CD1        5.4200    9.9080    6.5900 C.3   217  ILE217      0.0001
     54  N          6.4830    5.6060    3.6740 N.3   219  ASP219     -0.1239
     55  CA         5.6160    5.1450    4.7640 C.3   219  ASP219      0.1674
     56  C          4.8350    3.8920    4.4010 C.2   219  ASP219      0.2266
     57  O          3.7760    3.9580    3.7530 O.2   219  ASP219     -0.2867
     58  CB         4.6660    6.2750    5.1690 C.3   219  ASP219      0.1410
     59  CG         3.8150    5.9290    6.3630 C.2   219  ASP219      0.3668
     60  OD1        2.9940    6.7830    6.7420 O.co2 219  ASP219     -0.2456
     61  OD2        3.9720    4.8350    6.9430 O.co2 219  ASP219     -0.2456
     62  N          3.1250    2.1870    6.3030 N.3   221  GLY221     -0.1210
     63  CA         1.8950    2.1300    7.0740 C.3   221  GLY221      0.1956
     64  C          0.7660    3.0170    6.5720 C.2   221  GLY221      0.2612
     65  O         -0.2970    3.0970    7.1980 O.2   221  GLY221     -0.2717
     66  N          0.9920    3.6900    5.4510 N.am  222  THR222     -0.1952
     67  CA        -0.0370    4.4560    4.7700 C.3   222  THR222      0.1897
     68  C         -0.3790    3.7460    3.4630 C.2   222  THR222      0.2313
     69  O          0.5130    3.3370    2.7130 O.2   222  THR222     -0.2863
     70  CB         0.4330    5.8890    4.4990 C.3   222  THR222      0.1794
     71  OG1        0.5460    6.5910    5.7450 O.3   222  THR222     -0.2208
     72  CG2       -0.5550    6.6180    3.5800 C.3   222  THR222      0.0378
     73  N         -2.8290   17.6020    5.2240 N.3   300  ILE300     -0.1231
     74  CA        -2.0100   16.6690    6.0160 C.3   300  ILE300      0.1692
     75  C         -0.7860   17.3650    6.5960 C.2   300  ILE300      0.2593
     76  O         -0.4270   17.1270    7.7430 O.2   300  ILE300     -0.2718
     77  CB        -1.5230   15.4440    5.1900 C.3   300  ILE300      0.0266
     78  CG1       -2.7120   14.6510    4.6600 C.3   300  ILE300      0.0019
     79  CG2       -0.6120   14.5400    6.0610 C.3   300  ILE300      0.0020
     80  CD1       -2.3130   13.4920    3.7660 C.3   300  ILE300      0.0001
     81  N         -0.1390   18.2060    5.7970 N.am  301  GLY301     -0.1942
     82  CA         1.0650   18.8990    6.2140 C.3   301  GLY301      0.2014
     83  C          2.3450   18.2590    5.7080 C.2   301  GLY301      0.2638
     84  O          3.4270   18.8170    5.8880 O.2   301  GLY301     -0.2714
     85  N          2.2380   17.0870    5.0860 N.am  302  ILE302     -0.1977
     86  CA         3.4090   16.4060    4.5510 C.3   302  ILE302      0.1596
     87  C          2.9640   15.5170    3.3940 C.2   302  ILE302      0.2287
     88  O          1.8350   15.0420    3.3770 O.2   302  ILE302     -0.2864
     89  CB         4.1240   15.5700    5.6640 C.3   302  ILE302      0.0276
     90  CG1        5.5430   15.1670    5.2620 C.3   302  ILE302      0.0022
     91  CG2        3.3150   14.3520    6.0460 C.3   302  ILE302      0.0022
     92  CD1        6.4650   14.9450    6.4750 C.3   302  ILE302      0.0001
     93  N          3.1780   11.9410    1.4040 N.3   304  ILE304     -0.1245
     94  CA         3.3720   10.5710    1.8890 C.3   304  ILE304      0.1561
     95  C          3.4500    9.6010    0.7340 C.2   304  ILE304      0.2260
     96  O          2.4700    9.4020   -0.0050 O.2   304  ILE304     -0.2867
     97  CB         2.2560   10.1030    2.8460 C.3   304  ILE304      0.0252
     98  CG1        2.0570   11.0930    4.0030 C.3   304  ILE304      0.0019
     99  CG2        2.6010    8.7140    3.3900 C.3   304  ILE304      0.0019
    100  CD1        0.8510   10.7610    4.8930 C.3   304  ILE304      0.0001
@<TRIPOS>BOND
     1    96    95    2
     2    95    94    1
     3    93    94    1
     4    94    97    1
     5    49    48    2
     6    69    68    2
     7    97    99    1
     8    97    98    1
     9    46    47    1
    10    48    47    1
    11    88    87    2
    12    87    86    1
    13    68    67    1
    14    72    70    1
    15    54    55    1
    16    47    50    1
    17    57    56    2
    18    80    78    1
    19    98   100    1
    20    56    55    1
    21    70    67    1
    22    70    71    1
    23    86    85    1
    24    86    89    1
    25    78    77    1
    26    55    58    1
    27    67    66    1
    28    85    83   am
    29    50    51    1
    30    50    52    1
    31    58    59    1
    32    51    53    1
    33    77    74    1
    34    77    79    1
    35    73    74    1
    36    90    89    1
    37    90    92    1
    38    66    64   am
    39    89    91    1
    40    83    84    2
    41    83    82    1
    42    81    82    1
    43    81    75   am
    44    74    75    1
    45    62    63    1
    46    59    60   ar
    47    59    61   ar
    48    64    63    1
    49    64    65    2
    50    75    76    2
    51    37    38    2
    52    37    36    1
    53    39    36    1
    54    39    40    1
    55     9    10    1
    56    36    35    1
    57     7     6   ar
    58    34    33    2
    59    10    11    1
    60    40    41   ar
    61    40    42   ar
    62     2     3    1
    63     2     1    1
    64     2     5    1
    65     3     4    2
    66    41    43   ar
    67    42    44   ar
    68    33    32    1
    69    32    31    1
    70     6     5    1
    71     6     8   ar
    72    43    45   ar
    73    44    45   ar
    74    11    12    2
    75    11    13   am
    76    31    21   am
    77    13    14    1
    78    21    22    2
    79    21    20    1
    80    23    20    1
    81    23    24    1
    82    16    15    2
    83    14    17    1
    84    14    15    1
    85    20    19    1
    86    26    24   ar
    87    26    28   ar
    88    18    17    1
    89    24    25   ar
    90    28    29   ar
    91    25    27   ar
    92    29    27   ar
    93    29    30    1
