@<TRIPOS>MOLECULE
tmp/4y36A01.pdb
 102 94 0 0 0
SMALL
GASTEIGER

@<TRIPOS>ATOM
      1  N          5.4390   -0.6860    9.7350 N.3    35  ASP35      -0.1239
      2  CA         5.0980    0.6860    9.4440 C.3    35  ASP35       0.1674
      3  C          6.3460    1.5820    9.5000 C.2    35  ASP35       0.2266
      4  O          6.8070    1.9530   10.5800 O.2    35  ASP35      -0.2867
      5  CB         4.0400    1.1640   10.4360 C.3    35  ASP35       0.1410
      6  CG         3.6510    2.6060   10.2070 C.2    35  ASP35       0.3668
      7  OD1        4.0020    3.1480    9.1330 O.co2  35  ASP35      -0.2456
      8  OD2        2.9960    3.1980   11.0980 O.co2  35  ASP35      -0.2456
      9  N          6.4490    4.5250    8.8560 N.3    37  GLY37      -0.1210
     10  CA         6.0370    5.8530    9.2640 C.3    37  GLY37       0.1956
     11  C          5.7630    6.0370   10.7530 C.2    37  GLY37       0.2612
     12  O          5.2720    7.0930   11.1490 O.2    37  GLY37      -0.2717
     13  N          6.0380    5.0240   11.5660 N.am   38  SER38      -0.1952
     14  CA         5.9080    5.1870   13.0180 C.3    38  SER38       0.1924
     15  C          6.9610    4.3590   13.7000 C.2    38  SER38       0.2314
     16  O          7.6960    3.6220   13.0520 O.2    38  SER38      -0.2863
     17  CB         4.5050    4.8070   13.5200 C.3    38  SER38       0.2116
     18  OG         4.2050    3.4430   13.2950 O.3    38  SER38      -0.2180
     19  N         -1.2750    8.3400   18.2500 N.3    78  SER78      -0.1202
     20  CA        -2.3540    8.7240   17.3490 C.3    78  SER78       0.2020
     21  C         -1.8230    8.6910   15.9210 C.2    78  SER78       0.2619
     22  O         -0.7320    9.1850   15.6540 O.2    78  SER78      -0.2717
     23  CB        -2.8720   10.1180   17.6970 C.3    78  SER78       0.2103
     24  OG        -2.9220   10.2870   19.1060 O.3    78  SER78      -0.2182
     25  N         -2.5810    8.1080   15.0030 N.am   79  TYR79      -0.1961
     26  CA        -2.1220    8.0030   13.6190 C.3    79  TYR79       0.1771
     27  C         -2.8030    9.0160   12.6990 C.2    79  TYR79       0.2620
     28  O         -3.7850    9.6650   13.0770 O.2    79  TYR79      -0.2715
     29  CB        -2.3370    6.5760   13.1160 C.3    79  TYR79       0.0574
     30  CG        -1.5320    5.5560   13.9090 C.ar   79  TYR79      -0.0198
     31  CD1       -0.1830    5.3610   13.6410 C.ar   79  TYR79      -0.0009
     32  CD2       -2.1140    4.8010   14.9230 C.ar   79  TYR79      -0.0009
     33  CE1        0.5690    4.4410   14.3530 C.ar   79  TYR79       0.0417
     34  CE2       -1.3680    3.8720   15.6480 C.ar   79  TYR79       0.0417
     35  CZ        -0.0220    3.6920   15.3510 C.ar   79  TYR79       0.1957
     36  OH         0.7430    2.7790   16.0460 O.3    79  TYR79      -0.2866
     37  N         -2.2730    9.1540   11.4870 N.am   80  GLY80      -0.1954
     38  CA        -2.7770   10.1370   10.5360 C.3    80  GLY80       0.1869
     39  C         -4.2180    9.9440   10.1060 C.2    80  GLY80       0.2309
     40  O         -4.8430   10.8690    9.5710 O.2    80  GLY80      -0.2863
     41  N         11.1230   10.7000   10.3140 N.3   194  PHE194     -0.1241
     42  CA        10.6390    9.8500    9.2330 C.3   194  PHE194      0.1605
     43  C         11.7570    9.5180    8.2510 C.2   194  PHE194      0.2264
     44  O         12.8010   10.1670    8.2490 O.2   194  PHE194     -0.2867
     45  CB         9.5040   10.5280    8.4380 C.3   194  PHE194      0.0534
     46  CG         8.2780   10.8730    9.2390 C.ar  194  PHE194     -0.0203
     47  CD1        7.4800    9.8860    9.8110 C.ar  194  PHE194     -0.0042
     48  CD2        7.8710   12.1910    9.3360 C.ar  194  PHE194     -0.0042
     49  CE1        6.3280   10.2190   10.5060 C.ar  194  PHE194     -0.0003
     50  CE2        6.7160   12.5300   10.0300 C.ar  194  PHE194     -0.0003
     51  CZ         5.9520   11.5410   10.6280 C.ar  194  PHE194     -0.0000
     52  N          7.5980   11.3200    2.6200 N.3   217  ILE217     -0.1245
     53  CA         8.1170   10.2260    3.4340 C.3   217  ILE217      0.1561
     54  C          7.8090    8.8640    2.8080 C.2   217  ILE217      0.2260
     55  O          6.7810    8.6800    2.1560 O.2   217  ILE217     -0.2867
     56  CB         7.5610   10.2960    4.8770 C.3   217  ILE217      0.0252
     57  CG1        6.0490   10.0130    4.9220 C.3   217  ILE217      0.0019
     58  CG2        7.8730   11.6510    5.4920 C.3   217  ILE217      0.0019
     59  CD1        5.5350    9.8850    6.3560 C.3   217  ILE217      0.0001
     60  N          6.4650    5.5500    3.4980 N.3   219  ASP219     -0.1239
     61  CA         5.6040    5.1240    4.6070 C.3   219  ASP219      0.1674
     62  C          4.8060    3.8570    4.2810 C.2   219  ASP219      0.2266
     63  O          3.7270    3.9150    3.6710 O.2   219  ASP219     -0.2867
     64  CB         4.6700    6.2760    4.9880 C.3   219  ASP219      0.1410
     65  CG         3.7670    5.9540    6.1570 C.2   219  ASP219      0.3668
     66  OD1        3.8680    4.8760    6.7640 O.co2 219  ASP219     -0.2456
     67  OD2        2.9500    6.8390    6.4860 O.co2 219  ASP219     -0.2456
     68  N          3.1090    2.1370    6.1620 N.3   221  GLY221     -0.1210
     69  CA         1.8970    2.0460    6.9560 C.3   221  GLY221      0.1956
     70  C          0.7540    2.8720    6.4010 C.2   221  GLY221      0.2612
     71  O         -0.3260    2.8870    6.9840 O.2   221  GLY221     -0.2717
     72  N          0.9890    3.5610    5.2920 N.am  222  THR222     -0.1952
     73  CA        -0.0470    4.3690    4.6490 C.3   222  THR222      0.1897
     74  C         -0.4100    3.7050    3.3260 C.2   222  THR222      0.2313
     75  O          0.4680    3.3200    2.5810 O.2   222  THR222     -0.2863
     76  CB         0.4330    5.8270    4.4170 C.3   222  THR222      0.1794
     77  OG1        0.5140    6.4940    5.6840 O.3   222  THR222     -0.2208
     78  CG2       -0.5450    6.6190    3.5230 C.3   222  THR222      0.0378
     79  N         -2.6460   17.5700    5.1650 N.3   300  ILE300     -0.1245
     80  CA        -1.8660   16.5880    5.9240 C.3   300  ILE300      0.1561
     81  C         -0.6060   17.2410    6.4580 C.2   300  ILE300      0.2260
     82  O         -0.1560   16.9560    7.5740 O.2   300  ILE300     -0.2867
     83  CB        -1.4720   15.3690    5.0710 C.3   300  ILE300      0.0252
     84  CG1       -2.7020   14.5490    4.7050 C.3   300  ILE300      0.0019
     85  CG2       -0.4750   14.4960    5.8130 C.3   300  ILE300      0.0019
     86  CD1       -2.3990   13.4310    3.7480 C.3   300  ILE300      0.0001
     87  N          2.2670   17.0480    4.9270 N.3   302  ILE302     -0.1245
     88  CA         3.4230   16.3310    4.4090 C.3   302  ILE302      0.1561
     89  C          3.0060   15.4100    3.2620 C.2   302  ILE302      0.2260
     90  O          1.8820   14.9180    3.2320 O.2   302  ILE302     -0.2867
     91  CB         4.1220   15.5290    5.5450 C.3   302  ILE302      0.0252
     92  CG1        5.4980   15.0280    5.1070 C.3   302  ILE302      0.0019
     93  CG2        3.2360   14.3990    6.0250 C.3   302  ILE302      0.0019
     94  CD1        6.4690   14.8080    6.2750 C.3   302  ILE302      0.0001
     95  N          3.1620   11.8670    1.2230 N.3   304  ILE304     -0.1245
     96  CA         3.3810   10.5090    1.7110 C.3   304  ILE304      0.1561
     97  C          3.4570    9.5240    0.5470 C.2   304  ILE304      0.2260
     98  O          2.4710    9.2930   -0.1550 O.2   304  ILE304     -0.2867
     99  CB         2.2650   10.0480    2.6790 C.3   304  ILE304      0.0252
    100  CG1        2.0610   11.0320    3.8230 C.3   304  ILE304      0.0019
    101  CG2        2.5450    8.6590    3.2250 C.3   304  ILE304      0.0019
    102  CD1        0.9100   10.6390    4.7780 C.3   304  ILE304      0.0001
@<TRIPOS>BOND
     1    98    97    2
     2    97    96    1
     3    95    96    1
     4    96    99    1
     5    55    54    2
     6    75    74    2
     7    52    53    1
     8    99   101    1
     9    99   100    1
    10    54    53    1
    11    90    89    2
    12    89    88    1
    13    74    73    1
    14    53    56    1
    15    60    61    1
    16    78    76    1
    17    63    62    2
    18    86    84    1
    19   100   102    1
    20    62    61    1
    21    88    87    1
    22    88    91    1
    23    76    73    1
    24    76    77    1
    25    61    64    1
    26    73    72    1
    27    84    83    1
    28    56    57    1
    29    56    58    1
    30    57    59    1
    31    64    65    1
    32    83    85    1
    33    83    80    1
    34    92    91    1
    35    92    94    1
    36    79    80    1
    37    72    70   am
    38    91    93    1
    39    80    81    1
    40    65    67   ar
    41    65    66   ar
    42    68    69    1
    43    70    69    1
    44    70    71    2
    45    81    82    2
    46    44    43    2
    47    43    42    1
    48    45    42    1
    49    45    46    1
    50     9    10    1
    51     7     6   ar
    52    42    41    1
    53    46    48   ar
    54    46    47   ar
    55    10    11    1
    56    48    50   ar
    57     2     3    1
    58     2     1    1
    59     2     5    1
    60     3     4    2
    61    40    39    2
    62    47    49   ar
    63    50    51   ar
    64    39    38    1
    65     6     5    1
    66     6     8   ar
    67    49    51   ar
    68    38    37    1
    69    11    12    2
    70    11    13   am
    71    37    27   am
    72    13    14    1
    73    27    28    2
    74    27    26    1
    75    14    17    1
    76    14    15    1
    77    16    15    2
    78    29    26    1
    79    29    30    1
    80    18    17    1
    81    26    25    1
    82    31    30   ar
    83    31    33   ar
    84    30    32   ar
    85    33    35   ar
    86    32    34   ar
    87    25    21   am
    88    35    34   ar
    89    35    36    1
    90    22    21    2
    91    21    20    1
    92    20    23    1
    93    20    19    1
    94    23    24    1
