@<TRIPOS>MOLECULE
tmp/4y36A00.pdb
 91 87 0 0 0
SMALL
GASTEIGER

@<TRIPOS>ATOM
      1  N         -7.5690   -5.3510   -1.8940 N.3    13  LEU13      -0.1245
      2  CA        -7.2180   -4.0110   -2.3590 C.3    13  LEU13       0.1561
      3  C         -5.8170   -3.5700   -1.9290 C.2    13  LEU13       0.2260
      4  O         -5.4010   -2.4530   -2.2520 O.2    13  LEU13      -0.2867
      5  CB        -8.2310   -2.9900   -1.8460 C.3    13  LEU13       0.0270
      6  CG        -9.6930   -3.0720   -2.2700 C.3    13  LEU13       0.0019
      7  CD1      -10.4350   -2.0270   -1.4820 C.3    13  LEU13       0.0001
      8  CD2       -9.8360   -2.8100   -3.7530 C.3    13  LEU13       0.0001
      9  N         -5.0440   -2.8820    1.1630 N.3    15  ASP15      -0.1239
     10  CA        -5.2220   -1.7840    2.1070 C.3    15  ASP15       0.1674
     11  C         -4.0860   -1.6990    3.1260 C.2    15  ASP15       0.2266
     12  O         -3.7540   -0.6150    3.5980 O.2    15  ASP15      -0.2867
     13  CB        -6.5640   -1.9240    2.8060 C.3    15  ASP15       0.1410
     14  CG        -7.6930   -1.4040    1.9530 C.2    15  ASP15       0.3668
     15  OD1       -7.4770   -0.3720    1.2870 O.co2  15  ASP15      -0.2456
     16  OD2       -8.7760   -2.0280    1.9070 O.co2  15  ASP15      -0.2456
     17  N         -1.7050    3.5770    3.0510 N.3   223  THR223     -0.1203
     18  CA        -2.1390    2.8380    1.8670 C.3   223  THR223      0.1994
     19  C         -1.8570    3.5350    0.5570 C.2   223  THR223      0.2617
     20  O         -1.4110    2.9080   -0.4070 O.2   223  THR223     -0.2717
     21  CB        -3.6510    2.5670    1.9060 C.3   223  THR223      0.1784
     22  OG1       -4.0150    1.9810    3.1610 O.3   223  THR223     -0.2211
     23  CG2       -4.0430    1.6390    0.7740 C.3   223  THR223      0.0376
     24  N         -2.1700    4.8250    0.5030 N.am  224  LEU224     -0.1979
     25  CA        -2.1840    5.5280   -0.7730 C.3   224  LEU224      0.1596
     26  C         -0.9730    6.4440   -0.9490 C.2   224  LEU224      0.2287
     27  O         -0.1150    6.5700   -0.0680 O.2   224  LEU224     -0.2864
     28  CB        -3.4710    6.3360   -0.9100 C.3   224  LEU224      0.0297
     29  CG        -4.7610    5.5410   -0.6960 C.3   224  LEU224      0.0022
     30  CD1       -5.9540    6.5200   -0.8410 C.3   224  LEU224      0.0001
     31  CD2       -4.8910    4.3240   -1.6260 C.3   224  LEU224      0.0001
     32  N         -0.0010   10.2410   -1.4000 N.3   226  TYR226     -0.1241
     33  CA        -0.5050   11.5980   -1.1700 C.3   226  TYR226      0.1605
     34  C          0.5170   12.6240   -1.6070 C.2   226  TYR226      0.2264
     35  O          1.6320   12.6900   -1.0650 O.2   226  TYR226     -0.2867
     36  CB        -0.8340   11.8340    0.3050 C.3   226  TYR226      0.0534
     37  CG        -1.9490   10.9530    0.8100 C.ar  226  TYR226     -0.0201
     38  CD1       -1.6900    9.6680    1.2860 C.ar  226  TYR226     -0.0009
     39  CD2       -3.2610   11.3950    0.7940 C.ar  226  TYR226     -0.0009
     40  CE1       -2.6920    8.8610    1.7420 C.ar  226  TYR226      0.0417
     41  CE2       -4.2760   10.5890    1.2550 C.ar  226  TYR226      0.0417
     42  CZ        -3.9770    9.3190    1.7310 C.ar  226  TYR226      0.1957
     43  OH        -5.0090    8.5340    2.1760 O.3   226  TYR226     -0.2866
     44  N        -17.1040   11.9950   -0.4880 N.3   248  VAL248     -0.1231
     45  CA       -16.3260   10.7670   -0.3950 C.3   248  VAL248      0.1692
     46  C        -14.9740   11.0510    0.2680 C.2   248  VAL248      0.2592
     47  O        -14.4350   10.2210    1.0010 O.2   248  VAL248     -0.2718
     48  CB       -16.1350   10.1350   -1.7970 C.3   248  VAL248      0.0266
     49  CG1      -15.2620    8.9070   -1.7300 C.3   248  VAL248      0.0020
     50  CG2      -17.4880    9.7870   -2.3870 C.3   248  VAL248      0.0020
     51  N        -14.4500   12.2460    0.0470 N.am  249  GLY249     -0.1957
     52  CA       -13.1960   12.6290    0.6610 C.3   249  GLY249      0.1869
     53  C        -11.9920   12.4010   -0.2310 C.2   249  GLY249      0.2309
     54  O        -10.9010   12.0990    0.2600 O.2   249  GLY249     -0.2863
     55  N         -8.6290    1.6120   -6.3400 N.3   280  PHE280     -0.1241
     56  CA        -9.0270    1.0120   -5.0600 C.3   280  PHE280      0.1605
     57  C        -10.5070    0.6440   -4.9750 C.2   280  PHE280      0.2264
     58  O        -11.0600    0.4470   -3.8950 O.2   280  PHE280     -0.2867
     59  CB        -8.5670    1.9260   -3.9080 C.3   280  PHE280      0.0534
     60  CG        -7.1200    1.7390   -3.6350 C.ar  280  PHE280     -0.0203
     61  CD1       -6.1710    2.2470   -4.5230 C.ar  280  PHE280     -0.0042
     62  CD2       -6.7040    0.9190   -2.5910 C.ar  280  PHE280     -0.0042
     63  CE1       -4.8440    1.9960   -4.3370 C.ar  280  PHE280     -0.0003
     64  CE2       -5.3590    0.6700   -2.4030 C.ar  280  PHE280     -0.0003
     65  CZ        -4.4410    1.2000   -3.2630 C.ar  280  PHE280     -0.0000
     66  N        -14.7460    0.0690   -5.7880 N.3   282  PRO282     -0.2102
     67  CA       -15.9670    0.8520   -5.6110 C.3   282  PRO282      0.1504
     68  C        -16.0280    1.5330   -4.2520 C.2   282  PRO282      0.2575
     69  O        -15.6150    0.9270   -3.2430 O.2   282  PRO282     -0.2718
     70  CB       -17.0700   -0.2020   -5.7620 C.3   282  PRO282      0.0282
     71  CG       -16.4400   -1.2400   -6.6660 C.3   282  PRO282      0.0208
     72  CD       -15.0170   -1.3240   -6.1700 C.3   282  PRO282      0.0893
     73  N        -16.5500    2.7500   -4.2210 N.am  283  ILE283     -0.1980
     74  CA       -16.5730    3.5020   -2.9690 C.3   283  ILE283      0.1595
     75  C        -17.4780    2.8060   -1.9510 C.2   283  ILE283      0.2287
     76  O        -17.2120    2.8740   -0.7450 O.2   283  ILE283     -0.2864
     77  CB       -17.0110    4.9750   -3.1840 C.3   283  ILE283      0.0276
     78  CG1      -18.3730    5.0790   -3.8560 C.3   283  ILE283      0.0022
     79  CG2      -15.9870    5.7230   -4.0630 C.3   283  ILE283      0.0022
     80  CD1      -18.7670    6.5150   -4.1650 C.3   283  ILE283      0.0001
     81  N        -12.6150    4.4700   -6.0240 N.3   291  PHE291     -0.1241
     82  CA       -11.7470    5.3940   -5.2920 C.3   291  PHE291      0.1605
     83  C        -10.3240    5.4200   -5.8400 C.2   291  PHE291      0.2264
     84  O         -9.7220    4.3680   -6.1060 O.2   291  PHE291     -0.2867
     85  CB       -11.7110    5.0330   -3.8010 C.3   291  PHE291      0.0534
     86  CG       -11.2060    6.1550   -2.9270 C.ar  291  PHE291     -0.0203
     87  CD1      -11.9420    7.3250   -2.7920 C.ar  291  PHE291     -0.0042
     88  CD2       -9.9930    6.0550   -2.2680 C.ar  291  PHE291     -0.0042
     89  CE1      -11.4930    8.3840   -2.0270 C.ar  291  PHE291     -0.0003
     90  CE2       -9.5410    7.1110   -1.4880 C.ar  291  PHE291     -0.0003
     91  CZ       -10.3080    8.2780   -1.3700 C.ar  291  PHE291     -0.0000
@<TRIPOS>BOND
     1    71    72    1
     2    71    70    1
     3    55    56    1
     4    72    66    1
     5    84    83    2
     6    81    82    1
     7    83    82    1
     8    66    67    1
     9    70    67    1
    10    67    68    1
    11    82    85    1
    12    56    57    1
    13    56    59    1
    14    57    58    2
    15    61    63   ar
    16    61    60   ar
    17    63    65   ar
    18    68    73   am
    19    68    69    2
    20    73    74    1
    21    80    78    1
    22    79    77    1
    23    59    60    1
    24    78    77    1
    25    85    86    1
    26     8     6    1
    27    60    62   ar
    28    65    64   ar
    29    77    74    1
    30    74    75    1
    31    86    87   ar
    32    86    88   ar
    33    87    89   ar
    34    62    64   ar
    35    50    48    1
    36     2     3    1
    37     2     1    1
    38     2     5    1
    39     6     5    1
    40     6     7    1
    41    88    90   ar
    42     4     3    2
    43    89    91   ar
    44    75    76    2
    45    48    49    1
    46    48    45    1
    47    31    29    1
    48    34    33    1
    49    34    35    2
    50    90    91   ar
    51    32    33    1
    52    33    36    1
    53    26    25    1
    54    26    27    2
    55    28    25    1
    56    28    29    1
    57    30    29    1
    58    25    24    1
    59    44    45    1
    60    20    19    2
    61    45    46    1
    62    53    54    2
    63    53    52    1
    64    51    46   am
    65    51    52    1
    66    46    47    2
    67    36    37    1
    68    24    19   am
    69    19    18    1
    70    23    21    1
    71    39    37   ar
    72    39    41   ar
    73    37    38   ar
    74     9    10    1
    75    41    42   ar
    76    38    40   ar
    77    15    14   ar
    78    42    40   ar
    79    42    43    1
    80    18    21    1
    81    18    17    1
    82    21    22    1
    83    16    14   ar
    84    14    13    1
    85    10    13    1
    86    10    11    1
    87    11    12    2
