@<TRIPOS>MOLECULE
tmp/4y37A00.pdb
 87 83 0 0 0
SMALL
GASTEIGER

@<TRIPOS>ATOM
      1  N         14.2030    1.0050  176.3720 N.3    13  LEU13      -0.1245
      2  CA        13.8340    2.3570  176.7880 C.3    13  LEU13       0.1561
      3  C         12.4220    2.7840  176.3940 C.2    13  LEU13       0.2260
      4  O         12.0050    3.8900  176.7450 O.2    13  LEU13      -0.2867
      5  CB        14.8190    3.3770  176.2110 C.3    13  LEU13       0.0270
      6  CG        16.2870    3.2810  176.6280 C.3    13  LEU13       0.0019
      7  CD1       17.0750    4.3700  175.9280 C.3    13  LEU13       0.0001
      8  CD2       16.4430    3.3940  178.1350 C.3    13  LEU13       0.0001
      9  N         11.6200    3.4410  173.3150 N.3    15  ASP15      -0.1239
     10  CA        11.8120    4.5440  172.3700 C.3    15  ASP15       0.1674
     11  C         10.6510    4.6140  171.3780 C.2    15  ASP15       0.2266
     12  O         10.2580    5.6940  170.9350 O.2    15  ASP15      -0.2867
     13  CB        13.1460    4.4080  171.6360 C.3    15  ASP15       0.1410
     14  CG        14.2980    4.9380  172.4490 C.2    15  ASP15       0.3668
     15  OD1       14.1640    6.0540  172.9920 O.co2  15  ASP15      -0.2456
     16  OD2       15.3290    4.2430  172.5770 O.co2  15  ASP15      -0.2456
     17  N          8.2420    9.7920  171.5160 N.3   223  THR223     -0.1203
     18  CA         8.6910    9.0430  172.6910 C.3   223  THR223      0.1994
     19  C          8.4160    9.7600  173.9930 C.2   223  THR223      0.2617
     20  O          7.9050    9.1660  174.9500 O.2   223  THR223     -0.2717
     21  CB        10.1980    8.7640  172.6430 C.3   223  THR223      0.1784
     22  OG1       10.5570    8.2510  171.3600 O.3   223  THR223     -0.2211
     23  CG2       10.5910    7.7520  173.7330 C.3   223  THR223      0.0376
     24  N          8.7670   11.0400  174.0210 N.am  224  LEU224     -0.1979
     25  CA         8.7790   11.7900  175.2670 C.3   224  LEU224      0.1596
     26  C          7.5620   12.6930  175.4480 C.2   224  LEU224      0.2287
     27  O          6.7010   12.8060  174.5740 O.2   224  LEU224     -0.2864
     28  CB        10.0620   12.6260  175.3610 C.3   224  LEU224      0.0297
     29  CG        11.3740   11.8490  175.1750 C.3   224  LEU224      0.0022
     30  CD1       12.6090   12.7640  175.2840 C.3   224  LEU224      0.0001
     31  CD2       11.4780   10.6700  176.1640 C.3   224  LEU224      0.0001
     32  N          6.5530   16.4920  175.8730 N.3   226  TYR226     -0.1241
     33  CA         7.0540   17.8530  175.6280 C.3   226  TYR226      0.1605
     34  C          6.0590   18.9070  176.0920 C.2   226  TYR226      0.2264
     35  O          4.9360   18.9660  175.5890 O.2   226  TYR226     -0.2867
     36  CB         7.3640   18.0650  174.1480 C.3   226  TYR226      0.0534
     37  CG         8.4960   17.2060  173.6390 C.ar  226  TYR226     -0.0201
     38  CD1        9.8130   17.6760  173.6480 C.ar  226  TYR226     -0.0009
     39  CD2        8.2580   15.9170  173.1730 C.ar  226  TYR226     -0.0009
     40  CE1       10.8590   16.8860  173.1820 C.ar  226  TYR226      0.0417
     41  CE2        9.2910   15.1190  172.7160 C.ar  226  TYR226      0.0417
     42  CZ        10.5920   15.6060  172.7260 C.ar  226  TYR226      0.1957
     43  OH        11.6260   14.8190  172.2620 O.3   226  TYR226     -0.2866
     44  N         23.8180   18.2910  174.9920 N.3   248  VAL248     -0.1245
     45  CA        23.1230   17.0110  174.9020 C.3   248  VAL248      0.1561
     46  C         21.7800   17.1770  174.1750 C.2   248  VAL248      0.2260
     47  O         21.3670   16.3090  173.4050 O.2   248  VAL248     -0.2867
     48  CB        22.9040   16.4010  176.2990 C.3   248  VAL248      0.0252
     49  CG1       22.1280   15.1050  176.1920 C.3   248  VAL248      0.0019
     50  CG2       24.2560   16.1710  176.9880 C.3   248  VAL248      0.0019
     51  N         15.1950    7.9810  180.8720 N.3   280  PHE280     -0.1241
     52  CA        15.5870    7.3560  179.6150 C.3   280  PHE280      0.1605
     53  C         17.0660    6.9920  179.5390 C.2   280  PHE280      0.2264
     54  O         17.6060    6.7800  178.4540 O.2   280  PHE280     -0.2867
     55  CB        15.1300    8.2430  178.4470 C.3   280  PHE280      0.0534
     56  CG        13.6680    8.0570  178.1610 C.ar  280  PHE280     -0.0203
     57  CD1       12.7110    8.5750  179.0420 C.ar  280  PHE280     -0.0042
     58  CD2       13.2490    7.2510  177.1130 C.ar  280  PHE280     -0.0042
     59  CE1       11.3700    8.3320  178.8440 C.ar  280  PHE280     -0.0003
     60  CE2       11.8960    7.0150  176.9010 C.ar  280  PHE280     -0.0003
     61  CZ        10.9590    7.5620  177.7690 C.ar  280  PHE280     -0.0000
     62  N         21.3760    6.4470  180.4620 N.3   282  PRO282     -0.2102
     63  CA        22.6070    7.2180  180.2240 C.3   282  PRO282      0.1504
     64  C         22.6030    7.9290  178.8620 C.2   282  PRO282      0.2575
     65  O         22.1380    7.3530  177.8750 O.2   282  PRO282     -0.2718
     66  CB        23.7000    6.1450  180.2990 C.3   282  PRO282      0.0282
     67  CG        23.1370    5.1420  181.2760 C.3   282  PRO282      0.0208
     68  CD        21.6540    5.1050  181.0060 C.3   282  PRO282      0.0893
     69  N         23.0940    9.1660  178.8140 N.am  283  ILE283     -0.1980
     70  CA        23.1170    9.9270  177.5610 C.3   283  ILE283      0.1595
     71  C         24.0070    9.2480  176.5210 C.2   283  ILE283      0.2287
     72  O         23.7960    9.3950  175.3190 O.2   283  ILE283     -0.2864
     73  CB        23.6040   11.3750  177.7710 C.3   283  ILE283      0.0276
     74  CG1       25.0180   11.4000  178.3630 C.3   283  ILE283      0.0022
     75  CG2       22.6220   12.1360  178.6610 C.3   283  ILE283      0.0022
     76  CD1       25.5830   12.7890  178.5120 C.3   283  ILE283      0.0001
     77  N         19.1780   10.8660  180.5470 N.3   291  PHE291     -0.1241
     78  CA        18.3380   11.7800  179.7950 C.3   291  PHE291      0.1605
     79  C         16.9060   11.7730  180.3070 C.2   291  PHE291      0.2264
     80  O         16.3380   10.7080  180.5490 O.2   291  PHE291     -0.2867
     81  CB        18.3590   11.4190  178.3130 C.3   291  PHE291      0.0534
     82  CG        17.8380   12.5140  177.4260 C.ar  291  PHE291     -0.0203
     83  CD1       18.6190   13.6230  177.1530 C.ar  291  PHE291     -0.0042
     84  CD2       16.5590   12.4420  176.8780 C.ar  291  PHE291     -0.0042
     85  CE1       18.1390   14.6460  176.3320 C.ar  291  PHE291     -0.0003
     86  CE2       16.0810   13.4530  176.0570 C.ar  291  PHE291     -0.0003
     87  CZ        16.8660   14.5550  175.7910 C.ar  291  PHE291     -0.0000
@<TRIPOS>BOND
     1    12    11    2
     2    22    21    1
     3    11    10    1
     4    17    18    1
     5    13    10    1
     6    13    14    1
     7    43    42    1
     8    10     9    1
     9    14    16   ar
    10    14    15   ar
    11    21    18    1
    12    21    23    1
    13    18    19    1
    14    41    42   ar
    15    41    39   ar
    16    42    40   ar
    17    39    37   ar
    18    40    38   ar
    19    47    46    2
    20    37    38   ar
    21    37    36    1
    22    19    24   am
    23    19    20    2
    24    24    25    1
    25    36    33    1
    26    46    45    1
    27    27    26    2
    28    45    44    1
    29    45    48    1
    30    29    30    1
    31    29    28    1
    32    29    31    1
    33    25    28    1
    34    25    26    1
    35    72    71    2
    36    35    34    2
    37    33    32    1
    38    33    34    1
    39    87    86   ar
    40    87    85   ar
    41     7     6    1
    42    86    84   ar
    43    49    48    1
    44     5     6    1
    45     5     2    1
    46    48    50    1
    47    85    83   ar
    48     1     2    1
    49     3     4    2
    50     3     2    1
    51    71    70    1
    52     6     8    1
    53    84    82   ar
    54    60    58   ar
    55    60    61   ar
    56    58    56   ar
    57    83    82   ar
    58    82    81    1
    59    70    73    1
    60    70    69    1
    61    61    59   ar
    62    73    74    1
    63    73    75    1
    64    65    64    2
    65    56    55    1
    66    56    57   ar
    67    81    78    1
    68    74    76    1
    69    55    52    1
    70    54    53    2
    71    69    64   am
    72    59    57   ar
    73    64    63    1
    74    53    52    1
    75    52    51    1
    76    78    79    1
    77    78    77    1
    78    63    66    1
    79    63    62    1
    80    66    67    1
    81    79    80    2
    82    62    68    1
    83    68    67    1
