@<TRIPOS>MOLECULE
tmp/4y38A00.pdb
 116 107 0 0 0
SMALL
GASTEIGER

@<TRIPOS>ATOM
      1  N          1.5530   -5.5560   11.3180 N.3    33  ASP33      -0.1239
      2  CA         1.6460   -4.6340   10.1950 C.3    33  ASP33       0.1674
      3  C          2.9700   -3.8860   10.3280 C.2    33  ASP33       0.2266
      4  O          3.1270   -3.0310   11.2130 O.2    33  ASP33      -0.2867
      5  CB         0.4390   -3.6900   10.2700 C.3    33  ASP33       0.1410
      6  CG         0.3180   -2.7550    9.0930 C.2    33  ASP33       0.3668
      7  OD1        1.2380   -2.6420    8.2700 O.co2  33  ASP33      -0.2456
      8  OD2       -0.7530   -2.0940    9.0300 O.co2  33  ASP33      -0.2456
      9  N          5.4720   -1.1750    9.7050 N.3    35  ASP35      -0.1239
     10  CA         5.1370    0.2130    9.4290 C.3    35  ASP35       0.1674
     11  C          6.3780    1.0950    9.4620 C.2    35  ASP35       0.2266
     12  O          6.8220    1.5010   10.5340 O.2    35  ASP35      -0.2867
     13  CB         4.1410    0.6880   10.4860 C.3    35  ASP35       0.1410
     14  CG         3.6960    2.1110   10.2750 C.2    35  ASP35       0.3668
     15  OD1        3.9290    2.6340    9.1750 O.co2  35  ASP35      -0.2456
     16  OD2        3.1320    2.6940   11.2220 O.co2  35  ASP35      -0.2456
     17  N          6.4580    4.0520    8.8120 N.3    37  GLY37      -0.1225
     18  CA         6.0150    5.3650    9.2350 C.3    37  GLY37       0.1811
     19  C          5.7940    5.5500   10.7260 C.2    37  GLY37       0.2280
     20  O          5.3260    6.6110   11.1270 O.2    37  GLY37      -0.2866
     21  N         -2.1930    7.8330   14.9280 N.3    79  TYR79      -0.1227
     22  CA        -1.7080    7.7330   13.5680 C.3    79  TYR79       0.1736
     23  C         -2.4320    8.7270   12.6710 C.2    79  TYR79       0.2596
     24  O         -3.4080    9.3630   13.0810 O.2    79  TYR79      -0.2718
     25  CB        -1.9070    6.3060   13.0690 C.3    79  TYR79       0.0548
     26  CG        -1.1340    5.2700   13.8640 C.ar   79  TYR79      -0.0200
     27  CD1        0.2140    5.0520   13.6140 C.ar   79  TYR79      -0.0009
     28  CD2       -1.7500    4.5050   14.8470 C.ar   79  TYR79      -0.0009
     29  CE1        0.9270    4.0910   14.3200 C.ar   79  TYR79       0.0417
     30  CE2       -1.0390    3.5440   15.5650 C.ar   79  TYR79       0.0417
     31  CZ         0.2960    3.3490   15.3000 C.ar   79  TYR79       0.1957
     32  OH         0.9740    2.3890   16.0130 O.3    79  TYR79      -0.2866
     33  N         -1.9490    8.8470   11.4390 N.am   80  GLY80      -0.1942
     34  CA        -2.4250    9.8550   10.5080 C.3    80  GLY80       0.2014
     35  C         -3.8810    9.7280   10.1100 C.2    80  GLY80       0.2638
     36  O         -4.4830   10.6920    9.6440 O.2    80  GLY80      -0.2714
     37  N         -4.4460    8.5380   10.2790 N.am   81  ASP81      -0.1971
     38  CA        -5.8460    8.2990    9.9490 C.3    81  ASP81       0.1709
     39  C         -6.7530    8.5300   11.1510 C.2    81  ASP81       0.2293
     40  O         -7.9610    8.3050   11.0740 O.2    81  ASP81      -0.2864
     41  CB        -6.0350    6.8690    9.4440 C.3    81  ASP81       0.1436
     42  CG        -5.7920    5.8310   10.5250 C.2    81  ASP81       0.3671
     43  OD1       -5.0480    6.1210   11.4850 O.co2  81  ASP81      -0.2456
     44  OD2       -6.3450    4.7190   10.4150 O.co2  81  ASP81      -0.2456
     45  N         -6.5400    6.8800   14.0060 N.3    83  SER83      -0.1217
     46  CA        -6.5770    5.7200   14.8870 C.3    83  SER83       0.1889
     47  C         -5.5400    5.8870   15.9890 C.2    83  SER83       0.2288
     48  O         -4.6380    6.7160   15.8830 O.2    83  SER83      -0.2866
     49  CB        -6.3270    4.4330   14.1080 C.3    83  SER83       0.2089
     50  OG        -5.0650    4.4620   13.4810 O.3    83  SER83      -0.2183
     51  N         -8.8750   -0.3940   14.7640 N.3   116  PHE116     -0.1241
     52  CA        -8.0600   -1.5680   15.0710 C.3   116  PHE116      0.1605
     53  C         -8.9600   -2.7470   15.4560 C.2   116  PHE116      0.2264
     54  O         -8.7960   -3.8620   14.9500 O.2   116  PHE116     -0.2867
     55  CB        -7.0210   -1.2500   16.1470 C.3   116  PHE116      0.0534
     56  CG        -5.9080   -0.3800   15.6500 C.ar  116  PHE116     -0.0203
     57  CD1       -5.0690   -0.8290   14.6470 C.ar  116  PHE116     -0.0042
     58  CD2       -5.7040    0.8830   16.1660 C.ar  116  PHE116     -0.0042
     59  CE1       -4.0430   -0.0350   14.1660 C.ar  116  PHE116     -0.0003
     60  CE2       -4.6710    1.6780   15.6960 C.ar  116  PHE116     -0.0003
     61  CZ        -3.8510    1.2250   14.6880 C.ar  116  PHE116     -0.0000
     62  N         -5.1830   -7.8560   11.7650 N.3   122  ILE122     -0.1245
     63  CA        -3.9740   -7.1770   12.2240 C.3   122  ILE122      0.1561
     64  C         -3.8910   -7.2740   13.7410 C.2   122  ILE122      0.2260
     65  O         -4.7400   -6.7410   14.4630 O.2   122  ILE122     -0.2867
     66  CB        -3.9670   -5.7230   11.7400 C.3   122  ILE122      0.0252
     67  CG1       -3.7820   -5.7030   10.2230 C.3   122  ILE122      0.0019
     68  CG2       -2.8610   -4.9200   12.4250 C.3   122  ILE122      0.0019
     69  CD1       -3.8520   -4.3250    9.5920 C.3   122  ILE122      0.0001
     70  N          1.2440   -3.6360   15.3650 N.3   125  LEU125     -0.1245
     71  CA         2.1330   -2.9460   14.4350 C.3   125  LEU125      0.1561
     72  C          3.5740   -3.1940   14.8590 C.2   125  LEU125      0.2260
     73  O          3.8760   -3.3170   16.0410 O.2   125  LEU125     -0.2867
     74  CB         1.8680   -1.4250   14.3860 C.3   125  LEU125      0.0270
     75  CG         0.8960   -0.9690   13.2790 C.3   125  LEU125      0.0019
     76  CD1       -0.4880   -1.5400   13.5040 C.3   125  LEU125      0.0001
     77  CD2        0.8470    0.5370   13.1800 C.3   125  LEU125      0.0001
     78  N          6.4740    5.0260    3.4570 N.3   219  ASP219     -0.1239
     79  CA         5.6380    4.5670    4.5590 C.3   219  ASP219      0.1674
     80  C          4.8680    3.2940    4.1900 C.2   219  ASP219      0.2266
     81  O          3.7940    3.3430    3.5770 O.2   219  ASP219     -0.2867
     82  CB         4.6560    5.6720    4.9660 C.3   219  ASP219      0.1410
     83  CG         3.8430    5.3080    6.1780 C.2   219  ASP219      0.3668
     84  OD1        4.0460    4.2030    6.7200 O.co2 219  ASP219     -0.2456
     85  OD2        3.0020    6.1330    6.5980 O.co2 219  ASP219     -0.2456
     86  N          3.1830    1.4960    6.1050 N.3   221  GLY221     -0.1210
     87  CA         1.9620    1.4350    6.8770 C.3   221  GLY221      0.1956
     88  C          0.8230    2.2790    6.3360 C.2   221  GLY221      0.2612
     89  O         -0.2470    2.2670    6.9260 O.2   221  GLY221     -0.2717
     90  N          1.0510    3.0180    5.2520 N.am  222  THR222     -0.1952
     91  CA         0.0020    3.7960    4.5920 C.3   222  THR222      0.1897
     92  C         -0.3520    3.0910    3.2860 C.2   222  THR222      0.2313
     93  O          0.5420    2.7010    2.5260 O.2   222  THR222     -0.2863
     94  CB         0.4680    5.2510    4.3400 C.3   222  THR222      0.1794
     95  OG1        0.5330    5.9300    5.5920 O.3   222  THR222     -0.2208
     96  CG2       -0.4970    6.0050    3.4510 C.3   222  THR222      0.0378
     97  N         -0.0060    9.6830   -1.4330 N.3   226  TYR226     -0.1241
     98  CA        -0.5090   11.0220   -1.1440 C.3   226  TYR226      0.1605
     99  C          0.5150   12.0470   -1.6210 C.2   226  TYR226      0.2264
    100  O          1.6470   12.0780   -1.1260 O.2   226  TYR226     -0.2867
    101  CB        -0.7900   11.1980    0.3510 C.3   226  TYR226      0.0534
    102  CG        -1.9040   10.3200    0.8620 C.ar  226  TYR226     -0.0201
    103  CD1       -1.6500    9.0300    1.3060 C.ar  226  TYR226     -0.0009
    104  CD2       -3.2130   10.7730    0.8810 C.ar  226  TYR226     -0.0009
    105  CE1       -2.6660    8.2180    1.7530 C.ar  226  TYR226      0.0417
    106  CE2       -4.2290    9.9730    1.3320 C.ar  226  TYR226      0.0417
    107  CZ        -3.9530    8.6910    1.7670 C.ar  226  TYR226      0.1957
    108  OH        -4.9860    7.9010    2.2070 O.3   226  TYR226     -0.2866
    109  N          3.1990   11.3050    1.1640 N.3   304  ILE304     -0.1245
    110  CA         3.3980    9.9410    1.6380 C.3   304  ILE304      0.1561
    111  C          3.4710    8.9740    0.4760 C.2   304  ILE304      0.2260
    112  O          2.4880    8.7620   -0.2370 O.2   304  ILE304     -0.2867
    113  CB         2.2980    9.4870    2.6120 C.3   304  ILE304      0.0252
    114  CG1        2.1130   10.4750    3.7650 C.3   304  ILE304      0.0019
    115  CG2        2.6220    8.1070    3.1430 C.3   304  ILE304      0.0019
    116  CD1        0.9280   10.1420    4.6490 C.3   304  ILE304      0.0001
@<TRIPOS>BOND
     1    99    98    1
     2    99   100    2
     3    97    98    1
     4    98   101    1
     5   112   111    2
     6   101   102    1
     7   111   110    1
     8   102   104   ar
     9   102   103   ar
    10   104   106   ar
    11   109   110    1
    12   103   105   ar
    13   106   107   ar
    14   110   113    1
    15   105   107   ar
    16   107   108    1
    17    93    92    2
    18   113   115    1
    19   113   114    1
    20    92    91    1
    21    96    94    1
    22    78    79    1
    23    81    80    2
    24   114   116    1
    25    80    79    1
    26    94    91    1
    27    94    95    1
    28    79    82    1
    29    91    90    1
    30    82    83    1
    31    90    88   am
    32    86    87    1
    33    83    85   ar
    34    83    84   ar
    35    88    87    1
    36    88    89    2
    37     7     6   ar
    38    17    18    1
    39     8     6   ar
    40     6     5    1
    41    15    14   ar
    42    18    19    1
    43    10    11    1
    44    10     9    1
    45    10    13    1
    46    41    38    1
    47    41    42    1
    48    11    12    2
    49    69    67    1
    50    36    35    2
    51    38    37    1
    52    38    39    1
    53    35    37   am
    54    35    34    1
    55     2     5    1
    56     2     3    1
    57     2     1    1
    58    67    66    1
    59    14    13    1
    60    14    16   ar
    61     3     4    2
    62    44    42   ar
    63    34    33    1
    64    42    43   ar
    65    19    20    2
    66    40    39    2
    67    33    23   am
    68    66    63    1
    69    66    68    1
    70    62    63    1
    71    63    64    1
    72    23    24    2
    73    23    22    1
    74    25    22    1
    75    25    26    1
    76    77    75    1
    77    75    76    1
    78    75    74    1
    79    50    49    1
    80    22    21    1
    81    27    26   ar
    82    27    29   ar
    83    64    65    2
    84    26    28   ar
    85    45    46    1
    86    49    46    1
    87    59    57   ar
    88    59    61   ar
    89    29    31   ar
    90    74    71    1
    91    71    72    1
    92    71    70    1
    93    57    56   ar
    94    61    60   ar
    95    51    52    1
    96    28    30   ar
    97    72    73    2
    98    46    47    1
    99    54    53    2
   100    52    53    1
   101    52    55    1
   102    31    30   ar
   103    31    32    1
   104    56    55    1
   105    56    58   ar
   106    60    58   ar
   107    48    47    2
