@<TRIPOS>MOLECULE
tmp/4y39A01.pdb
 131 120 0 0 0
SMALL
GASTEIGER

@<TRIPOS>ATOM
      1  N         29.1580   -6.2570   60.9280 N.3    33  ASP33      -0.1239
      2  CA        29.2760   -5.3140   59.8160 C.3    33  ASP33       0.1674
      3  C         30.6020   -4.5630   59.9680 C.2    33  ASP33       0.2266
      4  O         30.7590   -3.7370   60.8700 O.2    33  ASP33      -0.2867
      5  CB        28.0700   -4.3750   59.8880 C.3    33  ASP33       0.1410
      6  CG        27.9950   -3.3570   58.7820 C.2    33  ASP33       0.3668
      7  OD1       28.9160   -3.2510   57.9530 O.co2  33  ASP33      -0.2456
      8  OD2       26.9690   -2.6060   58.8170 O.co2  33  ASP33      -0.2456
      9  N         33.1310   -1.8680   59.4060 N.3    35  ASP35      -0.1239
     10  CA        32.7710   -0.4840   59.1560 C.3    35  ASP35       0.1674
     11  C         34.0080    0.4120   59.1930 C.2    35  ASP35       0.2266
     12  O         34.4490    0.8070   60.2590 O.2    35  ASP35      -0.2867
     13  CB        31.7650   -0.0290   60.2110 C.3    35  ASP35       0.1410
     14  CG        31.3060    1.3930   60.0070 C.2    35  ASP35       0.3668
     15  OD1       31.6020    1.9510   58.9340 O.co2  35  ASP35      -0.2456
     16  OD2       30.6380    1.9350   60.9190 O.co2  35  ASP35      -0.2456
     17  N         34.0440    3.3830   58.5530 N.3    37  GLY37      -0.1225
     18  CA        33.5790    4.6860   58.9750 C.3    37  GLY37       0.1811
     19  C         33.3100    4.8400   60.4690 C.2    37  GLY37       0.2280
     20  O         32.7550    5.8590   60.8780 O.2    37  GLY37      -0.2866
     21  N         25.3490    6.7720   64.4250 N.3    79  TYR79      -0.1227
     22  CA        25.8330    6.6490   63.0550 C.3    79  TYR79       0.1736
     23  C         25.1520    7.6570   62.1430 C.2    79  TYR79       0.2596
     24  O         24.1570    8.2770   62.5240 O.2    79  TYR79      -0.2718
     25  CB        25.6230    5.2310   62.5700 C.3    79  TYR79       0.0548
     26  CG        26.3880    4.2380   63.3820 C.ar   79  TYR79      -0.0200
     27  CD1       25.7740    3.5040   64.3740 C.ar   79  TYR79      -0.0009
     28  CD2       27.7410    4.0520   63.1600 C.ar   79  TYR79      -0.0009
     29  CE1       26.4910    2.5860   65.1180 C.ar   79  TYR79       0.0417
     30  CE2       28.4680    3.1360   63.8930 C.ar   79  TYR79       0.0417
     31  CZ        27.8300    2.4080   64.8790 C.ar   79  TYR79       0.1957
     32  OH        28.5150    1.4750   65.6220 O.3    79  TYR79      -0.2866
     33  N         25.7010    7.8110   60.9370 N.am   80  GLY80      -0.1942
     34  CA        25.2670    8.8300   59.9980 C.3    80  GLY80       0.2014
     35  C         23.8240    8.6880   59.5700 C.2    80  GLY80       0.2638
     36  O         23.2020    9.6470   59.0810 O.2    80  GLY80      -0.2714
     37  N         23.2970    7.4780   59.7170 N.am   81  ASP81      -0.1971
     38  CA        21.9330    7.1990   59.3200 C.3    81  ASP81       0.1709
     39  C         20.9320    7.4430   60.4580 C.2    81  ASP81       0.2293
     40  O         19.7460    7.1950   60.2910 O.2    81  ASP81      -0.2864
     41  CB        21.8080    5.7750   58.7660 C.3    81  ASP81       0.1436
     42  CG        22.1700    4.7100   59.7820 C.2    81  ASP81       0.3671
     43  OD1       22.5580    5.0710   60.9150 O.co2  81  ASP81      -0.2456
     44  OD2       22.0530    3.5060   59.4450 O.co2  81  ASP81      -0.2456
     45  N         21.0140    5.9380   63.3820 N.3    83  SER83      -0.1217
     46  CA        20.9740    4.7850   64.2770 C.3    83  SER83       0.1889
     47  C         21.9750    4.9520   65.4110 C.2    83  SER83       0.2288
     48  O         22.8730    5.7900   65.3340 O.2    83  SER83      -0.2866
     49  CB        21.2180    3.4940   63.4990 C.3    83  SER83       0.2089
     50  OG        22.5430    3.4240   63.0250 O.3    83  SER83      -0.2183
     51  N         18.6400   -1.2580   64.1720 N.3   116  PHE116     -0.1241
     52  CA        19.4520   -2.4250   64.4940 C.3   116  PHE116      0.1605
     53  C         18.5590   -3.6050   64.8740 C.2   116  PHE116      0.2264
     54  O         18.7500   -4.7260   64.3880 O.2   116  PHE116     -0.2867
     55  CB        20.4650   -2.0950   65.5820 C.3   116  PHE116      0.0534
     56  CG        21.6000   -1.2380   65.1070 C.ar  116  PHE116     -0.0203
     57  CD1       22.4630   -1.7070   64.1370 C.ar  116  PHE116     -0.0042
     58  CD2       21.8000    0.0300   65.6040 C.ar  116  PHE116     -0.0042
     59  CE1       23.5000   -0.9440   63.6690 C.ar  116  PHE116     -0.0003
     60  CE2       22.8560    0.8030   65.1520 C.ar  116  PHE116     -0.0003
     61  CZ        23.6980    0.3170   64.1640 C.ar  116  PHE116     -0.0000
     62  N         28.8060   -4.4340   64.9870 N.3   125  LEU125     -0.1245
     63  CA        29.7050   -3.7100   64.0960 C.3   125  LEU125      0.1561
     64  C         31.1430   -3.9650   64.5240 C.2   125  LEU125      0.2260
     65  O         31.4290   -4.1250   65.7090 O.2   125  LEU125     -0.2867
     66  CB        29.4080   -2.1960   64.1110 C.3   125  LEU125      0.0270
     67  CG        28.4510   -1.7690   62.9950 C.3   125  LEU125      0.0019
     68  CD1       27.0570   -2.3900   63.2130 C.3   125  LEU125      0.0001
     69  CD2       28.3550   -0.2980   62.8300 C.3   125  LEU125      0.0001
     70  N         38.7920    9.4650   60.0340 N.3   194  PHE194     -0.1241
     71  CA        38.3120    8.6340   58.9310 C.3   194  PHE194      0.1605
     72  C         39.4220    8.3570   57.9280 C.2   194  PHE194      0.2264
     73  O         40.4670    9.0080   57.9350 O.2   194  PHE194     -0.2867
     74  CB        37.1780    9.3380   58.1970 C.3   194  PHE194      0.0534
     75  CG        35.9770    9.6220   59.0450 C.ar  194  PHE194     -0.0203
     76  CD1       35.6090   10.9120   59.3290 C.ar  194  PHE194     -0.0042
     77  CD2       35.1960    8.5930   59.5320 C.ar  194  PHE194     -0.0042
     78  CE1       34.4990   11.1710   60.0940 C.ar  194  PHE194     -0.0003
     79  CE2       34.0890    8.8540   60.3170 C.ar  194  PHE194     -0.0003
     80  CZ        33.7400   10.1430   60.5930 C.ar  194  PHE194     -0.0000
     81  N         35.2990   10.1910   52.3310 N.3   217  ILE217     -0.1245
     82  CA        35.7770    9.0720   53.1290 C.3   217  ILE217      0.1561
     83  C         35.4770    7.7470   52.4620 C.2   217  ILE217      0.2260
     84  O         34.4710    7.5930   51.7720 O.2   217  ILE217     -0.2867
     85  CB        35.2280    9.1130   54.5600 C.3   217  ILE217      0.0252
     86  CG1       33.7230    8.8960   54.6260 C.3   217  ILE217      0.0019
     87  CG2       35.6020   10.4510   55.2290 C.3   217  ILE217      0.0019
     88  CD1       33.2010    8.6160   56.0110 C.3   217  ILE217      0.0001
     89  N         34.1320    4.4040   53.2130 N.3   219  ASP219     -0.1239
     90  CA        33.2770    3.9440   54.3110 C.3   219  ASP219      0.1674
     91  C         32.5140    2.6700   53.9300 C.2   219  ASP219      0.2266
     92  O         31.4490    2.7230   53.2930 O.2   219  ASP219     -0.2867
     93  CB        32.2920    5.0340   54.7320 C.3   219  ASP219      0.1410
     94  CG        31.4820    4.6240   55.9300 C.2   219  ASP219      0.3668
     95  OD1       30.6140    5.4070   56.3540 O.co2 219  ASP219     -0.2456
     96  OD2       31.7160    3.5040   56.4550 O.co2 219  ASP219     -0.2456
     97  N         30.8610    0.9160   55.8150 N.3   221  GLY221     -0.1210
     98  CA        29.6360    0.8600   56.5940 C.3   221  GLY221      0.1956
     99  C         28.4990    1.7360   56.1100 C.2   221  GLY221      0.2612
    100  O         27.4440    1.7500   56.7190 O.2   221  GLY221     -0.2717
    101  N         28.6940    2.4310   55.0020 N.am  222  THR222     -0.1952
    102  CA        27.6420    3.2050   54.3420 C.3   222  THR222      0.1897
    103  C         27.3010    2.5230   53.0250 C.2   222  THR222      0.2313
    104  O         28.1960    2.1530   52.2870 O.2   222  THR222     -0.2863
    105  CB        28.1000    4.6650   54.0980 C.3   222  THR222      0.1794
    106  OG1       28.1770    5.3400   55.3490 O.3   222  THR222     -0.2208
    107  CG2       27.1190    5.4370   53.2290 C.3   222  THR222      0.0378
    108  N         25.5590   16.5680   54.8230 N.3   300  ILE300     -0.1245
    109  CA        26.3760   15.6190   55.5890 C.3   300  ILE300      0.1561
    110  C         27.6290   16.3040   56.0860 C.2   300  ILE300      0.2260
    111  O         28.1100   16.0230   57.1860 O.2   300  ILE300     -0.2867
    112  CB        26.8210   14.3800   54.7440 C.3   300  ILE300      0.0252
    113  CG1       25.6060   13.5730   54.2890 C.3   300  ILE300      0.0019
    114  CG2       27.8000   13.4700   55.5470 C.3   300  ILE300      0.0019
    115  CD1       25.9390   12.3800   53.4120 C.3   300  ILE300      0.0001
    116  N         30.4960   16.0570   54.3960 N.3   302  ILE302     -0.1245
    117  CA        31.6080   15.3920   53.7230 C.3   302  ILE302      0.1561
    118  C         31.0040   14.3850   52.7360 C.2   302  ILE302      0.2260
    119  O         29.8630   13.9570   52.8680 O.2   302  ILE302     -0.2867
    120  CB        32.5700   14.7200   54.7380 C.3   302  ILE302      0.0252
    121  CG1       33.9040   14.2770   54.1010 C.3   302  ILE302      0.0019
    122  CG2       31.8850   13.5690   55.3700 C.3   302  ILE302      0.0019
    123  CD1       35.0280   14.0660   55.1260 C.3   302  ILE302      0.0001
    124  N         30.9150   10.6910   50.8350 N.3   304  ILE304     -0.1245
    125  CA        31.0710    9.3320   51.3470 C.3   304  ILE304      0.1561
    126  C         31.1440    8.3590   50.1820 C.2   304  ILE304      0.2260
    127  O         30.1520    8.1400   49.4700 O.2   304  ILE304     -0.2867
    128  CB        29.9330    8.8960   52.3070 C.3   304  ILE304      0.0252
    129  CG1       29.7230    9.8970   53.4490 C.3   304  ILE304      0.0019
    130  CG2       30.2680    7.5080   52.8610 C.3   304  ILE304      0.0019
    131  CD1       28.5180    9.5830   54.2960 C.3   304  ILE304      0.0001
@<TRIPOS>BOND
     1   127   126    2
     2   126   125    1
     3   124   125    1
     4   125   128    1
     5    84    83    2
     6   104   103    2
     7   128   130    1
     8   128   129    1
     9    81    82    1
    10    83    82    1
    11   118   119    2
    12   118   117    1
    13   103   102    1
    14    82    85    1
    15    89    90    1
    16   107   105    1
    17    92    91    2
    18   115   113    1
    19   129   131    1
    20   117   116    1
    21   117   120    1
    22    91    90    1
    23   105   102    1
    24   105   106    1
    25   121   120    1
    26   121   123    1
    27   113   112    1
    28    90    93    1
    29   102   101    1
    30    85    86    1
    31    85    87    1
    32    86    88    1
    33    93    94    1
    34   120   122    1
    35   112   114    1
    36   112   109    1
    37   108   109    1
    38   101    99   am
    39   109   110    1
    40    97    98    1
    41    94    95   ar
    42    94    96   ar
    43   110   111    2
    44    99    98    1
    45    99   100    2
    46    72    73    2
    47    72    71    1
    48     7     6   ar
    49    74    71    1
    50    74    75    1
    51    17    18    1
    52    41    38    1
    53    41    42    1
    54     6     8   ar
    55     6     5    1
    56    71    70    1
    57    15    14   ar
    58    18    19    1
    59    75    76   ar
    60    75    77   ar
    61    36    35    2
    62    10    11    1
    63    10     9    1
    64    10    13    1
    65    11    12    2
    66    38    37    1
    67    38    39    1
    68    76    78   ar
    69    44    42   ar
    70    77    79   ar
    71    35    37   am
    72    35    34    1
    73    42    43   ar
    74     2     5    1
    75     2     3    1
    76     2     1    1
    77     3     4    2
    78    34    33    1
    79    14    13    1
    80    14    16   ar
    81    78    80   ar
    82    40    39    2
    83    79    80   ar
    84    19    20    2
    85    33    23   am
    86    23    24    2
    87    23    22    1
    88    25    22    1
    89    25    26    1
    90    69    67    1
    91    67    68    1
    92    67    66    1
    93    50    49    1
    94    22    21    1
    95    28    26   ar
    96    28    30   ar
    97    45    46    1
    98    26    27   ar
    99    49    46    1
   100    59    57   ar
   101    59    61   ar
   102    30    31   ar
   103    63    66    1
   104    63    64    1
   105    63    62    1
   106    57    56   ar
   107    61    60   ar
   108    51    52    1
   109    46    47    1
   110    27    29   ar
   111    54    53    2
   112    52    53    1
   113    52    55    1
   114    64    65    2
   115    31    29   ar
   116    31    32    1
   117    56    55    1
   118    56    58   ar
   119    60    58   ar
   120    48    47    2
