@<TRIPOS>MOLECULE
tmp/4y3aA00.pdb
 101 98 0 0 0
SMALL
GASTEIGER

@<TRIPOS>ATOM
      1  N         20.1580   -6.4260   47.9830 N.3    13  LEU13      -0.1245
      2  CA        20.5320   -5.0840   47.5510 C.3    13  LEU13       0.1561
      3  C         21.9530   -4.7020   47.9390 C.2    13  LEU13       0.2260
      4  O         22.3950   -3.6070   47.6170 O.2    13  LEU13      -0.2867
      5  CB        19.5890   -4.0370   48.1500 C.3    13  LEU13       0.0270
      6  CG        18.1050   -4.1390   47.7980 C.3    13  LEU13       0.0019
      7  CD1       17.3450   -2.9880   48.4430 C.3    13  LEU13       0.0001
      8  CD2       17.9010   -4.1570   46.2880 C.3    13  LEU13       0.0001
      9  N         22.8280   -4.0540   51.0040 N.3    15  ASP15      -0.1239
     10  CA        22.6690   -2.9380   51.9470 C.3    15  ASP15       0.1674
     11  C         23.8390   -2.8440   52.9270 C.2    15  ASP15       0.2266
     12  O         24.2010   -1.7500   53.3710 O.2    15  ASP15      -0.2867
     13  CB        21.3500   -3.0530   52.6980 C.3    15  ASP15       0.1410
     14  CG        20.1770   -2.5510   51.8830 C.2    15  ASP15       0.3668
     15  OD1       20.2640   -1.4370   51.3270 O.co2  15  ASP15      -0.2456
     16  OD2       19.1570   -3.2720   51.7780 O.co2  15  ASP15      -0.2456
     17  N         26.1900    2.3360   52.7030 N.3   223  THR223     -0.1203
     18  CA        25.7460    1.5860   51.5440 C.3   223  THR223      0.1994
     19  C         26.0570    2.2980   50.2300 C.2   223  THR223      0.2617
     20  O         26.5270    1.6680   49.2730 O.2   223  THR223     -0.2717
     21  CB        24.2110    1.3600   51.6050 C.3   223  THR223      0.1784
     22  OG1       23.8320    0.8760   52.8950 O.3   223  THR223     -0.2211
     23  CG2       23.7510    0.3890   50.5250 C.3   223  THR223      0.0376
     24  N         25.7380    3.5890   50.1780 N.am  224  LEU224     -0.1979
     25  CA        25.6880    4.3420   48.9260 C.3   224  LEU224      0.1596
     26  C         26.9050    5.2510   48.7300 C.2   224  LEU224      0.2287
     27  O         27.7800    5.3590   49.5860 O.2   224  LEU224     -0.2864
     28  CB        24.3860    5.1440   48.8420 C.3   224  LEU224      0.0297
     29  CG        23.1140    4.3030   49.0260 C.3   224  LEU224      0.0022
     30  CD1       21.8790    5.1860   48.8260 C.3   224  LEU224      0.0001
     31  CD2       23.0760    3.0760   48.1050 C.3   224  LEU224      0.0001
     32  N         27.9100    9.0460   48.2500 N.3   226  TYR226     -0.1241
     33  CA        27.4010   10.3900   48.5290 C.3   226  TYR226      0.1605
     34  C         28.4210   11.4190   48.0670 C.2   226  TYR226      0.2264
     35  O         29.5500   11.4430   48.5670 O.2   226  TYR226     -0.2867
     36  CB        27.1130   10.5760   50.0200 C.3   226  TYR226      0.0534
     37  CG        25.9810    9.7120   50.5220 C.ar  226  TYR226     -0.0201
     38  CD1       26.2130    8.4280   50.9850 C.ar  226  TYR226     -0.0009
     39  CD2       24.6710   10.1770   50.5200 C.ar  226  TYR226     -0.0009
     40  CE1       25.1880    7.6340   51.4260 C.ar  226  TYR226      0.0417
     41  CE2       23.6290    9.3750   50.9610 C.ar  226  TYR226      0.0417
     42  CZ        23.8970    8.0960   51.4180 C.ar  226  TYR226      0.1957
     43  OH        22.8770    7.2810   51.8480 O.3   226  TYR226     -0.2866
     44  N         10.0830   13.5020   49.3890 N.3   247  SER247     -0.1202
     45  CA         9.2510   12.5490   50.1220 C.3   247  SER247      0.2020
     46  C          9.9520   11.1950   50.2830 C.2   247  SER247      0.2619
     47  O          9.8370   10.5440   51.3200 O.2   247  SER247     -0.2717
     48  CB         7.8870   12.3830   49.4450 C.3   247  SER247      0.2103
     49  OG         8.0190   12.0140   48.0900 O.3   247  SER247     -0.2182
     50  N         10.6910   10.7690   49.2660 N.am  248  VAL248     -0.1965
     51  CA        11.3930    9.4950   49.3380 C.3   248  VAL248      0.1727
     52  C         12.7370    9.6650   50.0590 C.2   248  VAL248      0.2616
     53  O         13.2000    8.7570   50.7480 O.2   248  VAL248     -0.2715
     54  CB        11.5830    8.8830   47.9360 C.3   248  VAL248      0.0290
     55  CG1       12.4140    7.6080   48.0050 C.3   248  VAL248      0.0023
     56  CG2       10.2170    8.6040   47.2950 C.3   248  VAL248      0.0023
     57  N         13.3640   10.8290   49.9020 N.am  249  GLY249     -0.1955
     58  CA        14.6260   11.1160   50.5550 C.3   249  GLY249      0.1869
     59  C         15.8590   11.0240   49.6730 C.2   249  GLY249      0.2309
     60  O         16.9650   10.8290   50.1700 O.2   249  GLY249     -0.2863
     61  N         19.2740    0.4210   43.2660 N.3   280  PHE280     -0.1227
     62  CA        18.8380   -0.1310   44.5500 C.3   280  PHE280      0.1736
     63  C         17.3870   -0.5860   44.5600 C.2   280  PHE280      0.2596
     64  O         16.8460   -0.9270   45.6130 O.2   280  PHE280     -0.2718
     65  CB        19.2360    0.7890   45.7020 C.3   280  PHE280      0.0547
     66  CG        20.6690    0.5900   46.0480 C.ar  280  PHE280     -0.0202
     67  CD1       21.6610    1.0970   45.2180 C.ar  280  PHE280     -0.0042
     68  CD2       21.0490   -0.2400   47.0950 C.ar  280  PHE280     -0.0042
     69  CE1       22.9840    0.8190   45.4430 C.ar  280  PHE280     -0.0003
     70  CE2       22.3850   -0.5150   47.3280 C.ar  280  PHE280     -0.0003
     71  CZ        23.3440    0.0170   46.4970 C.ar  280  PHE280     -0.0000
     72  N         16.8020   -0.6880   43.3740 N.am  281  GLY281     -0.1943
     73  CA        15.5130   -1.3230   43.2160 C.3   281  GLY281      0.1998
     74  C         14.3540   -0.4860   43.7020 C.2   281  GLY281      0.2481
     75  O         14.5060    0.6760   44.1050 O.2   281  GLY281     -0.2729
     76  N         13.1570   -1.0720   43.6560 N.am  282  PRO282     -0.2715
     77  CA        11.9400   -0.3310   43.9860 C.3   282  PRO282      0.1536
     78  C         11.9910    0.3110   45.3670 C.2   282  PRO282      0.2598
     79  O         12.4880   -0.2900   46.3290 O.2   282  PRO282     -0.2715
     80  CB        10.8600   -1.4090   43.8990 C.3   282  PRO282      0.0310
     81  CG        11.3660   -2.3330   42.8650 C.3   282  PRO282      0.0237
     82  CD        12.8520   -2.4030   43.1100 C.3   282  PRO282      0.0939
     83  N         11.4340    1.5150   45.4730 N.am  283  ILE283     -0.1978
     84  CA        11.4260    2.2230   46.7510 C.3   283  ILE283      0.1596
     85  C         10.5590    1.5220   47.7990 C.2   283  ILE283      0.2287
     86  O         10.8100    1.6400   48.9940 O.2   283  ILE283     -0.2864
     87  CB        11.0010    3.7010   46.5790 C.3   283  ILE283      0.0276
     88  CG1        9.5860    3.8010   45.9930 C.3   283  ILE283      0.0022
     89  CG2       12.0220    4.4350   45.7180 C.3   283  ILE283      0.0022
     90  CD1        9.0270    5.2070   45.9600 C.3   283  ILE283      0.0001
     91  N         15.2860    3.3840   43.6780 N.3   291  PHE291     -0.1241
     92  CA        16.1390    4.2860   44.4490 C.3   291  PHE291      0.1605
     93  C         17.5610    4.2840   43.9000 C.2   291  PHE291      0.2264
     94  O         18.1410    3.2340   43.6280 O.2   291  PHE291     -0.2867
     95  CB        16.1570    3.8940   45.9270 C.3   291  PHE291      0.0534
     96  CG        16.6470    5.0020   46.8260 C.ar  291  PHE291     -0.0203
     97  CD1       15.8740    6.1310   47.0090 C.ar  291  PHE291     -0.0042
     98  CD2       17.8840    4.9530   47.4430 C.ar  291  PHE291     -0.0042
     99  CE1       16.3040    7.1660   47.8020 C.ar  291  PHE291     -0.0003
    100  CE2       18.3070    5.9900   48.2490 C.ar  291  PHE291     -0.0003
    101  CZ        17.5200    7.0950   48.4230 C.ar  291  PHE291     -0.0000
@<TRIPOS>BOND
     1    81    82    1
     2    81    80    1
     3    82    76    1
     4    73    72    1
     5    73    74    1
     6    61    62    1
     7    72    63   am
     8    94    93    2
     9    76    74   am
    10    76    77    1
    11    91    92    1
    12    74    75    2
    13    80    77    1
    14    93    92    1
    15    77    78    1
    16    92    95    1
    17    62    63    1
    18    62    65    1
    19    63    64    2
    20    67    69   ar
    21    67    66   ar
    22    78    83   am
    23    78    79    2
    24    69    71   ar
    25    83    84    1
    26    65    66    1
    27    89    87    1
    28    95    96    1
    29    90    88    1
    30    88    87    1
    31    66    68   ar
    32     8     6    1
    33    71    70   ar
    34    87    84    1
    35    84    85    1
    36    96    97   ar
    37    96    98   ar
    38    97    99   ar
    39    68    70   ar
    40    56    54    1
    41    98   100   ar
    42     2     3    1
    43     2     1    1
    44     2     5    1
    45     4     3    2
    46     6     5    1
    47     6     7    1
    48    85    86    2
    49    99   101   ar
    50    54    55    1
    51    54    51    1
    52    34    33    1
    53    34    35    2
    54    49    48    1
    55    31    29    1
    56   100   101   ar
    57    32    33    1
    58    33    36    1
    59    26    25    1
    60    26    27    2
    61    30    29    1
    62    28    25    1
    63    28    29    1
    64    25    24    1
    65    50    51    1
    66    50    46   am
    67    20    19    2
    68    51    52    1
    69    44    45    1
    70    48    45    1
    71    59    60    2
    72    59    58    1
    73    57    52   am
    74    57    58    1
    75    36    37    1
    76    52    53    2
    77    45    46    1
    78    24    19   am
    79    19    18    1
    80    46    47    2
    81    39    37   ar
    82    39    41   ar
    83    37    38   ar
    84    23    21    1
    85    41    42   ar
    86    38    40   ar
    87     9    10    1
    88    15    14   ar
    89    42    40   ar
    90    42    43    1
    91    18    21    1
    92    18    17    1
    93    21    22    1
    94    16    14   ar
    95    14    13    1
    96    10    13    1
    97    10    11    1
    98    11    12    2
