@<TRIPOS>MOLECULE
tmp/4y3dA00.pdb
 130 119 0 0 0
SMALL
GASTEIGER

@<TRIPOS>ATOM
      1  N         -3.8040   -9.0030    3.4180 N.3    10  ILE10      -0.1245
      2  CA        -4.9060   -9.4210    4.2850 C.3    10  ILE10       0.1561
      3  C         -6.2310   -9.6260    3.5450 C.2    10  ILE10       0.2260
      4  O         -7.1420  -10.2440    4.0760 O.2    10  ILE10      -0.2867
      5  CB        -5.1590   -8.4180    5.4150 C.3    10  ILE10       0.0252
      6  CG1       -5.6280   -7.0580    4.8830 C.3    10  ILE10       0.0019
      7  CG2       -3.9140   -8.2770    6.2900 C.3    10  ILE10       0.0019
      8  CD1       -6.2280   -6.2020    5.9730 C.3    10  ILE10       0.0001
      9  N         -5.0370   -4.2910    1.1950 N.3    15  ASP15      -0.1225
     10  CA        -5.2390   -3.1600    2.1000 C.3    15  ASP15       0.1805
     11  C         -4.1060   -3.0460    3.1200 C.2    15  ASP15       0.2597
     12  O         -3.7830   -1.9540    3.6100 O.2    15  ASP15      -0.2718
     13  CB        -6.5940   -3.2660    2.7990 C.3    15  ASP15       0.1424
     14  CG        -7.7410   -2.7850    1.9290 C.2    15  ASP15       0.3668
     15  OD1       -7.6000   -1.7210    1.2930 O.co2  15  ASP15      -0.2456
     16  OD2       -8.7880   -3.4810    1.8710 O.co2  15  ASP15      -0.2456
     17  N         -3.5290   -4.1940    3.4580 N.am   16  ALA16      -0.1979
     18  CA        -2.3530   -4.2600    4.3050 C.3    16  ALA16       0.1597
     19  C         -1.7380   -5.6370    4.1440 C.2    16  ALA16       0.2287
     20  O         -2.2990   -6.4990    3.4700 O.2    16  ALA16      -0.2864
     21  CB        -2.6960   -3.9950    5.7780 C.3    16  ALA16       0.0319
     22  N          1.4360   -6.4060   11.2330 N.3    33  ASP33      -0.1239
     23  CA         1.5280   -5.4610   10.1330 C.3    33  ASP33       0.1674
     24  C          2.8560   -4.7130   10.2890 C.2    33  ASP33       0.2266
     25  O          2.9970   -3.8630   11.1570 O.2    33  ASP33      -0.2867
     26  CB         0.3210   -4.5240   10.2280 C.3    33  ASP33       0.1410
     27  CG         0.2170   -3.5380    9.0930 C.2    33  ASP33       0.3668
     28  OD1        1.1770   -3.3830    8.2960 O.co2  33  ASP33      -0.2456
     29  OD2       -0.8580   -2.8850    9.0330 O.co2  33  ASP33      -0.2456
     30  N          5.3460   -1.9990    9.7520 N.3    35  ASP35      -0.1239
     31  CA         5.0000   -0.6050    9.4840 C.3    35  ASP35       0.1674
     32  C          6.2440    0.2680    9.5410 C.2    35  ASP35       0.2266
     33  O          6.6970    0.6460   10.6320 O.2    35  ASP35      -0.2867
     34  CB         3.9810   -0.1520   10.5340 C.3    35  ASP35       0.1410
     35  CG         3.5700    1.2830   10.3690 C.2    35  ASP35       0.3668
     36  OD1        3.8080    1.8370    9.2740 O.co2  35  ASP35      -0.2456
     37  OD2        2.9630    1.8320   11.3230 O.co2  35  ASP35      -0.2456
     38  N         -2.3390    6.8670   14.7620 N.3    79  TYR79      -0.1241
     39  CA        -1.8370    6.7670   13.4000 C.3    79  TYR79       0.1605
     40  C         -2.4910    7.8270   12.5170 C.2    79  TYR79       0.2264
     41  O         -3.4270    8.4930   12.9480 O.2    79  TYR79      -0.2867
     42  CB        -2.0900    5.3550   12.8820 C.3    79  TYR79       0.0534
     43  CG        -1.3510    4.3040   13.6920 C.ar   79  TYR79      -0.0201
     44  CD1       -0.0110    4.0420   13.4550 C.ar   79  TYR79      -0.0009
     45  CD2       -1.9760    3.6190   14.7170 C.ar   79  TYR79      -0.0009
     46  CE1        0.6810    3.0910   14.1880 C.ar   79  TYR79       0.0417
     47  CE2       -1.2910    2.6580   15.4610 C.ar   79  TYR79       0.0417
     48  CZ         0.0350    2.4080   15.1940 C.ar   79  TYR79       0.1957
     49  OH         0.7120    1.4630   15.9410 O.3    79  TYR79      -0.2866
     50  N         -4.5080    7.8680   10.1210 N.3    81  ASP81      -0.1239
     51  CA        -5.9140    7.7130    9.7680 C.3    81  ASP81       0.1674
     52  C         -6.8220    7.8950   10.9820 C.2    81  ASP81       0.2266
     53  O         -8.0390    7.7650   10.8710 O.2    81  ASP81      -0.2867
     54  CB        -6.1540    6.3330    9.1530 C.3    81  ASP81       0.1410
     55  CG        -6.0500    5.2140   10.1710 C.2    81  ASP81       0.3668
     56  OD1       -5.3320    5.3810   11.1690 O.co2  81  ASP81      -0.2456
     57  OD2       -6.6660    4.1530    9.9690 O.co2  81  ASP81      -0.2456
     58  N         -6.6610    6.0500   13.7960 N.3    83  SER83      -0.1217
     59  CA        -6.6650    4.8380   14.6070 C.3    83  SER83       0.1889
     60  C         -5.7280    5.0020   15.7950 C.2    83  SER83       0.2288
     61  O         -4.8330    5.8280   15.7610 O.2    83  SER83      -0.2866
     62  CB        -6.1940    3.6570   13.7640 C.3    83  SER83       0.2089
     63  OG        -7.0210    3.5140   12.6280 O.3    83  SER83      -0.2183
     64  N        -11.1260    0.4030   14.3290 N.3   115  SER115     -0.1202
     65  CA       -10.5640   -0.0840   13.0690 C.3   115  SER115      0.2020
     66  C         -9.6330   -1.2750   13.2860 C.2   115  SER115      0.2618
     67  O         -9.5010   -2.1220   12.4090 O.2   115  SER115     -0.2717
     68  CB        -9.8270    1.0240   12.3250 C.3   115  SER115      0.2103
     69  OG        -8.7600    1.5280   13.0980 O.3   115  SER115     -0.2182
     70  N         -8.9750   -1.3400   14.4440 N.am  116  PHE116     -0.1975
     71  CA        -8.1500   -2.4980   14.7670 C.3   116  PHE116      0.1639
     72  C         -9.0530   -3.6770   15.1510 C.2   116  PHE116      0.2290
     73  O         -8.8750   -4.7880   14.6590 O.2   116  PHE116     -0.2864
     74  CB        -7.1290   -2.1730   15.8670 C.3   116  PHE116      0.0560
     75  CG        -6.0030   -1.2790   15.4000 C.ar  116  PHE116     -0.0200
     76  CD1       -5.1250   -1.7120   14.4140 C.ar  116  PHE116     -0.0042
     77  CD2       -5.8270   -0.0160   15.9310 C.ar  116  PHE116     -0.0042
     78  CE1       -4.0990   -0.9120   13.9680 C.ar  116  PHE116     -0.0003
     79  CE2       -4.7860    0.7900   15.5000 C.ar  116  PHE116     -0.0003
     80  CZ        -3.9330    0.3450   14.5050 C.ar  116  PHE116     -0.0000
     81  N        -10.3450   -5.3940   12.0690 N.3   119  ASP119     -0.1239
     82  CA        -9.3970   -6.1070   11.2070 C.3   119  ASP119      0.1674
     83  C         -9.0050   -7.4010   11.9060 C.2   119  ASP119      0.2266
     84  O         -8.0070   -7.4400   12.6180 O.2   119  ASP119     -0.2867
     85  CB        -8.1290   -5.2910   10.9340 C.3   119  ASP119      0.1410
     86  CG        -8.3870   -4.0450   10.1070 C.2   119  ASP119      0.3668
     87  OD1       -9.4930   -3.9140    9.5500 O.co2 119  ASP119     -0.2456
     88  OD2       -7.4770   -3.1900   10.0070 O.co2 119  ASP119     -0.2456
     89  N         -5.2750   -8.7670   11.5840 N.3   122  ILE122     -0.1245
     90  CA        -4.0850   -8.0580   12.0810 C.3   122  ILE122      0.1561
     91  C         -3.9990   -8.1900   13.6040 C.2   122  ILE122      0.2260
     92  O         -4.8500   -7.6860   14.3460 O.2   122  ILE122     -0.2867
     93  CB        -4.0730   -6.5690   11.6360 C.3   122  ILE122      0.0252
     94  CG1       -3.9800   -6.4840   10.1080 C.3   122  ILE122      0.0019
     95  CG2       -2.9330   -5.7960   12.3220 C.3   122  ILE122      0.0019
     96  CD1       -4.1420   -5.0770    9.5440 C.3   122  ILE122      0.0001
     97  N          1.0270   -4.5470   15.3000 N.3   125  LEU125     -0.1245
     98  CA         1.9350   -3.8550   14.3940 C.3   125  LEU125      0.1561
     99  C          3.3820   -4.0620   14.8390 C.2   125  LEU125      0.2260
    100  O          3.6710   -4.1660   16.0320 O.2   125  LEU125     -0.2867
    101  CB         1.6390   -2.3470   14.3550 C.3   125  LEU125      0.0270
    102  CG         0.6910   -1.9100   13.2180 C.3   125  LEU125      0.0019
    103  CD1       -0.7070   -2.5430   13.3540 C.3   125  LEU125      0.0001
    104  CD2        0.5850   -0.3960   13.1240 C.3   125  LEU125      0.0001
    105  N          6.4420    4.2150    3.5330 N.3   219  ASP219     -0.1239
    106  CA         5.6010    3.7100    4.6180 C.3   219  ASP219      0.1674
    107  C          4.8380    2.4430    4.2350 C.2   219  ASP219      0.2266
    108  O          3.7910    2.4960    3.5810 O.2   219  ASP219     -0.2867
    109  CB         4.6160    4.7820    5.0750 C.3   219  ASP219      0.1410
    110  CG         3.8890    4.3890    6.3260 C.2   219  ASP219      0.3668
    111  OD1        4.1190    3.2550    6.8100 O.co2 219  ASP219     -0.2456
    112  OD2        3.1090    5.2140    6.8310 O.co2 219  ASP219     -0.2456
    113  N          3.1450    0.6710    6.1180 N.3   221  GLY221     -0.1210
    114  CA         1.9100    0.6070    6.8830 C.3   221  GLY221      0.1956
    115  C          0.7920    1.5150    6.3940 C.2   221  GLY221      0.2613
    116  O         -0.2620    1.5770    7.0080 O.2   221  GLY221     -0.2717
    117  N          1.0330    2.2300    5.2980 N.am  222  THR222     -0.1938
    118  CA        -0.0020    3.0130    4.6230 C.3   222  THR222      0.2028
    119  C         -0.3750    2.2890    3.3300 C.2   222  THR222      0.2642
    120  O          0.5020    1.8790    2.5800 O.2   222  THR222     -0.2714
    121  CB         0.4770    4.4480    4.3210 C.3   222  THR222      0.1808
    122  OG1        0.6110    5.1600    5.5540 O.3   222  THR222     -0.2208
    123  CG2       -0.5270    5.1930    3.4640 C.3   222  THR222      0.0379
    124  N         -1.6750    2.1380    3.0730 N.am  223  THR223     -0.1950
    125  CA        -2.1410    1.3970    1.9040 C.3   223  THR223      0.1897
    126  C         -1.8510    2.1030    0.5770 C.2   223  THR223      0.2313
    127  O         -1.3720    1.4920   -0.3770 O.2   223  THR223     -0.2863
    128  CB        -3.6650    1.1390    1.9800 C.3   223  THR223      0.1794
    129  OG1       -4.0130    0.6480    3.2800 O.3   223  THR223     -0.2208
    130  CG2       -4.1260    0.1370    0.8920 C.3   223  THR223      0.0378
@<TRIPOS>BOND
     1   127   126    2
     2   126   125    1
     3   130   128    1
     4     9    10    1
     5    15    14   ar
     6    16    14   ar
     7   125   128    1
     8   125   124    1
     9    14    13    1
    10   128   129    1
    11    10    13    1
    12    10    11    1
    13   120   119    2
    14   124   119   am
    15    11    17   am
    16    11    12    2
    17   119   118    1
    18     1     2    1
    19    17    18    1
    20   123   121    1
    21    20    19    2
    22   105   106    1
    23     3     4    2
    24     3     2    1
    25   108   107    2
    26    19    18    1
    27   107   106    1
    28     2     5    1
    29    18    21    1
    30   121   118    1
    31   121   122    1
    32   106   109    1
    33   118   117    1
    34     6     5    1
    35     6     8    1
    36   109   110    1
    37   117   115   am
    38     5     7    1
    39   113   114    1
    40   110   111   ar
    41   110   112   ar
    42   115   114    1
    43   115   116    2
    44    28    27   ar
    45    29    27   ar
    46    27    26    1
    47    54    51    1
    48    54    55    1
    49    36    35   ar
    50    31    32    1
    51    31    30    1
    52    31    34    1
    53    32    33    2
    54    96    94    1
    55    87    86   ar
    56    51    50    1
    57    51    52    1
    58    57    55   ar
    59    88    86   ar
    60    86    85    1
    61    94    93    1
    62    23    26    1
    63    23    24    1
    64    23    22    1
    65    55    56   ar
    66    24    25    2
    67    35    34    1
    68    35    37   ar
    69    53    52    2
    70    85    82    1
    71    82    83    1
    72    82    81    1
    73    89    90    1
    74    93    90    1
    75    93    95    1
    76    83    84    2
    77    90    91    1
    78    68    65    1
    79    68    69    1
    80    67    66    2
    81    40    41    2
    82    40    39    1
    83    63    62    1
    84    42    39    1
    85    42    43    1
    86    65    66    1
    87    65    64    1
    88   104   102    1
    89   102   103    1
    90   102   101    1
    91    66    70   am
    92    39    38    1
    93    44    43   ar
    94    44    46   ar
    95    91    92    2
    96    43    45   ar
    97    62    59    1
    98    58    59    1
    99    78    76   ar
   100    78    80   ar
   101    46    48   ar
   102   101    98    1
   103    98    99    1
   104    98    97    1
   105    76    75   ar
   106    70    71    1
   107    80    79   ar
   108    59    60    1
   109    73    72    2
   110    45    47   ar
   111    71    72    1
   112    71    74    1
   113    99   100    2
   114    48    47   ar
   115    48    49    1
   116    75    74    1
   117    75    77   ar
   118    79    77   ar
   119    61    60    2
