@<TRIPOS>MOLECULE
tmp/4y3eA00.pdb
 88 81 0 0 0
SMALL
GASTEIGER

@<TRIPOS>ATOM
      1  N          1.4580   -5.5790   11.3290 N.3    33  ASP33      -0.1239
      2  CA         1.5770   -4.6440   10.2150 C.3    33  ASP33       0.1674
      3  C          2.9070   -3.9070   10.3780 C.2    33  ASP33       0.2266
      4  O          3.0650   -3.0710   11.2710 O.2    33  ASP33      -0.2867
      5  CB         0.3860   -3.6850   10.3160 C.3    33  ASP33       0.1410
      6  CG         0.2850   -2.6980    9.1930 C.2    33  ASP33       0.3668
      7  OD1        1.2150   -2.5720    8.3790 O.co2  33  ASP33      -0.2456
      8  OD2       -0.7830   -2.0280    9.1610 O.co2  33  ASP33      -0.2456
      9  N          5.4290   -1.2310    9.8070 N.3    35  ASP35      -0.1239
     10  CA         5.0900    0.1620    9.5490 C.3    35  ASP35       0.1674
     11  C          6.3250    1.0560    9.6040 C.2    35  ASP35       0.2266
     12  O          6.7560    1.4520   10.6840 O.2    35  ASP35      -0.2867
     13  CB         4.0640    0.6300   10.5860 C.3    35  ASP35       0.1410
     14  CG         3.6090    2.0550   10.3590 C.2    35  ASP35       0.3668
     15  OD1        3.9350    2.5980    9.2890 O.co2  35  ASP35      -0.2456
     16  OD2        2.9080    2.6030   11.2460 O.co2  35  ASP35      -0.2456
     17  N          6.3790    4.0320    8.9650 N.3    37  GLY37      -0.1225
     18  CA         5.9310    5.3450    9.3770 C.3    37  GLY37       0.1811
     19  C          5.6370    5.4990   10.8610 C.2    37  GLY37       0.2280
     20  O          5.1060    6.5280   11.2670 O.2    37  GLY37      -0.2866
     21  N         -2.4970    7.6250   14.9470 N.3    79  TYR79      -0.1227
     22  CA        -2.0050    7.5330   13.5770 C.3    79  TYR79       0.1736
     23  C         -2.7270    8.5030   12.6570 C.2    79  TYR79       0.2596
     24  O         -3.7110    9.1390   13.0490 O.2    79  TYR79      -0.2718
     25  CB        -2.1620    6.1030   13.0740 C.3    79  TYR79       0.0548
     26  CG        -1.3750    5.0920   13.8780 C.ar   79  TYR79      -0.0200
     27  CD1       -2.0010    4.2870   14.8170 C.ar   79  TYR79      -0.0009
     28  CD2       -0.0050    4.9380   13.6870 C.ar   79  TYR79      -0.0009
     29  CE1       -1.2910    3.3590   15.5560 C.ar   79  TYR79       0.0417
     30  CE2        0.7210    4.0130   14.4120 C.ar   79  TYR79       0.0417
     31  CZ         0.0650    3.2200   15.3480 C.ar   79  TYR79       0.1957
     32  OH         0.7600    2.2790   16.0730 O.3    79  TYR79      -0.2866
     33  N         -2.2300    8.5940   11.4260 N.am   80  GLY80      -0.1942
     34  CA        -2.6870    9.5800   10.4640 C.3    80  GLY80       0.2014
     35  C         -4.1490    9.4780   10.0760 C.2    80  GLY80       0.2638
     36  O         -4.7360   10.4550    9.6090 O.2    80  GLY80      -0.2714
     37  N         -4.7380    8.2980   10.2510 N.am   81  ASP81      -0.1971
     38  CA        -6.1430    8.0890    9.9070 C.3    81  ASP81       0.1709
     39  C         -7.0630    8.3450   11.1020 C.2    81  ASP81       0.2293
     40  O         -8.2730    8.1500   11.0100 O.2    81  ASP81      -0.2864
     41  CB        -6.3600    6.6700    9.3770 C.3    81  ASP81       0.1436
     42  CG        -6.0670    5.6110   10.4160 C.2    81  ASP81       0.3671
     43  OD1       -5.4310    5.9500   11.4330 O.co2  81  ASP81      -0.2456
     44  OD2       -6.4600    4.4410   10.2190 O.co2  81  ASP81      -0.2456
     45  N         -6.8580    6.7530   13.9890 N.3    83  SER83      -0.1217
     46  CA        -6.9140    5.5860   14.8660 C.3    83  SER83       0.1889
     47  C         -5.8900    5.7320   15.9890 C.2    83  SER83       0.2288
     48  O         -4.9850    6.5610   15.9110 O.2    83  SER83      -0.2866
     49  CB        -6.6720    4.3010   14.0740 C.3    83  SER83       0.2089
     50  OG        -5.3420    4.2300   13.5960 O.3    83  SER83      -0.2183
     51  N         -9.1180   -0.5630   14.6010 N.3   116  PHE116     -0.1241
     52  CA        -8.2940   -1.7240   14.9140 C.3   116  PHE116      0.1605
     53  C         -9.1790   -2.9150   15.2740 C.2   116  PHE116      0.2264
     54  O         -8.9770   -4.0120   14.7680 O.2   116  PHE116     -0.2867
     55  CB        -7.2780   -1.4110   16.0160 C.3   116  PHE116      0.0534
     56  CG        -6.1630   -0.5120   15.5600 C.ar  116  PHE116     -0.0203
     57  CD1       -5.2640   -0.9520   14.6080 C.ar  116  PHE116     -0.0042
     58  CD2       -6.0280    0.7770   16.0510 C.ar  116  PHE116     -0.0042
     59  CE1       -4.2500   -0.1410   14.1630 C.ar  116  PHE116     -0.0003
     60  CE2       -4.9930    1.5960   15.6030 C.ar  116  PHE116     -0.0003
     61  CZ        -4.1180    1.1380   14.6540 C.ar  116  PHE116     -0.0000
     62  N          1.0680   -3.7310   15.3880 N.3   125  LEU125     -0.1245
     63  CA         1.9920   -3.0490   14.4910 C.3   125  LEU125      0.1561
     64  C          3.4270   -3.2760   14.9360 C.2   125  LEU125      0.2260
     65  O          3.7070   -3.3930   16.1270 O.2   125  LEU125     -0.2867
     66  CB         1.7030   -1.5450   14.4380 C.3   125  LEU125      0.0270
     67  CG         0.7950   -1.0700   13.3080 C.3   125  LEU125      0.0019
     68  CD1       -0.6080   -1.6090   13.4460 C.3   125  LEU125      0.0001
     69  CD2        0.7820    0.4330   13.2770 C.3   125  LEU125      0.0001
     70  N          6.4300    5.0730    3.6680 N.3   219  ASP219     -0.1239
     71  CA         5.5690    4.6300    4.7700 C.3   219  ASP219      0.1674
     72  C          4.7810    3.3790    4.4010 C.2   219  ASP219      0.2266
     73  O          3.7140    3.4460    3.7720 O.2   219  ASP219     -0.2867
     74  CB         4.6130    5.7640    5.1580 C.3   219  ASP219      0.1410
     75  CG         3.7450    5.4170    6.3530 C.2   219  ASP219      0.3668
     76  OD1        2.9110    6.2740    6.7450 O.co2 219  ASP219     -0.2456
     77  OD2        3.8960    4.3030    6.9090 O.co2 219  ASP219     -0.2456
     78  N          3.1010    1.5790    6.2810 N.3   221  GLY221     -0.1210
     79  CA         1.8650    1.5070    7.0330 C.3   221  GLY221      0.1956
     80  C          0.7380    2.3830    6.5140 C.2   221  GLY221      0.2612
     81  O         -0.3510    2.3620    7.0900 O.2   221  GLY221     -0.2717
     82  N          0.9820    3.1340    5.4400 N.am  222  THR222     -0.1952
     83  CA        -0.0610    3.8990    4.7570 C.3   222  THR222      0.1897
     84  C         -0.3920    3.1880    3.4490 C.2   222  THR222      0.2313
     85  O          0.5020    2.7940    2.7150 O.2   222  THR222     -0.2863
     86  CB         0.4150    5.3440    4.4660 C.3   222  THR222      0.1794
     87  OG1        0.4940    6.0740    5.6900 O.3   222  THR222     -0.2208
     88  CG2       -0.5680    6.0710    3.5610 C.3   222  THR222      0.0378
@<TRIPOS>BOND
     1    85    84    2
     2    84    83    1
     3    88    86    1
     4    70    71    1
     5    73    72    2
     6    72    71    1
     7    86    83    1
     8    86    87    1
     9    83    82    1
    10    71    74    1
    11    74    75    1
    12    82    80   am
    13    78    79    1
    14    75    76   ar
    15    75    77   ar
    16    80    79    1
    17    80    81    2
    18     7     6   ar
    19    17    18    1
    20     8     6   ar
    21     6     5    1
    22    15    14   ar
    23    41    38    1
    24    41    42    1
    25    18    19    1
    26    10    11    1
    27    10     9    1
    28    10    13    1
    29    11    12    2
    30    36    35    2
    31    38    37    1
    32    38    39    1
    33    35    37   am
    34    35    34    1
    35     2     5    1
    36     2     3    1
    37     2     1    1
    38    44    42   ar
    39    14    13    1
    40    14    16   ar
    41     3     4    2
    42    42    43   ar
    43    34    33    1
    44    19    20    2
    45    40    39    2
    46    33    23   am
    47    23    24    2
    48    23    22    1
    49    25    22    1
    50    25    26    1
    51    69    67    1
    52    67    68    1
    53    67    66    1
    54    22    21    1
    55    50    49    1
    56    28    26   ar
    57    28    30   ar
    58    26    27   ar
    59    45    46    1
    60    49    46    1
    61    59    57   ar
    62    59    61   ar
    63    30    31   ar
    64    66    63    1
    65    63    64    1
    66    63    62    1
    67    51    52    1
    68    57    56   ar
    69    61    60   ar
    70    54    53    2
    71    27    29   ar
    72    46    47    1
    73    52    53    1
    74    52    55    1
    75    64    65    2
    76    31    29   ar
    77    31    32    1
    78    56    55    1
    79    56    58   ar
    80    60    58   ar
    81    48    47    2
