@<TRIPOS>MOLECULE
tmp/4y3fA00.pdb
 106 98 0 0 0
SMALL
GASTEIGER

@<TRIPOS>ATOM
      1  N         28.8290   -6.1990   61.0230 N.3    33  ASP33      -0.1239
      2  CA        28.9640   -5.2620   59.9150 C.3    33  ASP33       0.1674
      3  C         30.2870   -4.5280   60.0760 C.2    33  ASP33       0.2266
      4  O         30.4310   -3.6960   60.9690 O.2    33  ASP33      -0.2867
      5  CB        27.7660   -4.3080   59.9810 C.3    33  ASP33       0.1410
      6  CG        27.6850   -3.3220   58.8390 C.2    33  ASP33       0.3668
      7  OD1       28.6290   -3.2090   58.0380 O.co2  33  ASP33      -0.2456
      8  OD2       26.6260   -2.6460   58.7630 O.co2  33  ASP33      -0.2456
      9  N         32.8190   -1.8300   59.5380 N.3    35  ASP35      -0.1239
     10  CA        32.4730   -0.4380   59.2670 C.3    35  ASP35       0.1674
     11  C         33.7010    0.4500   59.3330 C.2    35  ASP35       0.2266
     12  O         34.1420    0.8180   60.4090 O.2    35  ASP35      -0.2867
     13  CB        31.4340    0.0130   60.2990 C.3    35  ASP35       0.1410
     14  CG        31.0080    1.4530   60.1250 C.2    35  ASP35       0.3668
     15  OD1       31.3390    2.0260   59.0770 O.co2  35  ASP35      -0.2456
     16  OD2       30.3340    1.9860   61.0450 O.co2  35  ASP35      -0.2456
     17  N         24.9100    7.0450   64.9540 N.3    79  TYR79      -0.1227
     18  CA        25.4010    7.0090   63.5860 C.3    79  TYR79       0.1736
     19  C         24.6940    8.0400   62.7180 C.2    79  TYR79       0.2596
     20  O         23.6580    8.5880   63.1010 O.2    79  TYR79      -0.2718
     21  CB        25.2100    5.6070   63.0070 C.3    79  TYR79       0.0548
     22  CG        25.9820    4.5360   63.7580 C.ar   79  TYR79      -0.0200
     23  CD1       25.3470    3.6830   64.6390 C.ar   79  TYR79      -0.0009
     24  CD2       27.3500    4.3950   63.5770 C.ar   79  TYR79      -0.0009
     25  CE1       26.0550    2.7130   65.3290 C.ar   79  TYR79       0.0417
     26  CE2       28.0690    3.4290   64.2510 C.ar   79  TYR79       0.0417
     27  CZ        27.4120    2.5880   65.1220 C.ar   79  TYR79       0.1957
     28  OH        28.1120    1.6260   65.8160 O.3    79  TYR79      -0.2866
     29  N         25.2570    8.2870   61.5390 N.am   80  GLY80      -0.1942
     30  CA        24.7670    9.3170   60.6380 C.3    80  GLY80       0.2014
     31  C         23.3560    9.1110   60.1200 C.2    80  GLY80       0.2638
     32  O         22.7040   10.0720   59.7110 O.2    80  GLY80      -0.2714
     33  N         22.8830    7.8690   60.1210 N.am   81  ASP81      -0.1971
     34  CA        21.5270    7.5660   59.6590 C.3    81  ASP81       0.1709
     35  C         20.5060    7.7450   60.7790 C.2    81  ASP81       0.2293
     36  O         19.3120    7.5420   60.5710 O.2    81  ASP81      -0.2864
     37  CB        21.4490    6.1300   59.1390 C.3    81  ASP81       0.1436
     38  CG        21.5090    5.1050   60.2550 C.2    81  ASP81       0.3671
     39  OD1       22.1990    5.3730   61.2600 O.co2  81  ASP81      -0.2456
     40  OD2       20.8620    4.0330   60.1370 O.co2  81  ASP81      -0.2456
     41  N         20.5950    6.0110   63.6640 N.3    83  SER83      -0.1217
     42  CA        20.5680    4.8340   64.5200 C.3    83  SER83       0.1889
     43  C         21.5390    5.0030   65.6880 C.2    83  SER83       0.2288
     44  O         22.4160    5.8790   65.6700 O.2    83  SER83      -0.2866
     45  CB        20.9130    3.5840   63.7190 C.3    83  SER83       0.2089
     46  OG        22.2490    3.6330   63.2710 O.3    83  SER83      -0.2183
     47  N         16.0280    0.5000   64.3770 N.3   115  SER115     -0.1202
     48  CA        16.5570    0.0640   63.0890 C.3   115  SER115      0.2020
     49  C         17.4530   -1.1700   63.2440 C.2   115  SER115      0.2618
     50  O         17.4930   -2.0270   62.3660 O.2   115  SER115     -0.2717
     51  CB        17.3360    1.1980   62.4330 C.3   115  SER115      0.2103
     52  OG        18.3650    1.6390   63.3010 O.3   115  SER115     -0.2182
     53  N         18.1860   -1.2530   64.3510 N.am  116  PHE116     -0.1975
     54  CA        18.9990   -2.4350   64.6070 C.3   116  PHE116      0.1639
     55  C         18.1110   -3.6250   64.9760 C.2   116  PHE116      0.2290
     56  O         18.2720   -4.7130   64.4460 O.2   116  PHE116     -0.2864
     57  CB        20.0430   -2.1540   65.6920 C.3   116  PHE116      0.0560
     58  CG        21.1940   -1.2860   65.2250 C.ar  116  PHE116     -0.0200
     59  CD1       22.0710   -1.7430   64.2540 C.ar  116  PHE116     -0.0042
     60  CD2       21.3920   -0.0240   65.7510 C.ar  116  PHE116     -0.0042
     61  CE1       23.1200   -0.9770   63.8200 C.ar  116  PHE116     -0.0003
     62  CE2       22.4560    0.7570   65.3190 C.ar  116  PHE116     -0.0003
     63  CZ        23.3080    0.2840   64.3460 C.ar  116  PHE116     -0.0000
     64  N         16.4270   -5.4030   62.0200 N.3   119  ASP119     -0.1239
     65  CA        17.2690   -6.1330   61.0800 C.3   119  ASP119      0.1674
     66  C         17.9120   -7.3410   61.7620 C.2   119  ASP119      0.2266
     67  O         18.9190   -7.2160   62.4530 O.2   119  ASP119     -0.2867
     68  CB        18.3550   -5.2190   60.5350 C.3   119  ASP119      0.1410
     69  CG        19.2990   -5.9330   59.6080 C.2   119  ASP119      0.3668
     70  OD1       18.9680   -7.0350   59.1280 O.co2 119  ASP119     -0.2456
     71  OD2       20.3890   -5.3850   59.3710 O.co2 119  ASP119     -0.2456
     72  N         22.1100   -8.5470   61.2520 N.3   122  ILE122     -0.1245
     73  CA        23.3050   -7.8730   61.7640 C.3   122  ILE122      0.1561
     74  C         23.3570   -8.0080   63.2820 C.2   122  ILE122      0.2260
     75  O         22.4720   -7.5280   63.9900 O.2   122  ILE122     -0.2867
     76  CB        23.3310   -6.4020   61.2970 C.3   122  ILE122      0.0252
     77  CG1       23.6260   -6.3650   59.7930 C.3   122  ILE122      0.0019
     78  CG2       24.3670   -5.5840   62.0530 C.3   122  ILE122      0.0019
     79  CD1       23.5380   -5.0010   59.1570 C.3   122  ILE122      0.0001
     80  N         28.4180   -4.3560   65.0620 N.3   125  LEU125     -0.1245
     81  CA        29.3580   -3.6830   64.1740 C.3   125  LEU125      0.1561
     82  C         30.7890   -3.9450   64.6260 C.2   125  LEU125      0.2260
     83  O         31.0600   -4.1080   65.8270 O.2   125  LEU125     -0.2867
     84  CB        29.1040   -2.1630   64.1380 C.3   125  LEU125      0.0270
     85  CG        28.1560   -1.6690   63.0310 C.3   125  LEU125      0.0019
     86  CD1       26.7460   -2.2280   63.1950 C.3   125  LEU125      0.0001
     87  CD2       28.1390   -0.1420   62.9740 C.3   125  LEU125      0.0001
     88  N         33.9910    4.3880   53.3080 N.3   219  ASP219     -0.1239
     89  CA        33.1410    3.9220   54.3950 C.3   219  ASP219      0.1674
     90  C         32.3660    2.6640   54.0290 C.2   219  ASP219      0.2266
     91  O         31.2910    2.7180   53.4050 O.2   219  ASP219     -0.2867
     92  CB        32.1640    5.0240   54.8000 C.3   219  ASP219      0.1410
     93  CG        31.3410    4.6480   56.0050 C.2   219  ASP219      0.3668
     94  OD1       30.5070    5.4850   56.4190 O.co2 219  ASP219     -0.2456
     95  OD2       31.5460    3.5250   56.5450 O.co2 219  ASP219     -0.2456
     96  N         30.6780    0.9130   55.9240 N.3   221  GLY221     -0.1210
     97  CA        29.4530    0.8250   56.7040 C.3   221  GLY221      0.1956
     98  C         28.3240    1.7130   56.2360 C.2   221  GLY221      0.2612
     99  O         27.2740    1.7430   56.8620 O.2   221  GLY221     -0.2717
    100  N         28.5240    2.4120   55.1250 N.am  222  THR222     -0.1952
    101  CA        27.4610    3.1810   54.4810 C.3   222  THR222      0.1897
    102  C         27.1380    2.5100   53.1450 C.2   222  THR222      0.2313
    103  O         28.0420    2.1500   52.4040 O.2   222  THR222     -0.2863
    104  CB        27.8940    4.6460   54.2780 C.3   222  THR222      0.1794
    105  OG1       27.9660    5.2900   55.5490 O.3   222  THR222     -0.2208
    106  CG2       26.8990    5.4080   53.4170 C.3   222  THR222      0.0378
@<TRIPOS>BOND
     1   103   102    2
     2   102   101    1
     3    88    89    1
     4    91    90    2
     5   106   104    1
     6    90    89    1
     7   104   101    1
     8   104   105    1
     9    89    92    1
    10   101   100    1
    11    92    93    1
    12   100    98   am
    13    96    97    1
    14    93    94   ar
    15    93    95   ar
    16    98    97    1
    17    98    99    2
    18     7     6   ar
    19     8     6   ar
    20     6     5    1
    21    15    14   ar
    22    70    69   ar
    23    37    34    1
    24    37    38    1
    25    79    77    1
    26    10    11    1
    27    10     9    1
    28    10    13    1
    29    11    12    2
    30    71    69   ar
    31    69    68    1
    32    34    33    1
    33    34    35    1
    34    32    31    2
    35    77    76    1
    36     2     5    1
    37     2     3    1
    38     2     1    1
    39     3     4    2
    40    31    33   am
    41    31    30    1
    42    14    13    1
    43    14    16   ar
    44    40    38   ar
    45    38    39   ar
    46    68    65    1
    47    36    35    2
    48    30    29    1
    49    65    66    1
    50    65    64    1
    51    72    73    1
    52    76    73    1
    53    76    78    1
    54    29    19   am
    55    66    67    2
    56    73    74    1
    57    50    49    2
    58    51    48    1
    59    51    52    1
    60    19    20    2
    61    19    18    1
    62    87    85    1
    63    21    18    1
    64    21    22    1
    65    85    86    1
    66    85    84    1
    67    48    49    1
    68    48    47    1
    69    49    53   am
    70    46    45    1
    71    74    75    2
    72    24    22   ar
    73    24    26   ar
    74    18    17    1
    75    41    42    1
    76    45    42    1
    77    22    23   ar
    78    61    59   ar
    79    61    63   ar
    80    84    81    1
    81    81    82    1
    82    81    80    1
    83    26    27   ar
    84    59    58   ar
    85    63    62   ar
    86    53    54    1
    87    56    55    2
    88    42    43    1
    89    54    55    1
    90    54    57    1
    91    82    83    2
    92    23    25   ar
    93    27    25   ar
    94    27    28    1
    95    58    57    1
    96    58    60   ar
    97    62    60   ar
    98    44    43    2
