@<TRIPOS>MOLECULE
tmp/4y3gA00.pdb
 106 98 0 0 0
SMALL
GASTEIGER

@<TRIPOS>ATOM
      1  N         22.4950   -2.8290  112.9700 N.3    33  ASP33      -0.1239
      2  CA        22.3730   -1.8960  114.0790 C.3    33  ASP33       0.1674
      3  C         21.0440   -1.1490  113.9180 C.2    33  ASP33       0.2266
      4  O         20.8850   -0.3080  113.0120 O.2    33  ASP33      -0.2867
      5  CB        23.5690   -0.9420  114.0210 C.3    33  ASP33       0.1410
      6  CG        23.6690    0.0040  115.1990 C.2    33  ASP33       0.3668
      7  OD1       22.6980    0.1410  115.9760 O.co2  33  ASP33      -0.2456
      8  OD2       24.7450    0.6490  115.3010 O.co2  33  ASP33      -0.2456
      9  N         18.5580    1.5540  114.4850 N.3    35  ASP35      -0.1239
     10  CA        18.8800    2.9450  114.7690 C.3    35  ASP35       0.1674
     11  C         17.6640    3.8490  114.7120 C.2    35  ASP35       0.2266
     12  O         17.2210    4.2300  113.6320 O.2    35  ASP35      -0.2867
     13  CB        19.9170    3.4190  113.7400 C.3    35  ASP35       0.1410
     14  CG        20.3490    4.8490  113.9520 C.2    35  ASP35       0.3668
     15  OD1       20.0710    5.3940  115.0300 O.co2  35  ASP35      -0.2456
     16  OD2       21.0050    5.4110  113.0440 O.co2  35  ASP35      -0.2456
     17  N         26.6300   10.3840  109.2870 N.3    79  TYR79      -0.1227
     18  CA        26.1620   10.2400  110.6580 C.3    79  TYR79       0.1736
     19  C         26.9000   11.1810  111.6060 C.2    79  TYR79       0.2596
     20  O         27.9120   11.7770  111.2400 O.2    79  TYR79      -0.2718
     21  CB        26.3200    8.7880  111.1040 C.3    79  TYR79       0.0548
     22  CG        25.4820    7.8020  110.3140 C.ar   79  TYR79      -0.0200
     23  CD1       26.0580    7.0050  109.3370 C.ar   79  TYR79      -0.0009
     24  CD2       24.1190    7.6760  110.5430 C.ar   79  TYR79      -0.0009
     25  CE1       25.3140    6.1060  108.6150 C.ar   79  TYR79       0.0417
     26  CE2       23.3510    6.7700  109.8260 C.ar   79  TYR79       0.0417
     27  CZ        23.9560    5.9880  108.8600 C.ar   79  TYR79       0.1957
     28  OH        23.2330    5.0740  108.1160 O.3    79  TYR79      -0.2866
     29  N         26.3840   11.3090  112.8260 N.am   80  GLY80      -0.1942
     30  CA        26.8960   12.2790  113.7800 C.3    80  GLY80       0.2014
     31  C         28.3310   12.0670  114.2250 C.2    80  GLY80       0.2638
     32  O         28.9580   12.9780  114.7670 O.2    80  GLY80      -0.2714
     33  N         28.8480   10.8640  114.0080 N.am   81  ASP81      -0.1971
     34  CA        30.2240   10.5390  114.3650 C.3    81  ASP81       0.1709
     35  C         31.1840   10.7810  113.2050 C.2    81  ASP81       0.2293
     36  O         32.3680   10.4630  113.2980 O.2    81  ASP81      -0.2864
     37  CB        30.3230    9.0820  114.8280 C.3    81  ASP81       0.1436
     38  CG        30.0020    8.0860  113.7220 C.2    81  ASP81       0.3671
     39  OD1       29.4720    8.5050  112.6750 O.co2  81  ASP81      -0.2456
     40  OD2       30.2680    6.8740  113.9030 O.co2  81  ASP81      -0.2456
     41  N         30.9620    9.3730  110.2680 N.3    83  SER83      -0.1217
     42  CA        30.9800    8.2340  109.3550 C.3    83  SER83       0.1889
     43  C         29.9490    8.4300  108.2420 C.2    83  SER83       0.2288
     44  O         29.0770    9.3060  108.3220 O.2    83  SER83      -0.2866
     45  CB        30.7230    6.9240  110.1060 C.3    83  SER83       0.2089
     46  OG        29.4010    6.8570  110.5910 O.3    83  SER83      -0.2183
     47  N         35.3550    3.8690  109.6400 N.3   115  SER115     -0.1202
     48  CA        34.8590    3.3630  110.9080 C.3   115  SER115      0.2020
     49  C         33.9260    2.1860  110.7080 C.2   115  SER115      0.2618
     50  O         33.8820    1.3050  111.5500 O.2   115  SER115     -0.2717
     51  CB        34.1730    4.4650  111.7070 C.3   115  SER115      0.2103
     52  OG        35.1450    5.3540  112.2250 O.3   115  SER115     -0.2182
     53  N         33.2030    2.1550  109.5930 N.am  116  PHE116     -0.1975
     54  CA        32.3430    1.0120  109.3000 C.3   116  PHE116      0.1639
     55  C         33.2120   -0.1940  108.9340 C.2   116  PHE116      0.2290
     56  O         33.0100   -1.2900  109.4460 O.2   116  PHE116     -0.2864
     57  CB        31.3300    1.3460  108.1960 C.3   116  PHE116      0.0560
     58  CG        30.1850    2.2000  108.6690 C.ar  116  PHE116     -0.0200
     59  CD1       29.2820    1.7110  109.5880 C.ar  116  PHE116     -0.0042
     60  CD2       30.0190    3.4960  108.2060 C.ar  116  PHE116     -0.0042
     61  CE1       28.2400    2.4870  110.0360 C.ar  116  PHE116     -0.0003
     62  CE2       28.9670    4.2700  108.6540 C.ar  116  PHE116     -0.0003
     63  CZ        28.0830    3.7660  109.5710 C.ar  116  PHE116     -0.0000
     64  N         34.8220   -1.9200  111.9290 N.3   119  ASP119     -0.1239
     65  CA        33.9510   -2.6370  112.8540 C.3   119  ASP119      0.1674
     66  C         33.3570   -3.8620  112.1720 C.2   119  ASP119      0.2266
     67  O         32.3620   -3.7720  111.4520 O.2   119  ASP119     -0.2867
     68  CB        32.8450   -1.7230  113.3520 C.3   119  ASP119      0.1410
     69  CG        31.9040   -2.4150  114.2950 C.2   119  ASP119      0.3668
     70  OD1       30.8550   -1.8190  114.5900 O.co2 119  ASP119     -0.2456
     71  OD2       32.1910   -3.5430  114.7490 O.co2 119  ASP119     -0.2456
     72  N         29.2510   -5.1130  112.7030 N.3   122  ILE122     -0.1245
     73  CA        28.0490   -4.4530  112.1960 C.3   122  ILE122      0.1561
     74  C         27.9990   -4.5860  110.6710 C.2   122  ILE122      0.2260
     75  O         28.8820   -4.0880  109.9570 O.2   122  ILE122     -0.2867
     76  CB        28.0050   -2.9740  112.6620 C.3   122  ILE122      0.0252
     77  CG1       27.7740   -2.9410  114.1810 C.3   122  ILE122      0.0019
     78  CG2       26.9200   -2.2150  111.9370 C.3   122  ILE122      0.0019
     79  CD1       27.7340   -1.5600  114.8140 C.3   122  ILE122      0.0001
     80  N         22.8570   -0.9980  108.8970 N.3   125  LEU125     -0.1245
     81  CA        21.9400   -0.3010  109.7990 C.3   125  LEU125      0.1561
     82  C         20.5050   -0.5530  109.3680 C.2   125  LEU125      0.2260
     83  O         20.2010   -0.7190  108.1820 O.2   125  LEU125     -0.2867
     84  CB        22.2070    1.2230  109.7970 C.3   125  LEU125      0.0270
     85  CG        23.1760    1.7190  110.8730 C.3   125  LEU125      0.0019
     86  CD1       24.5720    1.1490  110.6660 C.3   125  LEU125      0.0001
     87  CD2       23.2280    3.2260  110.8710 C.3   125  LEU125      0.0001
     88  N         17.4360    7.7850  120.7350 N.3   219  ASP219     -0.1239
     89  CA        18.2850    7.3360  119.6370 C.3   219  ASP219      0.1674
     90  C         19.0510    6.0690  120.0040 C.2   219  ASP219      0.2266
     91  O         20.1170    6.1120  120.6380 O.2   219  ASP219     -0.2867
     92  CB        19.2290    8.4610  119.2400 C.3   219  ASP219      0.1410
     93  CG        20.0770    8.1150  118.0400 C.2   219  ASP219      0.3668
     94  OD1       20.9390    8.9330  117.6690 O.co2 219  ASP219     -0.2456
     95  OD2       19.8660    7.0250  117.4670 O.co2 219  ASP219     -0.2456
     96  N         20.7580    4.2760  118.0980 N.3   221  GLY221     -0.1210
     97  CA        21.9990    4.1860  117.3450 C.3   221  GLY221      0.1956
     98  C         23.1190    5.0770  117.8540 C.2   221  GLY221      0.2612
     99  O         24.1890    5.1150  117.2400 O.2   221  GLY221     -0.2717
    100  N         22.8950    5.7880  118.9540 N.am  222  THR222     -0.1952
    101  CA        23.9340    6.5760  119.6120 C.3   222  THR222      0.1897
    102  C         24.2790    5.8940  120.9400 C.2   222  THR222      0.2313
    103  O         23.3810    5.5110  121.6820 O.2   222  THR222     -0.2863
    104  CB        23.4810    8.0370  119.8420 C.3   222  THR222      0.1794
    105  OG1       23.3990    8.6920  118.5690 O.3   222  THR222     -0.2208
    106  CG2       24.4640    8.8020  120.7210 C.3   222  THR222      0.0378
@<TRIPOS>BOND
     1    28    27    1
     2    83    82    2
     3    57    58    1
     4    57    54    1
     5    60    62   ar
     6    60    58   ar
     7    43    44    2
     8    43    42    1
     9    25    27   ar
    10    25    23   ar
    11    62    63   ar
    12    58    59   ar
    13    27    26   ar
    14    80    81    1
    15    55    54    1
    16    55    56    2
    17    17    18    1
    18    54    53    1
    19    23    22   ar
    20    42    45    1
    21    42    41    1
    22    82    81    1
    23    63    61   ar
    24    59    61   ar
    25    53    49   am
    26    47    48    1
    27    84    81    1
    28    84    85    1
    29    26    24   ar
    30    75    74    2
    31    45    46    1
    32    22    24   ar
    33    22    21    1
    34    18    21    1
    35    18    19    1
    36    86    85    1
    37    74    73    1
    38    49    48    1
    39    49    50    2
    40    87    85    1
    41    48    51    1
    42    20    19    2
    43    67    66    2
    44    19    29   am
    45    51    52    1
    46    64    65    1
    47    78    76    1
    48    66    65    1
    49    73    76    1
    50    73    72    1
    51    76    77    1
    52    39    38   ar
    53    29    30    1
    54    65    68    1
    55     1     2    1
    56     4     3    2
    57    16    14   ar
    58    35    36    2
    59    35    34    1
    60    68    69    1
    61    12    11    2
    62    38    40   ar
    63    38    37    1
    64    13    14    1
    65    13    10    1
    66    30    31    1
    67     3     2    1
    68    14    15   ar
    69    33    31   am
    70    33    34    1
    71     5     2    1
    72     5     6    1
    73    77    79    1
    74    31    32    2
    75    69    70   ar
    76    69    71   ar
    77    34    37    1
    78     9    10    1
    79    11    10    1
    80     6     8   ar
    81     6     7   ar
    82    99    98    2
    83    97    98    1
    84    97    96    1
    85    95    93   ar
    86    94    93   ar
    87    98   100   am
    88    93    92    1
    89   105   104    1
    90   100   101    1
    91    92    89    1
    92   101   104    1
    93   101   102    1
    94    89    90    1
    95    89    88    1
    96   104   106    1
    97    90    91    2
    98   102   103    2
