@<TRIPOS>MOLECULE
tmp/4y3hA00.pdb
 96 88 0 0 0
SMALL
GASTEIGER

@<TRIPOS>ATOM
      1  N         29.3390   -4.2640   60.8910 N.3    33  ASP33      -0.1239
      2  CA        29.4360   -3.3250   59.7790 C.3    33  ASP33       0.1674
      3  C         30.7570   -2.5730   59.9140 C.2    33  ASP33       0.2266
      4  O         30.9210   -1.7310   60.8110 O.2    33  ASP33      -0.2867
      5  CB        28.2390   -2.3790   59.8770 C.3    33  ASP33       0.1410
      6  CG        28.1290   -1.3900   58.7380 C.2    33  ASP33       0.3668
      7  OD1       29.0470   -1.2650   57.9110 O.co2  33  ASP33      -0.2456
      8  OD2       27.0710   -0.7130   58.7130 O.co2  33  ASP33      -0.2456
      9  N         33.2880    0.1180   59.3350 N.3    35  ASP35      -0.1239
     10  CA        32.9590    1.5050   59.0680 C.3    35  ASP35       0.1674
     11  C         34.2050    2.3880   59.1060 C.2    35  ASP35       0.2266
     12  O         34.6480    2.7990   60.1790 O.2    35  ASP35      -0.2867
     13  CB        31.9410    1.9910   60.1010 C.3    35  ASP35       0.1410
     14  CG        31.5360    3.4290   59.9020 C.2    35  ASP35       0.3668
     15  OD1       31.8380    3.9770   58.8250 O.co2  35  ASP35      -0.2456
     16  OD2       30.8730    3.9690   60.8250 O.co2  35  ASP35      -0.2456
     17  N         34.3550    5.3620   58.4650 N.3    37  GLY37      -0.1225
     18  CA        33.9400    6.6890   58.8750 C.3    37  GLY37       0.1811
     19  C         33.6740    6.8710   60.3620 C.2    37  GLY37       0.2280
     20  O         33.1880    7.9230   60.7690 O.2    37  GLY37      -0.2866
     21  N         25.5390    9.1760   64.7050 N.3    79  TYR79      -0.1227
     22  CA        26.0170    9.1540   63.3320 C.3    79  TYR79       0.1736
     23  C         25.2910   10.1840   62.4730 C.2    79  TYR79       0.2596
     24  O         24.2550   10.7180   62.8660 O.2    79  TYR79      -0.2718
     25  CB        25.8340    7.7640   62.7490 C.3    79  TYR79       0.0548
     26  CG        26.5970    6.6900   63.5000 C.ar   79  TYR79      -0.0200
     27  CD1       27.9580    6.5130   63.2990 C.ar   79  TYR79      -0.0009
     28  CD2       25.9510    5.8420   64.3840 C.ar   79  TYR79      -0.0009
     29  CE1       28.6650    5.5190   63.9730 C.ar   79  TYR79       0.0417
     30  CE2       26.6350    4.8460   65.0580 C.ar   79  TYR79       0.0417
     31  CZ        27.9880    4.6850   64.8470 C.ar   79  TYR79       0.1957
     32  OH        28.6410    3.6830   65.5270 O.3    79  TYR79      -0.2866
     33  N         25.8390   10.4430   61.2900 N.am   80  GLY80      -0.1942
     34  CA        25.3350   11.4850   60.4130 C.3    80  GLY80       0.2014
     35  C         23.8960   11.2980   59.9790 C.2    80  GLY80       0.2638
     36  O         23.2390   12.2600   59.5770 O.2    80  GLY80      -0.2714
     37  N         23.4030   10.0670   60.0510 N.am   81  ASP81      -0.1971
     38  CA        22.0500    9.7560   59.6090 C.3    81  ASP81       0.1709
     39  C         21.0300    9.8670   60.7410 C.2    81  ASP81       0.2293
     40  O         19.8510    9.5600   60.5550 O.2    81  ASP81      -0.2864
     41  CB        22.0070    8.3610   58.9810 C.3    81  ASP81       0.1436
     42  CG        22.3290    7.2560   59.9670 C.2    81  ASP81       0.3671
     43  OD1       22.7070    7.5450   61.1190 O.co2  81  ASP81      -0.2456
     44  OD2       22.2040    6.0790   59.5750 O.co2  81  ASP81      -0.2456
     45  N         21.1000    8.2050   63.5840 N.3    83  SER83      -0.1217
     46  CA        21.1070    7.0220   64.4400 C.3    83  SER83       0.1889
     47  C         22.1240    7.1850   65.5710 C.2    83  SER83       0.2288
     48  O         23.0290    8.0170   65.5010 O.2    83  SER83      -0.2866
     49  CB        21.3980    5.7520   63.6400 C.3    83  SER83       0.2089
     50  OG        22.7110    5.7370   63.1190 O.3    83  SER83      -0.2183
     51  N         18.8560    0.8550   64.2140 N.3   116  PHE116     -0.1241
     52  CA        19.6810   -0.3060   64.5320 C.3   116  PHE116      0.1605
     53  C         18.7990   -1.4920   64.9020 C.2   116  PHE116      0.2264
     54  O         18.9990   -2.6000   64.4070 O.2   116  PHE116     -0.2867
     55  CB        20.6940    0.0260   65.6250 C.3   116  PHE116      0.0534
     56  CG        21.7970    0.9240   65.1550 C.ar  116  PHE116     -0.0203
     57  CD1       22.6770    0.4970   64.1790 C.ar  116  PHE116     -0.0042
     58  CD2       21.9480    2.2030   65.6640 C.ar  116  PHE116     -0.0042
     59  CE1       23.6950    1.3110   63.7290 C.ar  116  PHE116     -0.0003
     60  CE2       22.9690    3.0210   65.2120 C.ar  116  PHE116     -0.0003
     61  CZ        23.8340    2.5750   64.2380 C.ar  116  PHE116     -0.0000
     62  N         28.9810   -2.3560   64.9380 N.3   125  LEU125     -0.1245
     63  CA        29.8840   -1.6770   64.0180 C.3   125  LEU125      0.1561
     64  C         31.3190   -1.8600   64.4680 C.2   125  LEU125      0.2260
     65  O         31.6020   -1.9140   65.6640 O.2   125  LEU125     -0.2867
     66  CB        29.5770   -0.1780   63.9440 C.3   125  LEU125      0.0270
     67  CG        28.6760    0.2640   62.7900 C.3   125  LEU125      0.0019
     68  CD1       27.2530   -0.2600   62.9180 C.3   125  LEU125      0.0001
     69  CD2       28.6770    1.7770   62.7120 C.3   125  LEU125      0.0001
     70  N         35.5060   12.0850   52.2310 N.3   217  ILE217     -0.1245
     71  CA        36.0080   10.9910   53.0480 C.3   217  ILE217      0.1561
     72  C         35.6920    9.6510   52.4120 C.2   217  ILE217      0.2260
     73  O         34.6470    9.4780   51.7820 O.2   217  ILE217     -0.2867
     74  CB        35.4810   11.0660   54.4950 C.3   217  ILE217      0.0252
     75  CG1       33.9660   10.8630   54.5970 C.3   217  ILE217      0.0019
     76  CG2       35.8900   12.3890   55.1210 C.3   217  ILE217      0.0019
     77  CD1       33.4810   10.6310   56.0120 C.3   217  ILE217      0.0001
     78  N         34.3810    6.3150   53.1230 N.3   219  ASP219     -0.1239
     79  CA        33.5210    5.8740   54.2200 C.3   219  ASP219      0.1674
     80  C         32.7450    4.6070   53.8560 C.2   219  ASP219      0.2266
     81  O         31.6720    4.6640   53.2490 O.2   219  ASP219     -0.2867
     82  CB        32.5610    6.9860   54.6180 C.3   219  ASP219      0.1410
     83  CG        31.7160    6.6320   55.8020 C.2   219  ASP219      0.3668
     84  OD1       31.9060    5.5300   56.3580 O.co2 219  ASP219     -0.2456
     85  OD2       30.8790    7.4770   56.1890 O.co2 219  ASP219     -0.2456
     86  N         31.0810    2.8140   55.7500 N.3   221  GLY221     -0.1210
     87  CA        29.8490    2.7230   56.5100 C.3   221  GLY221      0.1956
     88  C         28.7110    3.5910   55.9980 C.2   221  GLY221      0.2612
     89  O         27.6350    3.5790   56.5970 O.2   221  GLY221     -0.2717
     90  N         28.9280    4.3280   54.9110 N.am  222  THR222     -0.1952
     91  CA        27.8800    5.0980   54.2580 C.3   222  THR222      0.1897
     92  C         27.5480    4.4130   52.9450 C.2   222  THR222      0.2313
     93  O         28.4450    4.0410   52.1970 O.2   222  THR222     -0.2863
     94  CB        28.3360    6.5580   54.0370 C.3   222  THR222      0.1794
     95  OG1       28.4110    7.2150   55.3060 O.3   222  THR222     -0.2208
     96  CG2       27.3580    7.3160   53.1490 C.3   222  THR222      0.0378
@<TRIPOS>BOND
     1    73    72    2
     2    93    92    2
     3    70    71    1
     4    72    71    1
     5    92    91    1
     6    71    74    1
     7    78    79    1
     8    96    94    1
     9    81    80    2
    10    80    79    1
    11    94    91    1
    12    94    95    1
    13    79    82    1
    14    91    90    1
    15    74    75    1
    16    74    76    1
    17    75    77    1
    18    82    83    1
    19    90    88   am
    20    86    87    1
    21    83    85   ar
    22    83    84   ar
    23    88    87    1
    24    88    89    2
    25     7     6   ar
    26    17    18    1
    27     8     6   ar
    28     6     5    1
    29    15    14   ar
    30    18    19    1
    31    41    38    1
    32    41    42    1
    33    10    11    1
    34    10     9    1
    35    10    13    1
    36    11    12    2
    37    44    42   ar
    38    36    35    2
    39    38    37    1
    40    38    39    1
    41     2     5    1
    42     2     3    1
    43     2     1    1
    44    14    13    1
    45    14    16   ar
    46     3     4    2
    47    42    43   ar
    48    35    37   am
    49    35    34    1
    50    19    20    2
    51    34    33    1
    52    40    39    2
    53    33    23   am
    54    23    24    2
    55    23    22    1
    56    69    67    1
    57    25    22    1
    58    25    26    1
    59    67    68    1
    60    67    66    1
    61    50    49    1
    62    27    26   ar
    63    27    29   ar
    64    22    21    1
    65    26    28   ar
    66    45    46    1
    67    49    46    1
    68    59    57   ar
    69    59    61   ar
    70    66    63    1
    71    29    31   ar
    72    63    64    1
    73    63    62    1
    74    57    56   ar
    75    51    52    1
    76    61    60   ar
    77    28    30   ar
    78    54    53    2
    79    46    47    1
    80    64    65    2
    81    52    53    1
    82    52    55    1
    83    31    30   ar
    84    31    32    1
    85    56    55    1
    86    56    58   ar
    87    60    58   ar
    88    48    47    2
