@<TRIPOS>MOLECULE
tmp/4y3jA00.pdb
 119 112 0 0 0
SMALL
GASTEIGER

@<TRIPOS>ATOM
      1  N         -5.0690   -3.6260    1.2840 N.3    15  ASP15      -0.1239
      2  CA        -5.2400   -2.4780    2.1820 C.3    15  ASP15       0.1674
      3  C         -4.0850   -2.3580    3.1770 C.2    15  ASP15       0.2266
      4  O         -3.7240   -1.2610    3.6080 O.2    15  ASP15      -0.2867
      5  CB        -6.5690   -2.5540    2.9250 C.3    15  ASP15       0.1410
      6  CG        -7.7360   -2.0510    2.0920 C.2    15  ASP15       0.3668
      7  OD1       -7.6030   -0.9950    1.4300 O.co2  15  ASP15      -0.2456
      8  OD2       -8.7940   -2.7160    2.0930 O.co2  15  ASP15      -0.2456
      9  N          1.4510   -5.6650   11.4190 N.3    33  ASP33      -0.1239
     10  CA         1.5260   -4.7410   10.2930 C.3    33  ASP33       0.1674
     11  C          2.8370   -3.9810   10.4190 C.2    33  ASP33       0.2266
     12  O          2.9930   -3.1430   11.3020 O.2    33  ASP33      -0.2867
     13  CB         0.3060   -3.8100   10.3830 C.3    33  ASP33       0.1410
     14  CG         0.2080   -2.8120    9.2570 C.2    33  ASP33       0.3668
     15  OD1        1.1120   -2.6950    8.4150 O.co2  33  ASP33      -0.2456
     16  OD2       -0.8550   -2.1230    9.2190 O.co2  33  ASP33      -0.2456
     17  N          5.3240   -1.2480    9.7650 N.3    35  ASP35      -0.1239
     18  CA         4.9660    0.1400    9.4670 C.3    35  ASP35       0.1674
     19  C          6.2060    1.0290    9.4890 C.2    35  ASP35       0.2266
     20  O          6.6280    1.4540   10.5570 O.2    35  ASP35      -0.2867
     21  CB         3.9610    0.6330   10.5160 C.3    35  ASP35       0.1410
     22  CG         3.5020    2.0590   10.2700 C.2    35  ASP35       0.3668
     23  OD1        3.7770    2.6020    9.1790 O.co2  35  ASP35      -0.2456
     24  OD2        2.8520    2.6290   11.1760 O.co2  35  ASP35      -0.2456
     25  N         -2.4400    7.6720   14.9030 N.3    79  TYR79      -0.1227
     26  CA        -1.9450    7.5850   13.5410 C.3    79  TYR79       0.1736
     27  C         -2.6690    8.5770   12.6340 C.2    79  TYR79       0.2596
     28  O         -3.6560    9.2080   13.0280 O.2    79  TYR79      -0.2718
     29  CB        -2.1240    6.1580   13.0350 C.3    79  TYR79       0.0548
     30  CG        -1.3550    5.1280   13.8400 C.ar   79  TYR79      -0.0200
     31  CD1       -0.0030    4.8960   13.5920 C.ar   79  TYR79      -0.0009
     32  CD2       -1.9650    4.3970   14.8580 C.ar   79  TYR79      -0.0009
     33  CE1        0.7110    3.9450   14.3090 C.ar   79  TYR79       0.0417
     34  CE2       -1.2520    3.4550   15.5950 C.ar   79  TYR79       0.0417
     35  CZ         0.0830    3.2380   15.3200 C.ar   79  TYR79       0.1957
     36  OH         0.7820    2.3000   16.0350 O.3    79  TYR79      -0.2866
     37  N         -2.1700    8.6990   11.4090 N.am   80  GLY80      -0.1942
     38  CA        -2.6640    9.6860   10.4660 C.3    80  GLY80       0.2014
     39  C         -4.0970    9.4720   10.0120 C.2    80  GLY80       0.2638
     40  O         -4.7310   10.4070    9.5080 O.2    80  GLY80      -0.2714
     41  N         -4.6100    8.2530   10.1760 N.am   81  ASP81      -0.1971
     42  CA        -5.9970    7.9510    9.8240 C.3    81  ASP81       0.1709
     43  C         -6.9500    8.1810   11.0000 C.2    81  ASP81       0.2293
     44  O         -8.1410    7.8890   10.9020 O.2    81  ASP81      -0.2864
     45  CB        -6.1300    6.5090    9.3020 C.3    81  ASP81       0.1436
     46  CG        -5.7700    5.4620   10.3440 C.2    81  ASP81       0.3671
     47  OD1       -5.3290    5.8410   11.4460 O.co2  81  ASP81      -0.2456
     48  OD2       -5.8970    4.2530   10.0480 O.co2  81  ASP81      -0.2456
     49  N         -6.7610    6.6720   13.9030 N.3    83  SER83      -0.1217
     50  CA        -6.7930    5.5160   14.7940 C.3    83  SER83       0.1889
     51  C         -5.7950    5.7130   15.9330 C.2    83  SER83       0.2288
     52  O         -4.8950    6.5480   15.8480 O.2    83  SER83      -0.2866
     53  CB        -6.5160    4.2200   14.0230 C.3    83  SER83       0.2089
     54  OG        -5.1900    4.1770   13.5520 O.3    83  SER83      -0.2183
     55  N         -9.0580   -0.5940   14.7420 N.3   116  PHE116     -0.1241
     56  CA        -8.2430   -1.7620   15.0880 C.3   116  PHE116      0.1605
     57  C         -9.1330   -2.9490   15.4630 C.2   116  PHE116      0.2264
     58  O         -8.9380   -4.0630   14.9760 O.2   116  PHE116     -0.2867
     59  CB        -7.2230   -1.4480   16.1920 C.3   116  PHE116      0.0534
     60  CG        -6.1090   -0.5550   15.7390 C.ar  116  PHE116     -0.0203
     61  CD1       -5.2280   -0.9760   14.7620 C.ar  116  PHE116     -0.0042
     62  CD2       -5.9500    0.7120   16.2690 C.ar  116  PHE116     -0.0042
     63  CE1       -4.2000   -0.1500   14.3300 C.ar  116  PHE116     -0.0003
     64  CE2       -4.9130    1.5400   15.8360 C.ar  116  PHE116     -0.0003
     65  CZ        -4.0540    1.1090   14.8670 C.ar  116  PHE116     -0.0000
     66  N          1.1090   -3.7820   15.4930 N.3   125  LEU125     -0.1245
     67  CA         1.9800   -3.0490   14.5760 C.3   125  LEU125      0.1561
     68  C          3.4310   -3.2730   14.9680 C.2   125  LEU125      0.2260
     69  O          3.7310   -3.4260   16.1440 O.2   125  LEU125     -0.2867
     70  CB         1.6750   -1.5420   14.6150 C.3   125  LEU125      0.0270
     71  CG         0.7230   -1.0550   13.5160 C.3   125  LEU125      0.0019
     72  CD1       -0.6820   -1.6490   13.6740 C.3   125  LEU125      0.0001
     73  CD2        0.6840    0.4380   13.4460 C.3   125  LEU125      0.0001
     74  N          6.3350    4.9370    3.4350 N.3   219  ASP219     -0.1239
     75  CA         5.4810    4.4930    4.5360 C.3   219  ASP219      0.1674
     76  C          4.7030    3.2330    4.1730 C.2   219  ASP219      0.2266
     77  O          3.6380    3.2870    3.5460 O.2   219  ASP219     -0.2867
     78  CB         4.4960    5.6050    4.9130 C.3   219  ASP219      0.1410
     79  CG         3.6930    5.2700    6.1460 C.2   219  ASP219      0.3668
     80  OD1        3.9020    4.1820    6.7380 O.co2 219  ASP219     -0.2456
     81  OD2        2.8640    6.1070    6.5330 O.co2 219  ASP219     -0.2456
     82  N          3.0090    1.4810    6.0980 N.3   221  GLY221     -0.1210
     83  CA         1.7750    1.4510    6.8590 C.3   221  GLY221      0.1956
     84  C          0.6470    2.3160    6.3240 C.2   221  GLY221      0.2613
     85  O         -0.4120    2.3560    6.9350 O.2   221  GLY221     -0.2717
     86  N          0.8780    3.0160    5.2130 N.am  222  THR222     -0.1938
     87  CA        -0.1670    3.7810    4.5440 C.3   222  THR222      0.2028
     88  C         -0.5070    3.0830    3.2350 C.2   222  THR222      0.2643
     89  O          0.3800    2.7040    2.4920 O.2   222  THR222     -0.2714
     90  CB         0.3060    5.2300    4.2860 C.3   222  THR222      0.1808
     91  OG1        0.3840    5.9270    5.5350 O.3   222  THR222     -0.2208
     92  CG2       -0.6510    5.9850    3.3790 C.3   222  THR222      0.0379
     93  N         -1.7990    2.8930    2.9590 N.am  223  THR223     -0.1936
     94  CA        -2.2200    2.1530    1.7820 C.3   223  THR223      0.2028
     95  C         -1.9370    2.8760    0.4790 C.2   223  THR223      0.2642
     96  O         -1.4480    2.2800   -0.4800 O.2   223  THR223     -0.2714
     97  CB        -3.7410    1.8700    1.8360 C.3   223  THR223      0.1808
     98  OG1       -4.0980    1.3740    3.1390 O.3   223  THR223     -0.2208
     99  CG2       -4.1580    0.8900    0.7530 C.3   223  THR223      0.0379
    100  N         -2.3100    4.1530    0.4300 N.am  224  LEU224     -0.1977
    101  CA        -2.3490    4.9100   -0.8220 C.3   224  LEU224      0.1596
    102  C         -1.1540    5.8260   -1.0300 C.2   224  LEU224      0.2287
    103  O         -0.2490    5.9130   -0.1990 O.2   224  LEU224     -0.2864
    104  CB        -3.6450    5.7240   -0.9040 C.3   224  LEU224      0.0297
    105  CG        -4.9260    4.9160   -0.6900 C.3   224  LEU224      0.0022
    106  CD1       -6.1600    5.7740   -0.8800 C.3   224  LEU224      0.0001
    107  CD2       -4.9710    3.6920   -1.6100 C.3   224  LEU224      0.0001
    108  N         -0.1280    9.6250   -1.5160 N.3   226  TYR226     -0.1241
    109  CA        -0.6290   10.9750   -1.2250 C.3   226  TYR226      0.1605
    110  C          0.3900   11.9910   -1.7000 C.2   226  TYR226      0.2264
    111  O          1.5250   12.0090   -1.2090 O.2   226  TYR226     -0.2867
    112  CB        -0.9000   11.1500    0.2770 C.3   226  TYR226      0.0534
    113  CG        -2.0300   10.2840    0.7870 C.ar  226  TYR226     -0.0201
    114  CD1       -1.7980    8.9990    1.2470 C.ar  226  TYR226     -0.0009
    115  CD2       -3.3460   10.7610    0.7940 C.ar  226  TYR226     -0.0009
    116  CE1       -2.8200    8.2130    1.6990 C.ar  226  TYR226      0.0417
    117  CE2       -4.3840    9.9760    1.2500 C.ar  226  TYR226      0.0417
    118  CZ        -4.1110    8.6970    1.7020 C.ar  226  TYR226      0.1957
    119  OH        -5.1340    7.8940    2.1640 O.3   226  TYR226     -0.2866
@<TRIPOS>BOND
     1   110   109    1
     2   110   111    2
     3   107   105    1
     4   108   109    1
     5   109   112    1
     6   102   101    1
     7   102   103    2
     8   104   101    1
     9   104   105    1
    10   106   105    1
    11   101   100    1
    12    96    95    2
    13   112   113    1
    14   100    95   am
    15    95    94    1
    16    99    97    1
    17   113   115   ar
    18   113   114   ar
    19   115   117   ar
    20   114   116   ar
    21   117   118   ar
    22     1     2    1
    23     7     6   ar
    24   116   118   ar
    25   118   119    1
    26    94    97    1
    27    94    93    1
    28    97    98    1
    29     6     8   ar
    30     6     5    1
    31     2     5    1
    32     2     3    1
    33    89    88    2
    34    93    88   am
    35     3     4    2
    36    88    87    1
    37    92    90    1
    38    74    75    1
    39    77    76    2
    40    76    75    1
    41    90    87    1
    42    90    91    1
    43    75    78    1
    44    87    86    1
    45    78    79    1
    46    86    84   am
    47    82    83    1
    48    79    81   ar
    49    79    80   ar
    50    84    83    1
    51    84    85    2
    52    15    14   ar
    53    23    22   ar
    54    16    14   ar
    55    14    13    1
    56    45    42    1
    57    45    46    1
    58    18    19    1
    59    18    17    1
    60    18    21    1
    61    19    20    2
    62    40    39    2
    63    42    41    1
    64    42    43    1
    65    39    41   am
    66    39    38    1
    67    48    46   ar
    68    22    21    1
    69    22    24   ar
    70    10    13    1
    71    10    11    1
    72    10     9    1
    73    46    47   ar
    74    11    12    2
    75    38    37    1
    76    44    43    2
    77    37    27   am
    78    27    28    2
    79    27    26    1
    80    29    26    1
    81    29    30    1
    82    73    71    1
    83    71    72    1
    84    71    70    1
    85    26    25    1
    86    54    53    1
    87    31    30   ar
    88    31    33   ar
    89    30    32   ar
    90    49    50    1
    91    53    50    1
    92    33    35   ar
    93    63    61   ar
    94    63    65   ar
    95    67    70    1
    96    67    68    1
    97    67    66    1
    98    55    56    1
    99    61    60   ar
   100    50    51    1
   101    32    34   ar
   102    65    64   ar
   103    68    69    2
   104    58    57    2
   105    56    57    1
   106    56    59    1
   107    35    34   ar
   108    35    36    1
   109    60    59    1
   110    60    62   ar
   111    64    62   ar
   112    52    51    2
