@<TRIPOS>MOLECULE
tmp/4y3lA01.pdb
 102 94 0 0 0
SMALL
GASTEIGER

@<TRIPOS>ATOM
      1  N          5.3440   -1.8790    9.7780 N.3    35  ASP35      -0.1239
      2  CA         5.0060   -0.4900    9.4850 C.3    35  ASP35       0.1674
      3  C          6.2460    0.3750    9.5440 C.2    35  ASP35       0.2266
      4  O          6.6810    0.7710   10.6270 O.2    35  ASP35      -0.2867
      5  CB         3.9840   -0.0150   10.5210 C.3    35  ASP35       0.1410
      6  CG         3.5590    1.4230   10.3260 C.2    35  ASP35       0.3668
      7  OD1        3.8680    2.0040    9.2760 O.co2  35  ASP35      -0.2456
      8  OD2        2.8680    1.9580   11.2300 O.co2  35  ASP35      -0.2456
      9  N          6.4030    3.3560    8.9180 N.3    37  GLY37      -0.1210
     10  CA         5.9930    4.6820    9.3550 C.3    37  GLY37       0.1956
     11  C          5.7060    4.8320   10.8400 C.2    37  GLY37       0.2612
     12  O          5.2420    5.8900   11.2500 O.2    37  GLY37      -0.2717
     13  N          6.0000    3.8190   11.6520 N.am   38  SER38      -0.1952
     14  CA         5.8860    3.9600   13.1030 C.3    38  SER38       0.1924
     15  C          6.9240    3.0880   13.7720 C.2    38  SER38       0.2314
     16  O          7.6340    2.3410   13.0960 O.2    38  SER38      -0.2863
     17  CB         4.4870    3.6140   13.6160 C.3    38  SER38       0.2116
     18  OG         4.2060    2.2360   13.4810 O.3    38  SER38      -0.2180
     19  N         -1.3660    6.9040   18.0410 N.3    78  SER78      -0.1202
     20  CA        -2.4270    7.1080   17.0660 C.3    78  SER78       0.2020
     21  C         -1.8290    7.0130   15.6700 C.2    78  SER78       0.2619
     22  O         -0.6340    7.2600   15.4630 O.2    78  SER78      -0.2717
     23  CB        -3.1260    8.4510   17.2750 C.3    78  SER78       0.2103
     24  OG        -2.2230    9.5290   17.1300 O.3    78  SER78      -0.2182
     25  N         -2.6460    6.6090   14.7180 N.am   79  TYR79      -0.1961
     26  CA        -2.1840    6.4310   13.3550 C.3    79  TYR79       0.1771
     27  C         -2.8450    7.4360   12.4280 C.2    79  TYR79       0.2620
     28  O         -3.7540    8.1670   12.8330 O.2    79  TYR79      -0.2715
     29  CB        -2.4430    5.0020   12.9210 C.3    79  TYR79       0.0574
     30  CG        -1.6200    4.0370   13.7350 C.ar   79  TYR79      -0.0198
     31  CD1       -2.1700    3.3440   14.8070 C.ar   79  TYR79      -0.0009
     32  CD2       -0.2710    3.8500   13.4570 C.ar   79  TYR79      -0.0009
     33  CE1       -1.4100    2.4720   15.5570 C.ar   79  TYR79       0.0417
     34  CE2        0.5050    2.9800   14.2080 C.ar   79  TYR79       0.0417
     35  CZ        -0.0750    2.2940   15.2600 C.ar   79  TYR79       0.1957
     36  OH         0.6660    1.4210   16.0170 O.3    79  TYR79      -0.2866
     37  N         -2.3600    7.4720   11.1900 N.am   80  GLY80      -0.1954
     38  CA        -2.7410    8.4910   10.2320 C.3    80  GLY80       0.1869
     39  C         -4.2150    8.4870    9.8880 C.2    80  GLY80       0.2309
     40  O         -4.7460    9.4840    9.3950 O.2    80  GLY80      -0.2863
     41  N         11.1010    9.3900   10.3230 N.3   194  PHE194     -0.1241
     42  CA        10.6280    8.5530    9.2280 C.3   194  PHE194      0.1605
     43  C         11.7520    8.2500    8.2430 C.2   194  PHE194      0.2264
     44  O         12.8020    8.8970    8.2580 O.2   194  PHE194     -0.2867
     45  CB         9.5410    9.2800    8.4370 C.3   194  PHE194      0.0534
     46  CG         8.2970    9.6100    9.2190 C.ar  194  PHE194     -0.0203
     47  CD1        7.9100   10.9250    9.3870 C.ar  194  PHE194     -0.0042
     48  CD2        7.4870    8.6110    9.7220 C.ar  194  PHE194     -0.0042
     49  CE1        6.7570   11.2310   10.0750 C.ar  194  PHE194     -0.0003
     50  CE2        6.3390    8.9140   10.4130 C.ar  194  PHE194     -0.0003
     51  CZ         5.9790   10.2250   10.5930 C.ar  194  PHE194     -0.0000
     52  N          7.5930   10.0590    2.6580 N.3   217  ILE217     -0.1245
     53  CA         8.0790    8.9520    3.4700 C.3   217  ILE217      0.1561
     54  C          7.7820    7.6150    2.8220 C.2   217  ILE217      0.2260
     55  O          6.7460    7.4340    2.1840 O.2   217  ILE217     -0.2867
     56  CB         7.5270    9.0070    4.9020 C.3   217  ILE217      0.0252
     57  CG1        6.0020    8.8130    4.9640 C.3   217  ILE217      0.0019
     58  CG2        7.9430   10.3160    5.5440 C.3   217  ILE217      0.0019
     59  CD1        5.4710    8.5590    6.3540 C.3   217  ILE217      0.0001
     60  N          6.5200    4.2610    3.4860 N.3   219  ASP219     -0.1239
     61  CA         5.6510    3.8210    4.5770 C.3   219  ASP219      0.1674
     62  C          4.8650    2.5540    4.2290 C.2   219  ASP219      0.2266
     63  O          3.7950    2.6140    3.6080 O.2   219  ASP219     -0.2867
     64  CB         4.6890    4.9480    4.9370 C.3   219  ASP219      0.1410
     65  CG         3.8490    4.6310    6.1380 C.2   219  ASP219      0.3668
     66  OD1        3.0100    5.4830    6.4910 O.co2 219  ASP219     -0.2456
     67  OD2        4.0230    3.5350    6.7250 O.co2 219  ASP219     -0.2456
     68  N          3.1670    0.8210    6.1540 N.3   221  GLY221     -0.1210
     69  CA         1.9510    0.7490    6.9380 C.3   221  GLY221      0.1956
     70  C          0.8150    1.6250    6.4460 C.2   221  GLY221      0.2612
     71  O         -0.2370    1.6520    7.0730 O.2   221  GLY221     -0.2717
     72  N          1.0090    2.3150    5.3270 N.am  222  THR222     -0.1952
     73  CA        -0.0440    3.0840    4.6770 C.3   222  THR222      0.1897
     74  C         -0.3950    2.3920    3.3670 C.2   222  THR222      0.2313
     75  O          0.4970    2.0080    2.6150 O.2   222  THR222     -0.2863
     76  CB         0.4180    4.5290    4.4050 C.3   222  THR222      0.1794
     77  OG1        0.5220    5.2250    5.6500 O.3   222  THR222     -0.2208
     78  CG2       -0.5720    5.2720    3.5240 C.3   222  THR222      0.0378
     79  N         -2.8180   16.1270    5.1870 N.3   300  ILE300     -0.1245
     80  CA        -1.9860   15.1890    5.9640 C.3   300  ILE300      0.1561
     81  C         -0.7490   15.8600    6.5230 C.2   300  ILE300      0.2260
     82  O         -0.3030   15.5370    7.6210 O.2   300  ILE300     -0.2867
     83  CB        -1.4610   13.9930    5.1190 C.3   300  ILE300      0.0252
     84  CG1       -2.6160   13.1510    4.5910 C.3   300  ILE300      0.0019
     85  CG2       -0.5080   13.1130    5.9610 C.3   300  ILE300      0.0019
     86  CD1       -2.1720   11.9450    3.7860 C.3   300  ILE300      0.0001
     87  N          2.1960   15.5780    5.0640 N.3   302  ILE302     -0.1245
     88  CA         3.3560   14.9020    4.4980 C.3   302  ILE302      0.1561
     89  C          2.9090   14.0480    3.3140 C.2   302  ILE302      0.2260
     90  O          1.7800   13.5710    3.2810 O.2   302  ILE302     -0.2867
     91  CB         4.0840   14.0550    5.5680 C.3   302  ILE302      0.0252
     92  CG1        5.5120   13.7190    5.1300 C.3   302  ILE302      0.0019
     93  CG2        3.2250   12.8770    6.0320 C.3   302  ILE302      0.0019
     94  CD1        6.3860   13.2720    6.2510 C.3   302  ILE302      0.0001
     95  N          3.1570   10.5590    1.2710 N.3   304  ILE304     -0.1245
     96  CA         3.3600    9.1940    1.7430 C.3   304  ILE304      0.1561
     97  C          3.4330    8.2360    0.5720 C.2   304  ILE304      0.2260
     98  O          2.4540    8.0180   -0.1420 O.2   304  ILE304     -0.2867
     99  CB         2.2510    8.7480    2.7080 C.3   304  ILE304      0.0252
    100  CG1        2.0800    9.7350    3.8640 C.3   304  ILE304      0.0019
    101  CG2        2.5780    7.3630    3.2440 C.3   304  ILE304      0.0019
    102  CD1        0.9590    9.3660    4.8120 C.3   304  ILE304      0.0001
@<TRIPOS>BOND
     1    98    97    2
     2    97    96    1
     3    95    96    1
     4    96    99    1
     5    55    54    2
     6    75    74    2
     7    52    53    1
     8    99   101    1
     9    99   100    1
    10    54    53    1
    11    90    89    2
    12    89    88    1
    13    74    73    1
    14    53    56    1
    15    60    61    1
    16    78    76    1
    17    63    62    2
    18    86    84    1
    19   100   102    1
    20    62    61    1
    21    76    73    1
    22    76    77    1
    23    88    87    1
    24    88    91    1
    25    61    64    1
    26    84    83    1
    27    73    72    1
    28    56    57    1
    29    56    58    1
    30    64    65    1
    31    57    59    1
    32    83    85    1
    33    83    80    1
    34    92    91    1
    35    92    94    1
    36    79    80    1
    37    72    70   am
    38    91    93    1
    39    80    81    1
    40    65    66   ar
    41    65    67   ar
    42    68    69    1
    43    70    69    1
    44    70    71    2
    45    81    82    2
    46    43    44    2
    47    43    42    1
    48    45    46    1
    49    45    42    1
    50     9    10    1
    51    46    47   ar
    52    46    48   ar
    53    42    41    1
    54     7     6   ar
    55    10    11    1
    56    47    49   ar
    57    40    39    2
    58     2     3    1
    59     2     1    1
    60     2     5    1
    61     3     4    2
    62    48    50   ar
    63    39    38    1
    64    49    51   ar
    65    38    37    1
    66     6     5    1
    67     6     8   ar
    68    50    51   ar
    69    11    12    2
    70    11    13   am
    71    37    27   am
    72    13    14    1
    73    27    28    2
    74    27    26    1
    75    29    26    1
    76    29    30    1
    77    16    15    2
    78    14    17    1
    79    14    15    1
    80    26    25    1
    81    32    30   ar
    82    32    34   ar
    83    18    17    1
    84    30    31   ar
    85    34    35   ar
    86    25    21   am
    87    31    33   ar
    88    35    33   ar
    89    35    36    1
    90    22    21    2
    91    21    20    1
    92    20    23    1
    93    20    19    1
    94    24    23    1
