@<TRIPOS>MOLECULE
tmp/4y3lA00.pdb
 92 83 0 0 0
SMALL
GASTEIGER

@<TRIPOS>ATOM
      1  N         -3.5620   -4.1120    3.5470 N.3    16  ALA16      -0.1245
      2  CA        -2.3870   -4.1700    4.4010 C.3    16  ALA16       0.1562
      3  C         -1.7810   -5.5360    4.2130 C.2    16  ALA16       0.2260
      4  O         -2.3760   -6.3950    3.5620 O.2    16  ALA16      -0.2867
      5  CB        -2.7470   -3.9460    5.8550 C.3    16  ALA16       0.0290
      6  N          1.4270   -6.3170   11.3150 N.3    33  ASP33      -0.1239
      7  CA         1.5450   -5.3950   10.1930 C.3    33  ASP33       0.1674
      8  C          2.8530   -4.6290   10.3600 C.2    33  ASP33       0.2266
      9  O          2.9950   -3.7930   11.2560 O.2    33  ASP33      -0.2867
     10  CB         0.3370   -4.4580   10.2380 C.3    33  ASP33       0.1410
     11  CG         0.2660   -3.4860    9.1020 C.2    33  ASP33       0.3668
     12  OD1        1.2200   -3.3620    8.3190 O.co2  33  ASP33      -0.2456
     13  OD2       -0.8030   -2.8170    9.0260 O.co2  33  ASP33      -0.2456
     14  N          5.3440   -1.8790    9.7780 N.3    35  ASP35      -0.1239
     15  CA         5.0060   -0.4900    9.4850 C.3    35  ASP35       0.1674
     16  C          6.2460    0.3750    9.5440 C.2    35  ASP35       0.2266
     17  O          6.6810    0.7710   10.6270 O.2    35  ASP35      -0.2867
     18  CB         3.9840   -0.0150   10.5210 C.3    35  ASP35       0.1410
     19  CG         3.5590    1.4230   10.3260 C.2    35  ASP35       0.3668
     20  OD1        3.8680    2.0040    9.2760 O.co2  35  ASP35      -0.2456
     21  OD2        2.8680    1.9580   11.2300 O.co2  35  ASP35      -0.2456
     22  N         -2.6460    6.6090   14.7180 N.3    79  TYR79      -0.1241
     23  CA        -2.1840    6.4310   13.3550 C.3    79  TYR79       0.1605
     24  C         -2.8450    7.4360   12.4280 C.2    79  TYR79       0.2264
     25  O         -3.7540    8.1670   12.8330 O.2    79  TYR79      -0.2867
     26  CB        -2.4430    5.0020   12.9210 C.3    79  TYR79       0.0534
     27  CG        -1.6200    4.0370   13.7350 C.ar   79  TYR79      -0.0201
     28  CD1       -2.1700    3.3440   14.8070 C.ar   79  TYR79      -0.0009
     29  CD2       -0.2710    3.8500   13.4570 C.ar   79  TYR79      -0.0009
     30  CE1       -1.4100    2.4720   15.5570 C.ar   79  TYR79       0.0417
     31  CE2        0.5050    2.9800   14.2080 C.ar   79  TYR79       0.0417
     32  CZ        -0.0750    2.2940   15.2600 C.ar   79  TYR79       0.1957
     33  OH         0.6660    1.4210   16.0170 O.3    79  TYR79      -0.2866
     34  N         -4.8750    7.3600   10.1290 N.3    81  ASP81      -0.1239
     35  CA        -6.3000    7.2260    9.8630 C.3    81  ASP81       0.1674
     36  C         -7.1570    7.4920   11.0970 C.2    81  ASP81       0.2266
     37  O         -8.3690    7.2790   11.0720 O.2    81  ASP81      -0.2867
     38  CB        -6.6080    5.8310    9.3160 C.3    81  ASP81       0.1410
     39  CG        -6.1290    4.7220   10.2290 C.2    81  ASP81       0.3668
     40  OD1       -5.6940    5.0170   11.3620 O.co2  81  ASP81      -0.2456
     41  OD2       -6.1940    3.5510    9.8090 O.co2  81  ASP81      -0.2456
     42  N         -6.9900    5.9160   13.9530 N.3    83  SER83      -0.1217
     43  CA        -7.0410    4.7540   14.8360 C.3    83  SER83       0.1889
     44  C         -5.9890    4.9020   15.9350 C.2    83  SER83       0.2288
     45  O         -5.0780    5.7210   15.8250 O.2    83  SER83      -0.2866
     46  CB        -6.8360    3.4560   14.0460 C.3    83  SER83       0.2089
     47  OG        -5.5350    3.3740   13.4890 O.3    83  SER83      -0.2183
     48  N        -11.5230    0.3420   14.7090 N.3   115  SER115     -0.1202
     49  CA       -11.0890   -0.1950   13.4240 C.3   115  SER115      0.2020
     50  C        -10.0800   -1.3250   13.6130 C.2   115  SER115      0.2618
     51  O         -9.9650   -2.1740   12.7450 O.2   115  SER115     -0.2717
     52  CB       -10.5490    0.8920   12.4900 C.3   115  SER115      0.2103
     53  OG        -9.3190    1.4190   12.9320 O.3   115  SER115     -0.2182
     54  N         -9.3780   -1.3670   14.7480 N.am  116  PHE116     -0.1975
     55  CA        -8.5200   -2.5110   15.0410 C.3   116  PHE116      0.1639
     56  C         -9.3910   -3.7050   15.4210 C.2   116  PHE116      0.2290
     57  O         -9.2190   -4.7950   14.8850 O.2   116  PHE116     -0.2864
     58  CB        -7.5040   -2.1780   16.1320 C.3   116  PHE116      0.0560
     59  CG        -6.3600   -1.3470   15.6420 C.ar  116  PHE116     -0.0200
     60  CD1       -5.4530   -1.8750   14.7420 C.ar  116  PHE116     -0.0042
     61  CD2       -6.1980   -0.0370   16.0550 C.ar  116  PHE116     -0.0042
     62  CE1       -4.4060   -1.1210   14.2680 C.ar  116  PHE116     -0.0003
     63  CE2       -5.1520    0.7230   15.5860 C.ar  116  PHE116     -0.0003
     64  CZ        -4.2530    0.1860   14.6890 C.ar  116  PHE116     -0.0000
     65  N        -11.0270   -5.4980   12.5200 N.3   119  ASP119     -0.1239
     66  CA       -10.1580   -6.1900   11.5740 C.3   119  ASP119      0.1674
     67  C         -9.5100   -7.3900   12.2510 C.2   119  ASP119      0.2266
     68  O         -8.5000   -7.2670   12.9530 O.2   119  ASP119     -0.2867
     69  CB        -9.0910   -5.2480   11.0460 C.3   119  ASP119      0.1410
     70  CG        -8.1310   -5.9280   10.0980 C.2   119  ASP119      0.3668
     71  OD1       -8.3740   -7.0910    9.7020 O.co2 119  ASP119     -0.2456
     72  OD2       -7.1240   -5.2910    9.7400 O.co2 119  ASP119     -0.2456
     73  N         -5.3390   -8.6310   11.6610 N.3   122  ILE122     -0.1245
     74  CA        -4.1200   -7.9720   12.1450 C.3   122  ILE122      0.1561
     75  C         -4.0630   -8.0990   13.6660 C.2   122  ILE122      0.2260
     76  O         -4.9500   -7.6040   14.3710 O.2   122  ILE122     -0.2867
     77  CB        -4.0710   -6.5060   11.6690 C.3   122  ILE122      0.0252
     78  CG1       -3.7690   -6.4710   10.1710 C.3   122  ILE122      0.0019
     79  CG2       -3.0390   -5.7110   12.4480 C.3   122  ILE122      0.0019
     80  CD1       -3.8230   -5.0820    9.5530 C.3   122  ILE122      0.0001
     81  N          1.0340   -4.4370   15.3890 N.3   125  LEU125     -0.1245
     82  CA         1.9330   -3.7590   14.4670 C.3   125  LEU125      0.1561
     83  C          3.3690   -3.9650   14.9180 C.2   125  LEU125      0.2260
     84  O          3.6580   -4.1250   16.1040 O.2   125  LEU125     -0.2867
     85  CB         1.6220   -2.2570   14.3600 C.3   125  LEU125      0.0270
     86  CG         0.7010   -1.8550   13.2030 C.3   125  LEU125      0.0019
     87  CD1       -0.6960   -2.4030   13.3900 C.3   125  LEU125      0.0001
     88  CD2        0.6440   -0.3500   13.0820 C.3   125  LEU125      0.0001
     89  N          3.1670    0.8210    6.1540 N.3   221  GLY221     -0.1225
     90  CA         1.9510    0.7490    6.9380 C.3   221  GLY221      0.1811
     91  C          0.8150    1.6250    6.4460 C.2   221  GLY221      0.2280
     92  O         -0.2370    1.6520    7.0730 O.2   221  GLY221     -0.2866
@<TRIPOS>BOND
     1     1     2    1
     2     4     3    2
     3     3     2    1
     4     2     5    1
     5    89    90    1
     6    91    90    1
     7    91    92    2
     8    12    11   ar
     9    13    11   ar
    10    11    10    1
    11    20    19   ar
    12    38    35    1
    13    38    39    1
    14    15    16    1
    15    15    14    1
    16    15    18    1
    17    16    17    2
    18    80    78    1
    19    71    70   ar
    20    72    70   ar
    21    41    39   ar
    22    35    34    1
    23    35    36    1
    24    70    69    1
    25    78    77    1
    26     7    10    1
    27     7     8    1
    28     7     6    1
    29    39    40   ar
    30    19    18    1
    31    19    21   ar
    32     8     9    2
    33    69    66    1
    34    37    36    2
    35    66    67    1
    36    66    65    1
    37    73    74    1
    38    77    74    1
    39    77    79    1
    40    74    75    1
    41    67    68    2
    42    24    25    2
    43    24    23    1
    44    52    53    1
    45    52    49    1
    46    51    50    2
    47    26    23    1
    48    26    27    1
    49    88    86    1
    50    86    87    1
    51    86    85    1
    52    23    22    1
    53    49    50    1
    54    49    48    1
    55    29    27   ar
    56    29    31   ar
    57    47    46    1
    58    50    54   am
    59    75    76    2
    60    27    28   ar
    61    42    43    1
    62    46    43    1
    63    31    32   ar
    64    62    64   ar
    65    62    60   ar
    66    85    82    1
    67    82    83    1
    68    82    81    1
    69    64    63   ar
    70    60    59   ar
    71    54    55    1
    72    28    30   ar
    73    43    44    1
    74    57    56    2
    75    83    84    2
    76    55    56    1
    77    55    58    1
    78    32    30   ar
    79    32    33    1
    80    63    61   ar
    81    59    61   ar
    82    59    58    1
    83    45    44    2
