@<TRIPOS>MOLECULE
tmp/4y3mA00.pdb
 72 69 0 0 0
SMALL
GASTEIGER

@<TRIPOS>ATOM
      1  N        -16.3310   -5.3590   17.0690 N.3    37  GLY37      -0.1210
      2  CA       -16.7820   -6.6860   16.6800 C.3    37  GLY37       0.1956
      3  C        -17.1000   -6.8450   15.1900 C.2    37  GLY37       0.2613
      4  O        -17.7880   -7.7950   14.8150 O.2    37  GLY37      -0.2717
      5  N        -16.6640   -5.9080   14.3430 N.am   38  SER38      -0.1938
      6  CA       -16.8000   -6.0730   12.8910 C.3    38  SER38       0.2055
      7  C        -15.7320   -5.2240   12.2190 C.2    38  SER38       0.2643
      8  O        -15.0140   -4.4660   12.8970 O.2    38  SER38      -0.2714
      9  CB       -18.2040   -5.6910   12.4030 C.3    38  SER38       0.2130
     10  OG       -18.4340   -4.3010   12.5020 O.3    38  SER38      -0.2179
     11  N        -15.6220   -5.3380   10.8950 N.am   39  SER39      -0.1949
     12  CA       -14.4830   -4.7570   10.2060 C.3    39  SER39       0.1924
     13  C        -14.8200   -4.0340    8.9110 C.2    39  SER39       0.2314
     14  O        -13.9620   -3.8990    8.0390 O.2    39  SER39      -0.2863
     15  CB       -13.4740   -5.8610    9.9530 C.3    39  SER39       0.2116
     16  OG       -13.1790   -6.4690   11.2000 O.3    39  SER39      -0.2180
     17  N        -23.0090   -7.5780    4.7380 N.3    77  ILE77      -0.1231
     18  CA       -22.7040   -7.9540    6.1100 C.3    77  ILE77       0.1692
     19  C        -23.9790   -8.2260    6.9050 C.2    77  ILE77       0.2593
     20  O        -25.0330   -7.6410    6.6450 O.2    77  ILE77      -0.2718
     21  CB       -21.8600   -6.8430    6.7990 C.3    77  ILE77       0.0266
     22  CG1      -21.2170   -7.3520    8.0930 C.3    77  ILE77       0.0019
     23  CG2      -22.6930   -5.5660    7.0320 C.3    77  ILE77       0.0020
     24  CD1      -20.0660   -6.4470    8.5710 C.3    77  ILE77       0.0001
     25  N        -23.8770   -9.1500    7.8500 N.am   78  SER78      -0.1938
     26  CA       -24.9370   -9.3840    8.8110 C.3    78  SER78       0.2055
     27  C        -24.2970   -9.4260   10.1900 C.2    78  SER78       0.2643
     28  O        -23.1330   -9.8090   10.3410 O.2    78  SER78      -0.2714
     29  CB       -25.6890  -10.6710    8.5060 C.3    78  SER78       0.2130
     30  OG       -24.8690  -11.7800    8.7930 O.3    78  SER78      -0.2179
     31  N        -25.0440   -8.9770   11.1870 N.am   79  TYR79      -0.1959
     32  CA       -24.5240   -8.8510   12.5340 C.3    79  TYR79       0.1771
     33  C        -25.1820   -9.8380   13.4650 C.2    79  TYR79       0.2620
     34  O        -26.1740  -10.4870   13.1030 O.2    79  TYR79      -0.2715
     35  CB       -24.7230   -7.4240   13.0370 C.3    79  TYR79       0.0574
     36  CG       -23.9620   -6.4140   12.2110 C.ar   79  TYR79      -0.0198
     37  CD1      -24.5890   -5.6890   11.2010 C.ar   79  TYR79      -0.0009
     38  CD2      -22.6080   -6.1920   12.4290 C.ar   79  TYR79      -0.0009
     39  CE1      -23.8860   -4.7790   10.4430 C.ar   79  TYR79       0.0417
     40  CE2      -21.8980   -5.2810   11.6630 C.ar   79  TYR79       0.0417
     41  CZ       -22.5470   -4.5750   10.6780 C.ar   79  TYR79       0.1957
     42  OH       -21.8750   -3.6540    9.8970 O.3    79  TYR79      -0.2866
     43  N        -24.6200   -9.9630   14.6610 N.am   80  GLY80      -0.1954
     44  CA       -25.1350  -10.8880   15.6560 C.3    80  GLY80       0.1869
     45  C        -26.6110  -10.7040   15.9770 C.2    80  GLY80       0.2309
     46  O        -27.2900  -11.6760   16.3150 O.2    80  GLY80      -0.2863
     47  N        -11.9640   -9.9250    8.6820 N.3   133  LEU133     -0.1245
     48  CA       -13.4290  -10.0320    8.6590 C.3   133  LEU133      0.1561
     49  C        -14.1030   -9.0980    7.6560 C.2   133  LEU133      0.2260
     50  O        -15.3260   -9.1190    7.5210 O.2   133  LEU133     -0.2867
     51  CB       -14.0170   -9.7510   10.0420 C.3   133  LEU133      0.0270
     52  CG       -13.6700  -10.7150   11.1700 C.3   133  LEU133      0.0019
     53  CD1      -14.3700  -10.2820   12.4610 C.3   133  LEU133      0.0001
     54  CD2      -14.0660  -12.1250   10.7780 C.3   133  LEU133      0.0001
     55  N        -15.8450   -7.4730    4.5770 N.3   135  THR135     -0.1218
     56  CA       -16.6910   -8.2290    3.6370 C.3   135  THR135      0.1862
     57  C        -16.5920   -7.7740    2.1880 C.2   135  THR135      0.2287
     58  O        -17.2960   -8.3070    1.3360 O.2   135  THR135     -0.2866
     59  CB       -18.2130   -8.1850    4.0170 C.3   135  THR135      0.1770
     60  OG1      -18.7780   -6.9070    3.7060 O.3   135  THR135     -0.2211
     61  CG2      -18.4560   -8.5270    5.4880 C.3   135  THR135      0.0375
     62  N        -11.5430  -11.5250   15.6670 N.3   194  PHE194     -0.1241
     63  CA       -12.0390  -10.6490   16.7410 C.3   194  PHE194      0.1605
     64  C        -10.9550  -10.3640   17.7700 C.2   194  PHE194      0.2264
     65  O         -9.9200  -11.0190   17.7890 O.2   194  PHE194     -0.2867
     66  CB       -13.2270  -11.3050   17.4640 C.3   194  PHE194      0.0534
     67  CG       -14.4190  -11.5620   16.6020 C.ar  194  PHE194     -0.0203
     68  CD1      -14.7460  -12.8510   16.2060 C.ar  194  PHE194     -0.0042
     69  CD2      -15.2330  -10.5310   16.1940 C.ar  194  PHE194     -0.0042
     70  CE1      -15.8490  -13.0890   15.4060 C.ar  194  PHE194     -0.0003
     71  CE2      -16.3390  -10.7650   15.4030 C.ar  194  PHE194     -0.0003
     72  CZ       -16.6440  -12.0430   15.0020 C.ar  194  PHE194     -0.0000
@<TRIPOS>BOND
     1    58    57    2
     2    57    56    1
     3    56    59    1
     4    56    55    1
     5    60    59    1
     6    59    61    1
     7    17    18    1
     8    18    21    1
     9    18    19    1
    10    20    19    2
    11    21    23    1
    12    21    22    1
    13    19    25   am
    14    50    49    2
    15    49    48    1
    16    25    26    1
    17    14    13    2
    18    22    24    1
    19    29    30    1
    20    29    26    1
    21    48    47    1
    22    48    51    1
    23    26    27    1
    24    13    12    1
    25    42    41    1
    26    15    12    1
    27    15    16    1
    28    51    52    1
    29    27    28    2
    30    27    31   am
    31    12    11    1
    32    39    41   ar
    33    39    37   ar
    34    41    40   ar
    35    54    52    1
    36    11     7   am
    37    52    53    1
    38    31    32    1
    39    37    36   ar
    40    40    38   ar
    41    36    38   ar
    42    36    35    1
    43     7     6    1
    44     7     8    2
    45     9    10    1
    46     9     6    1
    47    32    35    1
    48    32    33    1
    49     6     5    1
    50    34    33    2
    51    33    43   am
    52     5     3   am
    53    43    44    1
    54     4     3    2
    55    72    71   ar
    56    72    70   ar
    57     3     2    1
    58    71    69   ar
    59    70    68   ar
    60    44    45    1
    61    62    63    1
    62    45    46    2
    63    69    67   ar
    64    68    67   ar
    65    67    66    1
    66     2     1    1
    67    63    66    1
    68    63    64    1
    69    64    65    2
