@<TRIPOS>MOLECULE
tmp/4y3mA01.pdb
 102 95 0 0 0
SMALL
GASTEIGER

@<TRIPOS>ATOM
      1  N        -17.3670   -0.1510   16.1480 N.3    35  ASP35      -0.1239
      2  CA       -17.6850   -1.5490   16.4440 C.3    35  ASP35       0.1674
      3  C        -16.4330   -2.4200   16.4140 C.2    35  ASP35       0.2266
      4  O        -15.9900   -2.8360   15.3370 O.2    35  ASP35      -0.2867
      5  CB       -18.7160   -2.0480   15.4130 C.3    35  ASP35       0.1410
      6  CG       -19.1600   -3.4630   15.6570 C.2    35  ASP35       0.3668
      7  OD1      -18.8970   -3.9910   16.7520 O.co2  35  ASP35      -0.2456
      8  OD2      -19.7550   -4.0650   14.7370 O.co2  35  ASP35      -0.2456
      9  N        -16.3310   -5.3590   17.0690 N.3    37  GLY37      -0.1225
     10  CA       -16.7820   -6.6860   16.6800 C.3    37  GLY37       0.1811
     11  C        -17.1000   -6.8450   15.1900 C.2    37  GLY37       0.2280
     12  O        -17.7880   -7.7950   14.8150 O.2    37  GLY37      -0.2866
     13  N        -25.0440   -8.9770   11.1870 N.3    79  TYR79      -0.1227
     14  CA       -24.5240   -8.8510   12.5340 C.3    79  TYR79       0.1736
     15  C        -25.1820   -9.8380   13.4650 C.2    79  TYR79       0.2596
     16  O        -26.1740  -10.4870   13.1030 O.2    79  TYR79      -0.2718
     17  CB       -24.7230   -7.4240   13.0370 C.3    79  TYR79       0.0548
     18  CG       -23.9620   -6.4140   12.2110 C.ar   79  TYR79      -0.0200
     19  CD1      -24.5890   -5.6890   11.2010 C.ar   79  TYR79      -0.0009
     20  CD2      -22.6080   -6.1920   12.4290 C.ar   79  TYR79      -0.0009
     21  CE1      -23.8860   -4.7790   10.4430 C.ar   79  TYR79       0.0417
     22  CE2      -21.8980   -5.2810   11.6630 C.ar   79  TYR79       0.0417
     23  CZ       -22.5470   -4.5750   10.6780 C.ar   79  TYR79       0.1957
     24  OH       -21.8750   -3.6540    9.8970 O.3    79  TYR79      -0.2866
     25  N        -24.6200   -9.9630   14.6610 N.am   80  GLY80      -0.1942
     26  CA       -25.1350  -10.8880   15.6560 C.3    80  GLY80       0.2014
     27  C        -26.6110  -10.7040   15.9770 C.2    80  GLY80       0.2638
     28  O        -27.2900  -11.6760   16.3150 O.2    80  GLY80      -0.2714
     29  N        -27.1220   -9.4790   15.8700 N.am   81  ASP81      -0.1971
     30  CA       -28.5230   -9.2260   16.2120 C.3    81  ASP81       0.1709
     31  C        -29.4770   -9.5030   15.0450 C.2    81  ASP81       0.2293
     32  O        -30.6820   -9.3070   15.1620 O.2    81  ASP81      -0.2864
     33  CB       -28.6960   -7.7840   16.7030 C.3    81  ASP81       0.1436
     34  CG       -28.3740   -6.7550   15.6380 C.2    81  ASP81       0.3671
     35  OD1      -27.9360   -7.1390   14.5340 O.co2  81  ASP81      -0.2456
     36  OD2      -28.5380   -5.5470   15.9150 O.co2  81  ASP81      -0.2456
     37  N        -11.5430  -11.5250   15.6670 N.3   194  PHE194     -0.1241
     38  CA       -12.0390  -10.6490   16.7410 C.3   194  PHE194      0.1605
     39  C        -10.9550  -10.3640   17.7700 C.2   194  PHE194      0.2264
     40  O         -9.9200  -11.0190   17.7890 O.2   194  PHE194     -0.2867
     41  CB       -13.2270  -11.3050   17.4640 C.3   194  PHE194      0.0534
     42  CG       -14.4190  -11.5620   16.6020 C.ar  194  PHE194     -0.0203
     43  CD1      -14.7460  -12.8510   16.2060 C.ar  194  PHE194     -0.0042
     44  CD2      -15.2330  -10.5310   16.1940 C.ar  194  PHE194     -0.0042
     45  CE1      -15.8490  -13.0890   15.4060 C.ar  194  PHE194     -0.0003
     46  CE2      -16.3390  -10.7650   15.4030 C.ar  194  PHE194     -0.0003
     47  CZ       -16.6440  -12.0430   15.0020 C.ar  194  PHE194     -0.0000
     48  N        -15.1510  -12.0570   23.3750 N.3   217  ILE217     -0.1245
     49  CA       -14.6370  -10.9700   22.5500 C.3   217  ILE217      0.1561
     50  C        -14.9610   -9.6200   23.2010 C.2   217  ILE217      0.2260
     51  O        -15.9750   -9.4690   23.8530 O.2   217  ILE217     -0.2867
     52  CB       -15.1940  -11.0420   21.1190 C.3   217  ILE217      0.0252
     53  CG1      -16.7170  -10.8910   21.0990 C.3   217  ILE217      0.0019
     54  CG2      -14.7720  -12.3670   20.4710 C.3   217  ILE217      0.0019
     55  CD1      -17.2800  -10.7050   19.6810 C.3   217  ILE217      0.0001
     56  N        -16.2530   -6.2500   22.5160 N.3   219  ASP219     -0.1239
     57  CA       -17.1380   -5.8140   21.4250 C.3   219  ASP219      0.1674
     58  C        -17.9170   -4.5510   21.7670 C.2   219  ASP219      0.2266
     59  O        -18.9830   -4.6010   22.3960 O.2   219  ASP219     -0.2867
     60  CB       -18.0890   -6.9630   21.0570 C.3   219  ASP219      0.1410
     61  CG       -18.9390   -6.6620   19.8460 C.2   219  ASP219      0.3668
     62  OD1      -19.8330   -7.4890   19.5310 O.co2 219  ASP219     -0.2456
     63  OD2      -18.7200   -5.6060   19.2130 O.co2 219  ASP219     -0.2456
     64  N        -19.6220   -2.8490   19.8300 N.3   221  GLY221     -0.1210
     65  CA       -20.8440   -2.8070   19.0530 C.3   221  GLY221      0.1956
     66  C        -21.9860   -3.6510   19.5900 C.2   221  GLY221      0.2612
     67  O        -23.0470   -3.7190   18.9750 O.2   221  GLY221     -0.2717
     68  N        -21.7890   -4.2710   20.7480 N.am  222  THR222     -0.1952
     69  CA       -22.8250   -5.0560   21.4160 C.3   222  THR222      0.1897
     70  C        -23.1650   -4.3570   22.7250 C.2   222  THR222      0.2313
     71  O        -22.2620   -3.9380   23.4550 O.2   222  THR222     -0.2863
     72  CB       -22.3610   -6.5090   21.6930 C.3   222  THR222      0.1794
     73  OG1      -22.3030   -7.2550   20.4640 O.3   222  THR222     -0.2208
     74  CG2      -23.2810   -7.2270   22.6640 C.3   222  THR222      0.0378
     75  N        -25.4870  -18.0630   20.9870 N.3   300  ILE300     -0.1231
     76  CA       -24.6610  -17.1440   20.1870 C.3   300  ILE300      0.1692
     77  C        -23.4220  -17.8210   19.6100 C.2   300  ILE300      0.2593
     78  O        -22.9920  -17.4960   18.4990 O.2   300  ILE300     -0.2718
     79  CB       -24.1810  -15.9100   21.0250 C.3   300  ILE300      0.0266
     80  CG1      -25.3630  -15.1030   21.5370 C.3   300  ILE300      0.0019
     81  CG2      -23.2220  -15.0110   20.1850 C.3   300  ILE300      0.0020
     82  CD1      -24.9690  -13.9140   22.4170 C.3   300  ILE300      0.0001
     83  N        -22.8340  -18.7480   20.3630 N.am  301  GLY301     -0.1942
     84  CA       -21.6210  -19.4220   19.9360 C.3   301  GLY301      0.2014
     85  C        -20.3390  -18.8060   20.4490 C.2   301  GLY301      0.2638
     86  O        -19.2540  -19.3590   20.2560 O.2   301  GLY301     -0.2714
     87  N        -20.4460  -17.6570   21.1090 N.am  302  ILE302     -0.1977
     88  CA       -19.2870  -17.0160   21.6930 C.3   302  ILE302      0.1596
     89  C        -19.7460  -16.1380   22.8480 C.2   302  ILE302      0.2287
     90  O        -20.8800  -15.6880   22.8550 O.2   302  ILE302     -0.2864
     91  CB       -18.5220  -16.1740   20.6270 C.3   302  ILE302      0.0276
     92  CG1      -17.1180  -15.8240   21.0990 C.3   302  ILE302      0.0022
     93  CG2      -19.3200  -14.9320   20.2360 C.3   302  ILE302      0.0022
     94  CD1      -16.1740  -15.4700   19.9540 C.3   302  ILE302      0.0001
     95  N        -19.5570  -12.5600   24.8510 N.3   304  ILE304     -0.1245
     96  CA       -19.3570  -11.1930   24.3790 C.3   304  ILE304      0.1561
     97  C        -19.3010  -10.2070   25.5490 C.2   304  ILE304      0.2260
     98  O        -20.2890   -9.9840   26.2820 O.2   304  ILE304     -0.2867
     99  CB       -20.4640  -10.7250   23.4150 C.3   304  ILE304      0.0252
    100  CG1      -20.6420  -11.7100   22.2490 C.3   304  ILE304      0.0019
    101  CG2      -20.1250   -9.3160   22.8980 C.3   304  ILE304      0.0019
    102  CD1      -21.8360  -11.3930   21.3670 C.3   304  ILE304      0.0001
@<TRIPOS>BOND
     1    24    23    1
     2    21    23   ar
     3    21    19   ar
     4    23    22   ar
     5    13    14    1
     6    19    18   ar
     7    22    20   ar
     8    18    20   ar
     9    18    17    1
    10    14    17    1
    11    14    15    1
    12    16    15    2
    13    15    25   am
    14    35    34   ar
    15    25    26    1
    16     8     6   ar
    17    12    11    2
    18    47    46   ar
    19    47    45   ar
    20    31    32    2
    21    31    30    1
    22    11    10    1
    23     4     3    2
    24    46    44   ar
    25    45    43   ar
    26     5     6    1
    27     5     2    1
    28    34    36   ar
    29    34    33    1
    30    26    27    1
    31     6     7   ar
    32    37    38    1
    33    29    27   am
    34    29    30    1
    35    27    28    2
    36     1     2    1
    37    44    42   ar
    38    43    42   ar
    39    30    33    1
    40     3     2    1
    41    42    41    1
    42    10     9    1
    43    38    41    1
    44    38    39    1
    45    39    40    2
    46    78    77    2
    47    67    66    2
    48    65    66    1
    49    65    64    1
    50    63    61   ar
    51    62    61   ar
    52    66    68   am
    53    77    76    1
    54    77    83   am
    55    55    53    1
    56    61    60    1
    57    84    83    1
    58    84    85    1
    59    94    92    1
    60    81    79    1
    61    76    75    1
    62    76    79    1
    63    93    91    1
    64    86    85    2
    65    85    87   am
    66    73    72    1
    67    54    52    1
    68    91    92    1
    69    91    88    1
    70    68    69    1
    71    79    80    1
    72    60    57    1
    73    53    52    1
    74    87    88    1
    75    52    49    1
    76   102   100    1
    77    69    72    1
    78    69    70    1
    79    57    58    1
    80    57    56    1
    81    80    82    1
    82    72    74    1
    83    88    89    1
    84    58    59    2
    85   100    99    1
    86    49    50    1
    87    49    48    1
    88    70    71    2
    89    89    90    2
    90   101    99    1
    91    50    51    2
    92    99    96    1
    93    96    95    1
    94    96    97    1
    95    97    98    2
