@<TRIPOS>MOLECULE
tmp/4y3nA00.pdb
 93 88 0 0 0
SMALL
GASTEIGER

@<TRIPOS>ATOM
      1  N         32.1350   -3.1500  126.9790 N.3    13  LEU13      -0.1245
      2  CA        31.7600   -1.8080  127.4210 C.3    13  LEU13       0.1561
      3  C         30.3550   -1.3940  126.9850 C.2    13  LEU13       0.2260
      4  O         29.9170   -0.2960  127.3210 O.2    13  LEU13      -0.2867
      5  CB        32.7540   -0.7730  126.8820 C.3    13  LEU13       0.0270
      6  CG        34.2270   -0.9390  127.2680 C.3    13  LEU13       0.0019
      7  CD1       35.0650    0.0740  126.5140 C.3    13  LEU13       0.0001
      8  CD2       34.4030   -0.7830  128.7570 C.3    13  LEU13       0.0001
      9  N         29.5260   -0.7210  123.8850 N.3    15  ASP15      -0.1239
     10  CA        29.7250    0.3860  122.9430 C.3    15  ASP15       0.1674
     11  C         28.5930    0.5010  121.9140 C.2    15  ASP15       0.2266
     12  O         28.2500    1.6000  121.4680 O.2    15  ASP15      -0.2867
     13  CB        31.0910    0.2650  122.2590 C.3    15  ASP15       0.1410
     14  CG        32.2220    0.7450  123.1480 C.2    15  ASP15       0.3668
     15  OD1       32.0550    1.7980  123.7980 O.co2  15  ASP15      -0.2456
     16  OD2       33.2790    0.0700  123.2080 O.co2  15  ASP15      -0.2456
     17  N         26.5970    6.9900  124.5850 N.3   224  LEU224     -0.1245
     18  CA        26.6320    7.7480  125.8310 C.3   224  LEU224      0.1561
     19  C         25.4230    8.6590  126.0360 C.2   224  LEU224      0.2260
     20  O         24.5560    8.7770  125.1800 O.2   224  LEU224     -0.2867
     21  CB        27.9240    8.5690  125.8910 C.3   224  LEU224      0.0270
     22  CG        29.2220    7.7760  125.6820 C.3   224  LEU224      0.0019
     23  CD1       30.4150    8.6960  125.8630 C.3   224  LEU224      0.0001
     24  CD2       29.3530    6.5620  126.5860 C.3   224  LEU224      0.0001
     25  N         24.4220   12.4420  126.5260 N.3   226  TYR226     -0.1241
     26  CA        24.9330   13.7850  126.2500 C.3   226  TYR226      0.1605
     27  C         23.9160   14.8190  126.7200 C.2   226  TYR226      0.2264
     28  O         22.7810   14.8520  126.2100 O.2   226  TYR226     -0.2867
     29  CB        25.2020   13.9740  124.7540 C.3   226  TYR226      0.0534
     30  CG        26.3300   13.1210  124.2390 C.ar  226  TYR226     -0.0201
     31  CD1       27.6390   13.5850  124.2490 C.ar  226  TYR226     -0.0009
     32  CD2       26.0940   11.8480  123.7380 C.ar  226  TYR226     -0.0009
     33  CE1       28.6820   12.7990  123.7830 C.ar  226  TYR226      0.0417
     34  CE2       27.1140   11.0700  123.2750 C.ar  226  TYR226      0.0417
     35  CZ        28.4080   11.5380  123.2890 C.ar  226  TYR226      0.1957
     36  OH        29.4160   10.7260  122.8250 O.3   226  TYR226     -0.2866
     37  N         41.6350   14.0510  125.4500 N.3   248  VAL248     -0.1231
     38  CA        40.8920   12.8040  125.3550 C.3   248  VAL248      0.1692
     39  C         39.5420   13.0290  124.6630 C.2   248  VAL248      0.2592
     40  O         39.0680   12.1620  123.9350 O.2   248  VAL248     -0.2718
     41  CB        40.7170   12.1480  126.7460 C.3   248  VAL248      0.0266
     42  CG1       39.8920   10.8830  126.6500 C.3   248  VAL248      0.0020
     43  CG2       42.0810   11.8350  127.3480 C.3   248  VAL248      0.0020
     44  N         38.9300   14.1920  124.8840 N.am  249  GLY249     -0.1957
     45  CA        37.6840   14.5450  124.2230 C.3   249  GLY249      0.1869
     46  C         36.4460   14.4810  125.0970 C.2   249  GLY249      0.2309
     47  O         35.3360   14.3220  124.5950 O.2   249  GLY249     -0.2863
     48  N         33.1760    3.8310  131.4370 N.3   280  PHE280     -0.1241
     49  CA        33.5920    3.3110  130.1380 C.3   280  PHE280      0.1605
     50  C         35.0550    2.8640  130.0810 C.2   280  PHE280      0.2264
     51  O         35.6080    2.6260  129.0050 O.2   280  PHE280     -0.2867
     52  CB        33.1480    4.2390  129.0010 C.3   280  PHE280      0.0534
     53  CG        31.7280    3.9880  128.6420 C.ar  280  PHE280     -0.0203
     54  CD1       30.7090    4.4270  129.4740 C.ar  280  PHE280     -0.0042
     55  CD2       31.3980    3.1910  127.5590 C.ar  280  PHE280     -0.0042
     56  CE1       29.3980    4.1110  129.2160 C.ar  280  PHE280     -0.0003
     57  CE2       30.0780    2.8810  127.2970 C.ar  280  PHE280     -0.0003
     58  CZ        29.0830    3.3510  128.1210 C.ar  280  PHE280     -0.0000
     59  N         39.3280    2.2620  131.0810 N.3   282  PRO282     -0.2102
     60  CA        40.5740    3.0120  130.8530 C.3   282  PRO282      0.1504
     61  C         40.6160    3.6860  129.4790 C.2   282  PRO282      0.2575
     62  O         40.1750    3.0950  128.4820 O.2   282  PRO282     -0.2718
     63  CB        41.6510    1.9330  130.9810 C.3   282  PRO282      0.0282
     64  CG        41.0480    0.9460  131.9680 C.3   282  PRO282      0.0208
     65  CD        39.5820    0.9100  131.6170 C.3   282  PRO282      0.0893
     66  N         41.1700    4.8940  129.4210 N.am  283  ILE283     -0.1980
     67  CA        41.2210    5.6360  128.1600 C.3   283  ILE283      0.1595
     68  C         42.1090    4.9440  127.1320 C.2   283  ILE283      0.2287
     69  O         41.8820    5.0670  125.9300 O.2   283  ILE283     -0.2864
     70  CB        41.6460    7.1120  128.3730 C.3   283  ILE283      0.0276
     71  CG1       43.0240    7.2030  129.0180 C.3   283  ILE283      0.0022
     72  CG2       40.6010    7.8480  129.2240 C.3   283  ILE283      0.0022
     73  CD1       43.6220    8.5910  129.0030 C.3   283  ILE283      0.0001
     74  N         37.2160    6.7260  131.0590 N.3   291  PHE291     -0.1241
     75  CA        36.3050    7.6110  130.3410 C.3   291  PHE291      0.1605
     76  C         34.8900    7.6030  130.9110 C.2   291  PHE291      0.2264
     77  O         34.3360    6.5530  131.2270 O.2   291  PHE291     -0.2867
     78  CB        36.2350    7.2560  128.8670 C.3   291  PHE291      0.0534
     79  CG        35.7500    8.3960  128.0070 C.ar  291  PHE291     -0.0203
     80  CD1       36.5540    9.5110  127.7820 C.ar  291  PHE291     -0.0042
     81  CD2       34.4840    8.3810  127.4590 C.ar  291  PHE291     -0.0042
     82  CE1       36.1020   10.5640  127.0060 C.ar  291  PHE291     -0.0003
     83  CE2       34.0470    9.4230  126.6750 C.ar  291  PHE291     -0.0003
     84  CZ        34.8540   10.5200  126.4600 C.ar  291  PHE291     -0.0000
     85  N         28.4740   12.9780  129.1470 N.3   295  GLN295     -0.1245
     86  CA        29.3080   13.9690  128.4810 C.3   295  GLN295      0.1566
     87  C         28.4780   15.1750  128.0540 C.2   295  GLN295      0.2260
     88  O         27.2560   15.0940  127.9510 O.2   295  GLN295     -0.2867
     89  CB        29.9910   13.3390  127.2670 C.3   295  GLN295      0.0367
     90  CG        30.9580   12.1920  127.5900 C.3   295  GLN295      0.0905
     91  CD        32.1810   12.6250  128.4010 C.2   295  GLN295      0.2608
     92  OE1       32.5100   13.8140  128.4760 O.2   295  GLN295     -0.2717
     93  NE2       32.8680   11.6500  128.9900 N.am  295  GLN295     -0.0878
@<TRIPOS>BOND
     1    12    11    2
     2    11    10    1
     3    13    10    1
     4    13    14    1
     5    36    35    1
     6    10     9    1
     7    14    16   ar
     8    14    15   ar
     9    34    35   ar
    10    34    32   ar
    11    35    33   ar
    12    32    30   ar
    13    33    31   ar
    14    40    39    2
    15    45    44    1
    16    45    46    1
    17    30    31   ar
    18    30    29    1
    19    17    18    1
    20    47    46    2
    21    39    44   am
    22    39    38    1
    23    29    26    1
    24    20    19    2
    25    38    37    1
    26    38    41    1
    27    22    23    1
    28    22    21    1
    29    22    24    1
    30    18    21    1
    31    18    19    1
    32    69    68    2
    33    28    27    2
    34    26    25    1
    35    26    27    1
    36    84    83   ar
    37    84    82   ar
    38     7     6    1
    39    42    41    1
    40    83    81   ar
    41    41    43    1
    42     5     6    1
    43     5     2    1
    44     1     2    1
    45     3     4    2
    46     3     2    1
    47    82    80   ar
    48    68    67    1
    49    89    90    1
    50    89    86    1
    51     6     8    1
    52    57    55   ar
    53    57    58   ar
    54    81    79   ar
    55    55    53   ar
    56    90    91    1
    57    80    79   ar
    58    88    87    2
    59    79    78    1
    60    87    86    1
    61    58    56   ar
    62    67    70    1
    63    67    66    1
    64    70    71    1
    65    70    72    1
    66    91    92    2
    67    91    93   am
    68    86    85    1
    69    62    61    2
    70    53    52    1
    71    53    54   ar
    72    78    75    1
    73    52    49    1
    74    73    71    1
    75    51    50    2
    76    56    54   ar
    77    66    61   am
    78    61    60    1
    79    50    49    1
    80    49    48    1
    81    75    76    1
    82    75    74    1
    83    60    63    1
    84    60    59    1
    85    76    77    2
    86    63    64    1
    87    59    65    1
    88    65    64    1
