@<TRIPOS>MOLECULE
tmp/4y3oB01.pdb
 140 135 0 0 0
SMALL
GASTEIGER

@<TRIPOS>ATOM
      1  N          3.6200  102.6940   21.3230 N.3   148  TYR148     -0.1241
      2  CA         2.7560  102.3540   22.4630 C.3   148  TYR148      0.1605
      3  C          2.1810  103.6470   23.0560 C.2   148  TYR148      0.2264
      4  O          2.9050  104.5050   23.5740 O.2   148  TYR148     -0.2867
      5  CB         3.5810  101.6540   23.5460 C.3   148  TYR148      0.0534
      6  CG         4.2330  100.3160   23.1980 C.ar  148  TYR148     -0.0201
      7  CD1        3.6050   99.1030   23.5600 C.ar  148  TYR148     -0.0009
      8  CD2        5.4500  100.2690   22.5960 C.ar  148  TYR148     -0.0009
      9  CE1        4.1660   97.8890   23.2880 C.ar  148  TYR148      0.0417
     10  CE2        6.0540   99.0650   22.3230 C.ar  148  TYR148      0.0417
     11  CZ         5.4050   97.8790   22.6880 C.ar  148  TYR148      0.1957
     12  OH         5.9910   96.7030   22.4280 O.3   148  TYR148     -0.2866
     13  N         -1.1590   99.1300   30.2210 N.3   156  GLY156     -0.1210
     14  CA        -1.5520   98.4610   29.0090 C.3   156  GLY156      0.1956
     15  C         -1.0830   97.0070   28.9090 C.2   156  GLY156      0.2611
     16  O         -1.8120   96.1960   28.3310 O.2   156  GLY156     -0.2717
     17  N          0.1030   96.6750   29.4810 N.am  157  PHE157     -0.1976
     18  CA         0.7490   95.3710   29.2900 C.3   157  PHE157      0.1639
     19  C          1.2300   94.7410   30.6230 C.2   157  PHE157      0.2290
     20  O          1.6590   95.4460   31.5180 O.2   157  PHE157     -0.2864
     21  CB         1.9240   95.4870   28.2590 C.3   157  PHE157      0.0560
     22  CG         1.4860   95.9490   26.8470 C.ar  157  PHE157     -0.0200
     23  CD1        1.2520   95.0290   25.8400 C.ar  157  PHE157     -0.0042
     24  CD2        1.3000   97.3120   26.5400 C.ar  157  PHE157     -0.0042
     25  CE1        0.8400   95.4180   24.5740 C.ar  157  PHE157     -0.0003
     26  CE2        0.9050   97.7230   25.2560 C.ar  157  PHE157     -0.0003
     27  CZ         0.6780   96.7810   24.2710 C.ar  157  PHE157     -0.0000
     28  N          6.6960   91.2580   31.5750 N.3   160  HIS160     -0.1241
     29  CA         7.2090   90.2100   30.6850 C.3   160  HIS160      0.1621
     30  C          8.6410   90.5720   30.3270 C.2   160  HIS160      0.2264
     31  O          9.0680   91.7390   30.4560 O.2   160  HIS160     -0.2867
     32  CB         6.3770   90.1790   29.3730 C.3   160  HIS160      0.0745
     33  CG         6.3730   91.4700   28.6540 C.ar  160  HIS160      0.0817
     34  ND1        7.2030   91.7140   27.5810 N.ar  160  HIS160     -0.2268
     35  CD2        5.7640   92.6470   28.9280 C.ar  160  HIS160      0.1154
     36  CE1        7.1090   92.9870   27.2190 C.ar  160  HIS160      0.1986
     37  NE2        6.2410   93.5820   28.0230 N.ar  160  HIS160     -0.2212
     38  N         11.0050   90.3540   26.5410 N.3   162  ASP162     -0.1239
     39  CA        10.8730   90.1680   25.0920 C.3   162  ASP162      0.1674
     40  C         12.1070   89.4890   24.5810 C.2   162  ASP162      0.2266
     41  O         13.0680   89.2940   25.3510 O.2   162  ASP162     -0.2867
     42  CB        10.7280   91.4690   24.3800 C.3   162  ASP162      0.1410
     43  CG         9.4450   92.2130   24.7410 C.2   162  ASP162      0.3668
     44  OD1        8.3170   91.6730   24.5000 O.co2 162  ASP162     -0.2456
     45  OD2        9.5900   93.3970   25.1970 O.co2 162  ASP162     -0.2456
     46  N         14.1430   90.5200   22.1040 N.3   164  ILE164     -0.1245
     47  CA        14.9880   91.4430   21.3750 C.3   164  ILE164      0.1561
     48  C         15.6830   92.4430   22.3220 C.2   164  ILE164      0.2260
     49  O         15.3280   92.6040   23.5100 O.2   164  ILE164     -0.2867
     50  CB        14.1970   92.2240   20.2650 C.3   164  ILE164      0.0252
     51  CG1       12.8090   92.6920   20.7480 C.3   164  ILE164      0.0019
     52  CG2       14.0380   91.3720   19.0030 C.3   164  ILE164      0.0019
     53  CD1       12.8310   93.8520   21.7470 C.3   164  ILE164      0.0001
     54  N         16.1030   96.1330   23.3580 N.3   166  ALA166     -0.1245
     55  CA        15.0960   97.1680   23.2770 C.3   166  ALA166      0.1562
     56  C         15.6060   98.5140   23.6580 C.2   166  ALA166      0.2260
     57  O         16.2490   98.6460   24.6920 O.2   166  ALA166     -0.2867
     58  CB        13.9750   96.7870   24.1800 C.3   166  ALA166      0.0290
     59  N         13.7010  102.0530   24.4230 N.3   168  VAL168     -0.1245
     60  CA        12.4470  102.8090   24.6400 C.3   168  VAL168      0.1561
     61  C         12.7190  104.3200   24.5800 C.2   168  VAL168      0.2260
     62  O         13.5430  104.8450   25.3510 O.2   168  VAL168     -0.2867
     63  CB        11.8400  102.4700   26.0180 C.3   168  VAL168      0.0252
     64  CG1       10.5790  103.3040   26.3670 C.3   168  VAL168      0.0019
     65  CG2       11.5720  100.9850   26.1030 C.3   168  VAL168      0.0019
     66  N          5.8660  108.0600   32.0920 N.3   175  LYS175     -0.1245
     67  CA         5.5370  106.7090   32.4240 C.3   175  LYS175      0.1561
     68  C          6.4580  106.0870   33.4700 C.2   175  LYS175      0.2260
     69  O          7.6450  106.2600   33.4280 O.2   175  LYS175     -0.2867
     70  CB         5.5450  105.8850   31.1670 C.3   175  LYS175      0.0271
     71  CG         4.5640  104.7040   31.1990 C.3   175  LYS175      0.0035
     72  CD         4.4890  104.1070   29.8080 C.3   175  LYS175      0.0206
     73  CE         3.1150  103.5630   29.5310 C.3   175  LYS175      0.1093
     74  NZ         3.1950  102.4970   28.5170 N.3   175  LYS175     -0.1314
     75  N          8.4170  103.1400   34.9180 N.3   177  TRP177     -0.1241
     76  CA         9.0210  101.9270   34.4460 C.3   177  TRP177      0.1605
     77  C          9.7920  101.2000   35.5620 C.2   177  TRP177      0.2264
     78  O         10.4930  101.7970   36.4300 O.2   177  TRP177     -0.2867
     79  CB         9.9640  102.2250   33.2860 C.3   177  TRP177      0.0550
     80  CG         9.3270  102.3990   31.9790 C.ar  177  TRP177      0.0003
     81  CD1        8.7300  103.5230   31.4840 C.ar  177  TRP177      0.0946
     82  CD2        9.2660  101.4250   30.9300 C.ar  177  TRP177      0.0152
     83  NE1        8.2270  103.2880   30.2330 N.ar  177  TRP177     -0.2442
     84  CE2        8.5870  102.0170   29.8490 C.ar  177  TRP177      0.0810
     85  CE3        9.7190  100.1100   30.8020 C.ar  177  TRP177      0.0012
     86  CZ2        8.3500  101.3290   28.6550 C.ar  177  TRP177      0.0191
     87  CZ3        9.4990   99.4200   29.5790 C.ar  177  TRP177      0.0001
     88  CH2        8.8100  100.0290   28.5390 C.ar  177  TRP177      0.0015
     89  N         17.2740   97.9930   27.5650 N.3   219  PHE219     -0.1241
     90  CA        17.5100   96.7730   28.3300 C.3   219  PHE219      0.1605
     91  C         17.5690   95.5690   27.3800 C.2   219  PHE219      0.2264
     92  O         16.7920   95.4960   26.4070 O.2   219  PHE219     -0.2867
     93  CB        16.4660   96.5550   29.4310 C.3   219  PHE219      0.0534
     94  CG        15.0700   96.7960   28.9780 C.ar  219  PHE219     -0.0203
     95  CD1       14.3300   95.7700   28.3930 C.ar  219  PHE219     -0.0042
     96  CD2       14.4710   98.0370   29.1480 C.ar  219  PHE219     -0.0042
     97  CE1       13.0370   95.9730   27.9510 C.ar  219  PHE219     -0.0003
     98  CE2       13.1910   98.2710   28.6840 C.ar  219  PHE219     -0.0003
     99  CZ        12.4630   97.2410   28.0660 C.ar  219  PHE219     -0.0000
    100  N         10.2960   93.6910   32.2000 N.3   225  HIS225     -0.1226
    101  CA         9.8420   94.9780   32.4410 C.3   225  HIS225      0.1752
    102  C          8.3030   95.1310   32.4760 C.2   225  HIS225      0.2596
    103  O          7.5220   94.2650   32.0200 O.2   225  HIS225     -0.2718
    104  CB        10.4000   95.8150   31.3710 C.3   225  HIS225      0.0759
    105  CG        10.2040   95.2420   30.0310 C.ar  225  HIS225      0.0818
    106  ND1       10.9410   94.1760   29.5740 N.ar  225  HIS225     -0.2268
    107  CD2        9.3620   95.5910   29.0330 C.ar  225  HIS225      0.1154
    108  CE1       10.5480   93.8780   28.3540 C.ar  225  HIS225      0.1986
    109  NE2        9.6180   94.7450   27.9950 N.ar  225  HIS225     -0.2212
    110  N          7.8900   96.2260   33.0940 N.am  226  GLN226     -0.1965
    111  CA         6.5340   96.7010   33.0530 C.3   226  GLN226      0.1733
    112  C          6.4760   98.1970   33.1870 C.2   226  GLN226      0.2616
    113  O          7.4610   98.8480   33.6000 O.2   226  GLN226     -0.2715
    114  CB         5.6830   96.0240   34.0950 C.3   226  GLN226      0.0408
    115  CG         6.1440   96.1940   35.5250 C.3   226  GLN226      0.0908
    116  CD         5.1690   95.5410   36.4880 C.2   226  GLN226      0.2608
    117  OE1        3.9760   95.4650   36.2040 O.2   226  GLN226     -0.2717
    118  NE2        5.6820   95.0310   37.6170 N.am  226  GLN226     -0.0878
    119  N          5.3400   98.7510   32.8070 N.am  227  ALA227     -0.1977
    120  CA         5.1940  100.2030   32.7860 C.3   227  ALA227      0.1597
    121  C          3.7980  100.7030   33.1010 C.2   227  ALA227      0.2287
    122  O          2.8050  100.1080   32.6740 O.2   227  ALA227     -0.2864
    123  CB         5.5820  100.7170   31.4180 C.3   227  ALA227      0.0319
    124  N          5.3600  106.2010   23.5580 N.3   237  HIS237     -0.1241
    125  CA         6.7670  105.8280   23.3150 C.3   237  HIS237      0.1621
    126  C          6.8810  104.8930   22.1370 C.2   237  HIS237      0.2264
    127  O          5.9550  104.2230   21.7470 O.2   237  HIS237     -0.2867
    128  CB         7.4300  105.2180   24.5820 C.3   237  HIS237      0.0745
    129  CG         7.0700  103.7850   24.8570 C.ar  237  HIS237      0.0817
    130  ND1        6.0560  103.4180   25.7130 N.ar  237  HIS237     -0.2268
    131  CD2        7.6540  102.6260   24.4570 C.ar  237  HIS237      0.1154
    132  CE1        5.9960  102.0990   25.7960 C.ar  237  HIS237      0.1986
    133  NE2        6.9860  101.6000   25.0830 N.ar  237  HIS237     -0.2212
    134  N          9.3750  101.8740   20.8930 N.3   239  THR239     -0.1274
    135  CA        10.4000  100.9000   21.1620 C.3   239  THR239      0.1548
    136  C         11.0260  100.4150   19.8630 C.3   239  THR239      0.2036
    137  O         10.3360   99.8610   18.9240 O.3   239  THR239     -0.2187
    138  CB         9.8670   99.6910   21.8910 C.3   239  THR239      0.1721
    139  OG1        9.1630  100.1150   23.0470 O.3   239  THR239     -0.2215
    140  CG2       11.0320   98.7860   22.3290 C.3   239  THR239      0.0371
@<TRIPOS>BOND
     1   137   136    1
     2    52    50    1
     3   136   135    1
     4    50    51    1
     5    50    47    1
     6    51    53    1
     7   134   135    1
     8   135   138    1
     9     1     2    1
    10    47    46    1
    11    47    48    1
    12   127   126    2
    13   138   140    1
    14   138   139    1
    15   126   125    1
    16    48    49    2
    17    10     8   ar
    18    10    11   ar
    19    12    11    1
    20     2     3    1
    21     2     5    1
    22     8     6   ar
    23    11     9   ar
    24     3     4    2
    25     6     5    1
    26     6     7   ar
    27    55    54    1
    28    55    56    1
    29    55    58    1
    30     9     7   ar
    31   125   124    1
    32   125   128    1
    33    56    57    2
    34    27    25   ar
    35    27    26   ar
    36    42    43    1
    37    42    39    1
    38    59    60    1
    39   131   129   ar
    40   131   133   ar
    41    44    43   ar
    42    25    23   ar
    43    61    60    1
    44    61    62    2
    45    40    39    1
    46    40    41    2
    47   128   129    1
    48    60    63    1
    49    43    45   ar
    50   129   130   ar
    51   133   132   ar
    52    39    38    1
    53    26    24   ar
    54   130   132   ar
    55    23    22   ar
    56    63    65    1
    57    63    64    1
    58    92    91    2
    59    24    22   ar
    60    22    21    1
    61    36    34   ar
    62    36    37   ar
    63    91    90    1
    64    89    90    1
    65    34    33   ar
    66    97    99   ar
    67    97    95   ar
    68   109   108   ar
    69   109   107   ar
    70    37    35   ar
    71    99    98   ar
    72    21    18    1
    73    90    93    1
    74    16    15    2
    75   108   106   ar
    76    95    94   ar
    77    74    73    1
    78    88    86   ar
    79    88    87   ar
    80    33    35   ar
    81    33    32    1
    82    86    84   ar
    83    98    96   ar
    84    15    14    1
    85    15    17   am
    86    94    96   ar
    87    94    93    1
    88    14    13    1
    89   107   105   ar
    90    18    17    1
    91    18    19    1
    92    32    29    1
    93    73    72    1
    94   106   105   ar
    95    87    85   ar
    96    72    71    1
    97    84    83   ar
    98    84    82   ar
    99   105   104    1
   100    83    81   ar
   101    30    31    2
   102    30    29    1
   103    19    20    2
   104    29    28    1
   105    85    82   ar
   106    82    80   ar
   107    70    71    1
   108    70    67    1
   109   104   101    1
   110   123   120    1
   111    81    80   ar
   112    80    79    1
   113   103   102    2
   114    66    67    1
   115   100   101    1
   116    67    68    1
   117   101   102    1
   118   102   110   am
   119   122   121    2
   120   120   119    1
   121   120   121    1
   122   119   112   am
   123   111   110    1
   124   111   112    1
   125   111   114    1
   126   112   113    2
   127    79    76    1
   128    69    68    2
   129   114   115    1
   130    76    75    1
   131    76    77    1
   132   115   116    1
   133    77    78    2
   134   117   116    2
   135   116   118   am
