@<TRIPOS>MOLECULE
tmp/4y3pA01.pdb
 87 83 0 0 0
SMALL
GASTEIGER

@<TRIPOS>ATOM
      1  N         -7.5980   -6.2940   -1.9410 N.3    13  LEU13      -0.1245
      2  CA        -7.2450   -4.9550   -2.3990 C.3    13  LEU13       0.1561
      3  C         -5.8630   -4.4980   -1.9330 C.2    13  LEU13       0.2260
      4  O         -5.4450   -3.3760   -2.2480 O.2    13  LEU13      -0.2867
      5  CB        -8.2880   -3.9430   -1.9140 C.3    13  LEU13       0.0270
      6  CG        -9.7230   -4.1390   -2.4160 C.3    13  LEU13       0.0019
      7  CD1      -10.6500   -3.1750   -1.7180 C.3    13  LEU13       0.0001
      8  CD2       -9.8060   -3.9420   -3.9120 C.3    13  LEU13       0.0001
      9  N         -5.1260   -3.7910    1.1780 N.3    15  ASP15      -0.1239
     10  CA        -5.3770   -2.6630    2.0780 C.3    15  ASP15       0.1674
     11  C         -4.3090   -2.5410    3.1700 C.2    15  ASP15       0.2266
     12  O         -4.0820   -1.4600    3.6980 O.2    15  ASP15      -0.2867
     13  CB        -6.7720   -2.7780    2.6870 C.3    15  ASP15       0.1410
     14  CG        -7.8650   -2.3570    1.7130 C.2    15  ASP15       0.3668
     15  OD1       -7.6690   -1.3770    0.9680 O.co2  15  ASP15      -0.2456
     16  OD2       -8.9260   -3.0150    1.6790 O.co2  15  ASP15      -0.2456
     17  N         -1.5380    2.7660    3.0800 N.3   223  THR223     -0.1203
     18  CA        -1.9560    1.9710    1.9360 C.3   223  THR223      0.1994
     19  C         -1.7240    2.6730    0.5980 C.2   223  THR223      0.2617
     20  O         -1.2400    2.0710   -0.3670 O.2   223  THR223     -0.2717
     21  CB        -3.4450    1.6290    2.0500 C.3   223  THR223      0.1784
     22  OG1       -3.7120    1.0970    3.3510 O.3   223  THR223     -0.2211
     23  CG2       -3.8700    0.6150    0.9820 C.3   223  THR223      0.0376
     24  N         -2.0900    3.9470    0.5460 N.am  224  LEU224     -0.1979
     25  CA        -2.1450    4.6760   -0.7220 C.3   224  LEU224      0.1596
     26  C         -0.9620    5.6130   -0.9220 C.2   224  LEU224      0.2287
     27  O         -0.0860    5.7540   -0.0520 O.2   224  LEU224     -0.2864
     28  CB        -3.4540    5.4670   -0.8140 C.3   224  LEU224      0.0297
     29  CG        -4.7240    4.6250   -0.6400 C.3   224  LEU224      0.0022
     30  CD1       -5.9580    5.4680   -0.9050 C.3   224  LEU224      0.0001
     31  CD2       -4.7690    3.3840   -1.5250 C.3   224  LEU224      0.0001
     32  N          0.0380    9.3890   -1.3820 N.3   226  TYR226     -0.1241
     33  CA        -0.4650   10.7410   -1.1060 C.3   226  TYR226      0.1605
     34  C          0.5440   11.7900   -1.5510 C.2   226  TYR226      0.2264
     35  O          1.6560   11.8540   -1.0240 O.2   226  TYR226     -0.2867
     36  CB        -0.7800   10.9410    0.3770 C.3   226  TYR226      0.0534
     37  CG        -1.9180   10.0690    0.8520 C.ar  226  TYR226     -0.0201
     38  CD1       -1.6640    8.7930    1.3520 C.ar  226  TYR226     -0.0009
     39  CD2       -3.2370   10.5060    0.7920 C.ar  226  TYR226     -0.0009
     40  CE1       -2.6740    7.9740    1.7680 C.ar  226  TYR226      0.0417
     41  CE2       -4.2640    9.6960    1.2200 C.ar  226  TYR226      0.0417
     42  CZ        -3.9790    8.4250    1.7190 C.ar  226  TYR226      0.1957
     43  OH        -5.0150    7.6090    2.1330 O.3   226  TYR226     -0.2866
     44  N        -17.1320   11.1810   -0.4490 N.3   248  VAL248     -0.1245
     45  CA       -16.3980    9.9240   -0.3670 C.3   248  VAL248      0.1561
     46  C        -15.0310   10.1340    0.2920 C.2   248  VAL248      0.2260
     47  O        -14.5160    9.2490    0.9730 O.2   248  VAL248     -0.2867
     48  CB       -16.2290    9.2920   -1.7760 C.3   248  VAL248      0.0252
     49  CG1      -15.3890    8.0370   -1.7180 C.3   248  VAL248      0.0019
     50  CG2      -17.5890    8.9820   -2.3810 C.3   248  VAL248      0.0019
     51  N         -8.5770    0.7480   -6.1850 N.3   280  PHE280     -0.1241
     52  CA        -8.9370    0.1880   -4.8820 C.3   280  PHE280      0.1605
     53  C        -10.4170   -0.1630   -4.7690 C.2   280  PHE280      0.2264
     54  O        -10.9700   -0.3300   -3.6830 O.2   280  PHE280     -0.2867
     55  CB        -8.4570    1.1340   -3.7800 C.3   280  PHE280      0.0534
     56  CG        -7.0280    0.8880   -3.4710 C.ar  280  PHE280     -0.0203
     57  CD1       -6.0430    1.3360   -4.3420 C.ar  280  PHE280     -0.0042
     58  CD2       -6.6710    0.0550   -2.4270 C.ar  280  PHE280     -0.0042
     59  CE1       -4.7350    1.0150   -4.1340 C.ar  280  PHE280     -0.0003
     60  CE2       -5.3530   -0.2650   -2.2100 C.ar  280  PHE280     -0.0003
     61  CZ        -4.3850    0.2160   -3.0590 C.ar  280  PHE280     -0.0000
     62  N        -14.6840   -0.7450   -5.6320 N.3   282  PRO282     -0.2102
     63  CA       -15.9120    0.0110   -5.4060 C.3   282  PRO282      0.1504
     64  C        -15.9360    0.7210   -4.0630 C.2   282  PRO282      0.2575
     65  O        -15.4880    0.1790   -3.0480 O.2   282  PRO282     -0.2718
     66  CB       -16.9960   -1.0650   -5.5080 C.3   282  PRO282      0.0282
     67  CG       -16.3980   -2.0780   -6.4490 C.3   282  PRO282      0.0208
     68  CD       -14.9580   -2.1210   -6.0810 C.3   282  PRO282      0.0893
     69  N        -16.4810    1.9300   -4.0580 N.am  283  ILE283     -0.1980
     70  CA       -16.4970    2.7310   -2.8430 C.3   283  ILE283      0.1595
     71  C        -17.4040    2.0920   -1.7970 C.2   283  ILE283      0.2287
     72  O        -17.2130    2.2860   -0.5980 O.2   283  ILE283     -0.2864
     73  CB       -16.9440    4.1890   -3.1200 C.3   283  ILE283      0.0276
     74  CG1      -18.3220    4.2300   -3.7780 C.3   283  ILE283      0.0022
     75  CG2      -15.8900    4.9150   -3.9860 C.3   283  ILE283      0.0022
     76  CD1      -18.8830    5.6400   -3.9000 C.3   283  ILE283      0.0001
     77  N        -12.5450    3.6930   -5.8480 N.3   291  PHE291     -0.1241
     78  CA       -11.6720    4.5920   -5.1250 C.3   291  PHE291      0.1605
     79  C        -10.2630    4.5650   -5.6820 C.2   291  PHE291      0.2264
     80  O         -9.6900    3.5010   -5.8750 O.2   291  PHE291     -0.2867
     81  CB       -11.6380    4.2300   -3.6370 C.3   291  PHE291      0.0534
     82  CG       -11.1510    5.3540   -2.7660 C.ar  291  PHE291     -0.0203
     83  CD1      -11.9580    6.4550   -2.5360 C.ar  291  PHE291     -0.0042
     84  CD2       -9.8920    5.3240   -2.2030 C.ar  291  PHE291     -0.0042
     85  CE1      -11.5160    7.5150   -1.7610 C.ar  291  PHE291     -0.0003
     86  CE2       -9.4440    6.3760   -1.4190 C.ar  291  PHE291     -0.0003
     87  CZ       -10.2650    7.4730   -1.1990 C.ar  291  PHE291     -0.0000
@<TRIPOS>BOND
     1    67    68    1
     2    67    66    1
     3    51    52    1
     4    68    62    1
     5    80    79    2
     6    77    78    1
     7    79    78    1
     8    62    63    1
     9    66    63    1
    10    63    64    1
    11    78    81    1
    12    52    53    1
    13    52    55    1
    14    53    54    2
    15    57    59   ar
    16    57    56   ar
    17    59    61   ar
    18    64    69   am
    19    64    65    2
    20    69    70    1
    21    75    73    1
    22     8     6    1
    23    76    74    1
    24    55    56    1
    25    74    73    1
    26    81    82    1
    27    56    58   ar
    28    73    70    1
    29    61    60   ar
    30    70    71    1
    31    82    83   ar
    32    82    84   ar
    33    83    85   ar
    34    58    60   ar
    35     6     5    1
    36     6     7    1
    37     2     1    1
    38     2     3    1
    39     2     5    1
    40    50    48    1
    41     4     3    2
    42    84    86   ar
    43    71    72    2
    44    48    49    1
    45    48    45    1
    46    85    87   ar
    47    34    33    1
    48    34    35    2
    49    31    29    1
    50    86    87   ar
    51    32    33    1
    52    33    36    1
    53    26    25    1
    54    26    27    2
    55    30    29    1
    56    28    25    1
    57    28    29    1
    58    25    24    1
    59    44    45    1
    60    20    19    2
    61    45    46    1
    62    46    47    2
    63    36    37    1
    64    24    19   am
    65    19    18    1
    66    39    37   ar
    67    39    41   ar
    68    37    38   ar
    69    15    14   ar
    70    23    21    1
    71     9    10    1
    72    41    42   ar
    73    38    40   ar
    74    16    14   ar
    75    14    13    1
    76    42    40   ar
    77    42    43    1
    78    18    21    1
    79    18    17    1
    80    21    22    1
    81    10    13    1
    82    10    11    1
    83    11    12    2
