@<TRIPOS>MOLECULE
tmp/4y3pA00.pdb
 142 131 0 0 0
SMALL
GASTEIGER

@<TRIPOS>ATOM
      1  N         -3.8470   -8.4350    3.5100 N.3    10  ILE10      -0.1245
      2  CA        -4.9300   -8.8540    4.3940 C.3    10  ILE10       0.1561
      3  C         -6.2420   -9.0860    3.6570 C.2    10  ILE10       0.2260
      4  O         -7.1450   -9.7220    4.1910 O.2    10  ILE10      -0.2867
      5  CB        -5.1850   -7.8400    5.5120 C.3    10  ILE10       0.0252
      6  CG1       -5.6580   -6.4910    4.9520 C.3    10  ILE10       0.0019
      7  CG2       -3.9270   -7.6990    6.3660 C.3    10  ILE10       0.0019
      8  CD1       -6.2200   -5.5790    6.0280 C.3    10  ILE10       0.0001
      9  N         -5.1260   -3.7910    1.1780 N.3    15  ASP15      -0.1225
     10  CA        -5.3770   -2.6630    2.0780 C.3    15  ASP15       0.1805
     11  C         -4.3090   -2.5410    3.1700 C.2    15  ASP15       0.2597
     12  O         -4.0820   -1.4600    3.6980 O.2    15  ASP15      -0.2718
     13  CB        -6.7720   -2.7780    2.6870 C.3    15  ASP15       0.1424
     14  CG        -7.8650   -2.3570    1.7130 C.2    15  ASP15       0.3668
     15  OD1       -7.6690   -1.3770    0.9680 O.co2  15  ASP15      -0.2456
     16  OD2       -8.9260   -3.0150    1.6790 O.co2  15  ASP15      -0.2456
     17  N         -3.6390   -3.6510    3.4680 N.am   16  ALA16      -0.1979
     18  CA        -2.4950   -3.6900    4.3740 C.3    16  ALA16       0.1597
     19  C         -1.8430   -5.0490    4.2090 C.2    16  ALA16       0.2287
     20  O         -2.4040   -5.9160    3.5270 O.2    16  ALA16      -0.2864
     21  CB        -2.9100   -3.4680    5.8220 C.3    16  ALA16       0.0319
     22  N          1.4290   -5.8130   11.3740 N.3    33  ASP33      -0.1239
     23  CA         1.5270   -4.8770   10.2630 C.3    33  ASP33       0.1674
     24  C          2.8510   -4.1410   10.4040 C.2    33  ASP33       0.2266
     25  O          3.0040   -3.3270   11.3100 O.2    33  ASP33      -0.2867
     26  CB         0.3110   -3.9400   10.3040 C.3    33  ASP33       0.1410
     27  CG         0.2640   -2.9370    9.1740 C.2    33  ASP33       0.3668
     28  OD1        1.2290   -2.8230    8.3840 O.co2  33  ASP33      -0.2456
     29  OD2       -0.7840   -2.2350    9.1160 O.co2  33  ASP33      -0.2456
     30  N          5.3770   -1.4270    9.8050 N.3    35  ASP35      -0.1239
     31  CA         5.0380   -0.0400    9.5370 C.3    35  ASP35       0.1674
     32  C          6.2740    0.8510    9.5870 C.2    35  ASP35       0.2266
     33  O          6.7360    1.2310   10.6640 O.2    35  ASP35      -0.2867
     34  CB         4.0080    0.4160   10.5660 C.3    35  ASP35       0.1410
     35  CG         3.5770    1.8470   10.3760 C.2    35  ASP35       0.3668
     36  OD1        3.8990    2.4210    9.3250 O.co2  35  ASP35      -0.2456
     37  OD2        2.9030    2.3840   11.2850 O.co2  35  ASP35      -0.2456
     38  N         -2.5760    7.2430   14.9880 N.3    79  TYR79      -0.1227
     39  CA        -2.0990    7.1760   13.6180 C.3    79  TYR79       0.1736
     40  C         -2.8410    8.1900   12.7460 C.2    79  TYR79       0.2596
     41  O         -3.8450    8.7750   13.1660 O.2    79  TYR79      -0.2718
     42  CB        -2.2630    5.7500   13.0890 C.3    79  TYR79       0.0548
     43  CG        -1.4600    4.7370   13.8750 C.ar   79  TYR79      -0.0200
     44  CD1       -0.0980    4.5800   13.6450 C.ar   79  TYR79      -0.0009
     45  CD2       -2.0480    3.9640   14.8670 C.ar   79  TYR79      -0.0009
     46  CE1        0.6500    3.6780   14.3570 C.ar   79  TYR79       0.0417
     47  CE2       -1.3040    3.0460   15.5940 C.ar   79  TYR79       0.0417
     48  CZ         0.0450    2.9100   15.3280 C.ar   79  TYR79       0.1957
     49  OH         0.8000    2.0090   16.0250 O.3    79  TYR79      -0.2866
     50  N         -2.3450    8.3930   11.5310 N.am   80  GLY80      -0.1942
     51  CA        -2.8570    9.4310   10.6470 C.3    80  GLY80       0.2014
     52  C         -4.3230    9.2950   10.2680 C.2    80  GLY80       0.2638
     53  O         -4.9540   10.2710    9.8470 O.2    80  GLY80      -0.2714
     54  N         -4.8670    8.0890   10.4070 N.am   81  ASP81      -0.1971
     55  CA        -6.2630    7.8390   10.0590 C.3    81  ASP81       0.1709
     56  C         -7.1920    8.0770   11.2450 C.2    81  ASP81       0.2293
     57  O         -8.4000    7.8810   11.1380 O.2    81  ASP81      -0.2864
     58  CB        -6.4370    6.4120    9.5500 C.3    81  ASP81       0.1436
     59  CG        -6.2090    5.3770   10.6310 C.2    81  ASP81       0.3671
     60  OD1       -5.4400    5.6610   11.5710 O.co2  81  ASP81      -0.2456
     61  OD2       -6.8110    4.2810   10.5410 O.co2  81  ASP81      -0.2456
     62  N         -6.9710    6.4510   14.1410 N.3    83  SER83      -0.1217
     63  CA        -6.9910    5.2760   15.0060 C.3    83  SER83       0.1889
     64  C         -5.9700    5.4210   16.1280 C.2    83  SER83       0.2288
     65  O         -5.0560    6.2330   16.0440 O.2    83  SER83      -0.2866
     66  CB        -6.7140    4.0030   14.2030 C.3    83  SER83       0.2089
     67  OG        -5.3700    3.9550   13.7700 O.3    83  SER83      -0.2183
     68  N        -11.4040    0.9060   14.8040 N.3   115  SER115     -0.1202
     69  CA       -10.9110    0.4200   13.5260 C.3   115  SER115      0.2020
     70  C         -9.9820   -0.7780   13.7290 C.2   115  SER115      0.2618
     71  O         -9.8970   -1.6500   12.8620 O.2   115  SER115     -0.2717
     72  CB       -10.1810    1.5220   12.7710 C.3   115  SER115      0.2103
     73  OG        -9.0140    1.9050   13.4740 O.3   115  SER115     -0.2182
     74  N         -9.2830   -0.8280   14.8640 N.am  116  PHE116     -0.1975
     75  CA        -8.4320   -1.9790   15.1470 C.3   116  PHE116      0.1639
     76  C         -9.2930   -3.1810   15.5090 C.2   116  PHE116      0.2290
     77  O         -9.0720   -4.2810   15.0060 O.2   116  PHE116     -0.2864
     78  CB        -7.4140   -1.6710   16.2600 C.3   116  PHE116      0.0560
     79  CG        -6.2720   -0.8050   15.7990 C.ar  116  PHE116     -0.0200
     80  CD1       -5.3900   -1.2680   14.8430 C.ar  116  PHE116     -0.0042
     81  CD2       -6.0950    0.4760   16.2960 C.ar  116  PHE116     -0.0042
     82  CE1       -4.3630   -0.4840   14.3900 C.ar  116  PHE116     -0.0003
     83  CE2       -5.0540    1.2630   15.8470 C.ar  116  PHE116     -0.0003
     84  CZ        -4.1880    0.7840   14.8930 C.ar  116  PHE116     -0.0000
     85  N        -10.8940   -4.9270   12.5480 N.3   119  ASP119     -0.1239
     86  CA       -10.0250   -5.6340   11.6180 C.3   119  ASP119      0.1674
     87  C         -9.4120   -6.8640   12.2750 C.2   119  ASP119      0.2266
     88  O         -8.3920   -6.7830   12.9550 O.2   119  ASP119     -0.2867
     89  CB        -8.9320   -4.7200   11.1060 C.3   119  ASP119      0.1410
     90  CG        -8.0180   -5.4090   10.1320 C.2   119  ASP119      0.3668
     91  OD1       -8.3300   -6.5320    9.6670 O.co2 119  ASP119     -0.2456
     92  OD2       -6.9810   -4.8200    9.8230 O.co2 119  ASP119     -0.2456
     93  N         -5.3480   -8.1460   11.7260 N.3   122  ILE122     -0.1245
     94  CA        -4.1470   -7.4750   12.2120 C.3   122  ILE122      0.1561
     95  C         -4.0810   -7.5570   13.7390 C.2   122  ILE122      0.2260
     96  O         -4.9480   -7.0490   14.4410 O.2   122  ILE122     -0.2867
     97  CB        -4.0970   -6.0080   11.7170 C.3   122  ILE122      0.0252
     98  CG1       -3.8250   -6.0050   10.2140 C.3   122  ILE122      0.0019
     99  CG2       -3.0190   -5.2130   12.4580 C.3   122  ILE122      0.0019
    100  CD1       -3.8340   -4.6540    9.5560 C.3   122  ILE122      0.0001
    101  N          1.0320   -3.9450   15.4490 N.3   125  LEU125     -0.1245
    102  CA         1.9300   -3.2430   14.5430 C.3   125  LEU125      0.1561
    103  C          3.3650   -3.4820   14.9800 C.2   125  LEU125      0.2260
    104  O          3.6420   -3.6230   16.1810 O.2   125  LEU125     -0.2867
    105  CB         1.6400   -1.7340   14.5240 C.3   125  LEU125      0.0270
    106  CG         0.6680   -1.3210   13.4130 C.3   125  LEU125      0.0019
    107  CD1       -0.7650   -1.8310   13.6970 C.3   125  LEU125      0.0001
    108  CD2        0.6830    0.1500   13.2070 C.3   125  LEU125      0.0001
    109  N          6.5180    4.8060    3.5870 N.3   219  ASP219     -0.1239
    110  CA         5.6690    4.3280    4.6770 C.3   219  ASP219      0.1674
    111  C          4.8830    3.0630    4.3090 C.2   219  ASP219      0.2266
    112  O          3.8120    3.1240    3.6910 O.2   219  ASP219     -0.2867
    113  CB         4.6990    5.4270    5.1000 C.3   219  ASP219      0.1410
    114  CG         3.8800    5.0370    6.3090 C.2   219  ASP219      0.3668
    115  OD1        4.1200    3.9290    6.8710 O.co2 219  ASP219     -0.2456
    116  OD2        3.0270    5.8510    6.7230 O.co2 219  ASP219     -0.2456
    117  N          3.1580    1.3360    6.2100 N.3   221  GLY221     -0.1210
    118  CA         1.9400    1.2910    6.9900 C.3   221  GLY221      0.1956
    119  C          0.8060    2.1510    6.4580 C.2   221  GLY221      0.2613
    120  O         -0.2810    2.1540    7.0160 O.2   221  GLY221     -0.2717
    121  N          1.0660    2.8930    5.3870 N.am  222  THR222     -0.1938
    122  CA         0.0390    3.6540    4.6800 C.3   222  THR222      0.2028
    123  C         -0.2570    2.9340    3.3680 C.2   222  THR222      0.2642
    124  O          0.6480    2.5290    2.6400 O.2   222  THR222     -0.2714
    125  CB         0.4840    5.1030    4.4230 C.3   222  THR222      0.1808
    126  OG1        0.5440    5.7980    5.6700 O.3   222  THR222     -0.2208
    127  CG2       -0.4880    5.8310    3.4970 C.3   222  THR222      0.0379
    128  N         -1.5380    2.7660    3.0800 N.am  223  THR223     -0.1950
    129  CA        -1.9560    1.9710    1.9360 C.3   223  THR223      0.1897
    130  C         -1.7240    2.6730    0.5980 C.2   223  THR223      0.2313
    131  O         -1.2400    2.0710   -0.3670 O.2   223  THR223     -0.2863
    132  CB        -3.4450    1.6290    2.0500 C.3   223  THR223      0.1794
    133  OG1       -3.7120    1.0970    3.3510 O.3   223  THR223     -0.2208
    134  CG2       -3.8700    0.6150    0.9820 C.3   223  THR223      0.0378
    135  N          3.1890   11.0900    1.2600 N.3   304  ILE304     -0.1245
    136  CA         3.4080    9.7200    1.7410 C.3   304  ILE304      0.1561
    137  C          3.4950    8.7560    0.5750 C.2   304  ILE304      0.2260
    138  O          2.5170    8.5430   -0.1400 O.2   304  ILE304     -0.2867
    139  CB         2.2940    9.2490    2.7000 C.3   304  ILE304      0.0252
    140  CG1        2.0690   10.2500    3.8410 C.3   304  ILE304      0.0019
    141  CG2        2.6520    7.8710    3.2810 C.3   304  ILE304      0.0019
    142  CD1        0.8230    9.9190    4.6780 C.3   304  ILE304      0.0001
@<TRIPOS>BOND
     1   131   130    2
     2   138   137    2
     3   137   136    1
     4   130   129    1
     5    15    14   ar
     6   134   132    1
     7     9    10    1
     8   135   136    1
     9    16    14   ar
    10    14    13    1
    11   136   139    1
    12   129   132    1
    13   129   128    1
    14   132   133    1
    15    10    13    1
    16    10    11    1
    17   124   123    2
    18   139   141    1
    19   139   140    1
    20   128   123   am
    21    11    17   am
    22    11    12    2
    23   123   122    1
    24    17    18    1
    25   127   125    1
    26     1     2    1
    27    20    19    2
    28   109   110    1
    29     3     4    2
    30     3     2    1
    31   112   111    2
    32   140   142    1
    33    19    18    1
    34   111   110    1
    35    18    21    1
    36     2     5    1
    37   125   122    1
    38   125   126    1
    39   110   113    1
    40   122   121    1
    41     6     5    1
    42     6     8    1
    43   113   114    1
    44   121   119   am
    45     5     7    1
    46   117   118    1
    47   114   116   ar
    48   114   115   ar
    49   119   118    1
    50   119   120    2
    51    28    27   ar
    52    29    27   ar
    53    27    26    1
    54    36    35   ar
    55    31    32    1
    56    31    30    1
    57    31    34    1
    58    58    55    1
    59    58    59    1
    60   100    98    1
    61    32    33    2
    62    91    90   ar
    63    92    90   ar
    64    53    52    2
    65    55    54    1
    66    55    56    1
    67    90    89    1
    68    98    97    1
    69    23    26    1
    70    23    24    1
    71    23    22    1
    72    52    54   am
    73    52    51    1
    74    35    34    1
    75    35    37   ar
    76    24    25    2
    77    61    59   ar
    78    59    60   ar
    79    51    50    1
    80    89    86    1
    81    57    56    2
    82    50    40   am
    83    86    87    1
    84    86    85    1
    85    97    94    1
    86    97    99    1
    87    93    94    1
    88    94    95    1
    89    87    88    2
    90    40    41    2
    91    40    39    1
    92    72    73    1
    93    72    69    1
    94    71    70    2
    95    42    39    1
    96    42    43    1
    97   108   106    1
    98   106   107    1
    99   106   105    1
   100    69    70    1
   101    69    68    1
   102    39    38    1
   103    44    43   ar
   104    44    46   ar
   105    70    74   am
   106    95    96    2
   107    67    66    1
   108    43    45   ar
   109    62    63    1
   110    66    63    1
   111    46    48   ar
   112    82    80   ar
   113    82    84   ar
   114   105   102    1
   115   102   103    1
   116   102   101    1
   117    80    79   ar
   118    74    75    1
   119    45    47   ar
   120    84    83   ar
   121   103   104    2
   122    77    76    2
   123    63    64    1
   124    75    76    1
   125    75    78    1
   126    48    47   ar
   127    48    49    1
   128    79    78    1
   129    79    81   ar
   130    83    81   ar
   131    65    64    2
