@<TRIPOS>MOLECULE
tmp/4y3rA00.pdb
 96 88 0 0 0
SMALL
GASTEIGER

@<TRIPOS>ATOM
      1  N          5.2890   -1.3490    9.8350 N.3    35  ASP35      -0.1239
      2  CA         4.9530    0.0430    9.5830 C.3    35  ASP35       0.1674
      3  C          6.1980    0.9280    9.6590 C.2    35  ASP35       0.2266
      4  O          6.6370    1.2850   10.7400 O.2    35  ASP35      -0.2867
      5  CB         3.9380    0.4830   10.6470 C.3    35  ASP35       0.1410
      6  CG         3.5120    1.9290   10.5150 C.2    35  ASP35       0.3668
      7  OD1        3.8040    2.5670    9.4800 O.co2  35  ASP35      -0.2456
      8  OD2        2.8630    2.4180   11.4740 O.co2  35  ASP35      -0.2456
      9  N          6.3760    3.9100    9.0930 N.3    37  GLY37      -0.1210
     10  CA         5.9670    5.2350    9.5310 C.3    37  GLY37       0.1956
     11  C          5.6790    5.3920   11.0180 C.2    37  GLY37       0.2612
     12  O          5.2110    6.4550   11.4320 O.2    37  GLY37      -0.2717
     13  N          5.9590    4.3690   11.8240 N.am   38  SER38      -0.1952
     14  CA         5.8850    4.5090   13.2780 C.3    38  SER38       0.1924
     15  C          6.9240    3.6150   13.9230 C.2    38  SER38       0.2314
     16  O          7.6220    2.8610   13.2420 O.2    38  SER38      -0.2863
     17  CB         4.4840    4.1680   13.8080 C.3    38  SER38       0.2116
     18  OG         4.1960    2.7860   13.7070 O.3    38  SER38      -0.2180
     19  N         -2.8850    7.0380   14.6690 N.3    79  TYR79      -0.1227
     20  CA        -2.5130    6.7550   13.2920 C.3    79  TYR79       0.1736
     21  C         -3.2530    7.6950   12.3410 C.2    79  TYR79       0.2596
     22  O         -4.1220    8.4630   12.7620 O.2    79  TYR79      -0.2718
     23  CB        -2.8030    5.2810   12.9830 C.3    79  TYR79       0.0548
     24  CG        -1.9270    4.3670   13.8040 C.ar   79  TYR79      -0.0200
     25  CD1       -2.3530    3.8710   15.0250 C.ar   79  TYR79      -0.0009
     26  CD2       -0.6430    4.0470   13.3860 C.ar   79  TYR79      -0.0009
     27  CE1       -1.5390    3.0590   15.7900 C.ar   79  TYR79       0.0417
     28  CE2        0.1830    3.2390   14.1490 C.ar   79  TYR79       0.0417
     29  CZ        -0.2700    2.7490   15.3570 C.ar   79  TYR79       0.1957
     30  OH         0.5200    1.9420   16.1410 O.3    79  TYR79      -0.2866
     31  N         -2.9060    7.6270   11.0610 N.am   80  GLY80      -0.1957
     32  CA        -3.3630    8.6070   10.0880 C.3    80  GLY80       0.1869
     33  C         -4.8640    8.6470    9.8570 C.2    80  GLY80       0.2309
     34  O         -5.3970    9.6590    9.3900 O.2    80  GLY80      -0.2863
     35  N         11.1770    9.9220   10.5300 N.3   194  PHE194     -0.1241
     36  CA        10.6860    9.1060    9.4220 C.3   194  PHE194      0.1605
     37  C         11.7990    8.8010    8.4240 C.2   194  PHE194      0.2264
     38  O         12.8530    9.4430    8.4180 O.2   194  PHE194     -0.2867
     39  CB         9.5680    9.8480    8.6590 C.3   194  PHE194      0.0534
     40  CG         8.3590   10.1660    9.4790 C.ar  194  PHE194     -0.0203
     41  CD1        8.0100   11.4840    9.7120 C.ar  194  PHE194     -0.0042
     42  CD2        7.5430    9.1740    9.9850 C.ar  194  PHE194     -0.0042
     43  CE1        6.8910   11.8100   10.4560 C.ar  194  PHE194     -0.0003
     44  CE2        6.4200    9.4970   10.7390 C.ar  194  PHE194     -0.0003
     45  CZ         6.1040   10.8180   10.9730 C.ar  194  PHE194     -0.0000
     46  N          7.6350   10.6650    2.8390 N.3   217  ILE217     -0.1245
     47  CA         8.1240    9.5570    3.6470 C.3   217  ILE217      0.1561
     48  C          7.8290    8.2180    2.9760 C.2   217  ILE217      0.2260
     49  O          6.7950    8.0560    2.3320 O.2   217  ILE217     -0.2867
     50  CB         7.5680    9.5980    5.0820 C.3   217  ILE217      0.0252
     51  CG1        6.0470    9.3990    5.1320 C.3   217  ILE217      0.0019
     52  CG2        7.9960   10.9020    5.7520 C.3   217  ILE217      0.0019
     53  CD1        5.5230    9.1620    6.5300 C.3   217  ILE217      0.0001
     54  N          6.5420    4.8470    3.6210 N.3   219  ASP219     -0.1239
     55  CA         5.6660    4.4170    4.7180 C.3   219  ASP219      0.1674
     56  C          4.8810    3.1570    4.3660 C.2   219  ASP219      0.2266
     57  O          3.8280    3.2270    3.7260 O.2   219  ASP219     -0.2867
     58  CB         4.7160    5.5440    5.0950 C.3   219  ASP219      0.1410
     59  CG         3.8560    5.2020    6.2910 C.2   219  ASP219      0.3668
     60  OD1        3.0060    6.0410    6.6510 O.co2 219  ASP219     -0.2456
     61  OD2        4.0370    4.1060    6.8830 O.co2 219  ASP219     -0.2456
     62  N          3.1610    1.4270    6.2660 N.3   221  GLY221     -0.1210
     63  CA         1.9350    1.3790    7.0410 C.3   221  GLY221      0.1956
     64  C          0.8030    2.2320    6.5080 C.2   221  GLY221      0.2612
     65  O         -0.2770    2.2220    7.0830 O.2   221  GLY221     -0.2717
     66  N          1.0320    2.9580    5.4190 N.am  222  THR222     -0.1952
     67  CA        -0.0050    3.7260    4.7430 C.3   222  THR222      0.1897
     68  C         -0.3340    3.0160    3.4350 C.2   222  THR222      0.2313
     69  O          0.5670    2.6340    2.6850 O.2   222  THR222     -0.2863
     70  CB         0.4600    5.1740    4.4870 C.3   222  THR222      0.1794
     71  OG1        0.5330    5.8700    5.7340 O.3   222  THR222     -0.2208
     72  CG2       -0.5210    5.9200    3.5850 C.3   222  THR222      0.0378
     73  N         -2.7780   16.9090    5.2300 N.3   300  ILE300     -0.1245
     74  CA        -1.9830   15.9440    6.0130 C.3   300  ILE300      0.1561
     75  C         -0.7150   16.5740    6.5570 C.2   300  ILE300      0.2260
     76  O         -0.2610   16.2190    7.6440 O.2   300  ILE300     -0.2867
     77  CB        -1.5220   14.7300    5.1610 C.3   300  ILE300      0.0252
     78  CG1       -2.7310   13.9600    4.6340 C.3   300  ILE300      0.0019
     79  CG2       -0.5990   13.8090    5.9900 C.3   300  ILE300      0.0019
     80  CD1       -2.3640   12.7670    3.7760 C.3   300  ILE300      0.0001
     81  N          2.2700   16.3260    5.0670 N.3   302  ILE302     -0.1245
     82  CA         3.4390   15.6170    4.5630 C.3   302  ILE302      0.1561
     83  C          2.9920   14.7450    3.3960 C.2   302  ILE302      0.2260
     84  O          1.8520   14.2800    3.3690 O.2   302  ILE302     -0.2867
     85  CB         4.0900   14.7720    5.7000 C.3   302  ILE302      0.0252
     86  CG1        5.5000   14.3050    5.3310 C.3   302  ILE302      0.0019
     87  CG2        3.1970   13.6050    6.1040 C.3   302  ILE302      0.0019
     88  CD1        6.3450   13.9400    6.5360 C.3   302  ILE302      0.0001
     89  N          3.2410   11.1990    1.3670 N.3   304  ILE304     -0.1245
     90  CA         3.4170    9.8300    1.8470 C.3   304  ILE304      0.1561
     91  C          3.5010    8.8660    0.6830 C.2   304  ILE304      0.2260
     92  O          2.5210    8.6500   -0.0380 O.2   304  ILE304     -0.2867
     93  CB         2.3120    9.3840    2.8230 C.3   304  ILE304      0.0252
     94  CG1        2.1290   10.3830    3.9790 C.3   304  ILE304      0.0019
     95  CG2        2.6320    7.9740    3.3330 C.3   304  ILE304      0.0019
     96  CD1        0.9640   10.0370    4.8790 C.3   304  ILE304      0.0001
@<TRIPOS>BOND
     1    92    91    2
     2    91    90    1
     3    89    90    1
     4    90    93    1
     5    49    48    2
     6    69    68    2
     7    93    95    1
     8    93    94    1
     9    46    47    1
    10    48    47    1
    11    84    83    2
    12    83    82    1
    13    68    67    1
    14    72    70    1
    15    54    55    1
    16    47    50    1
    17    57    56    2
    18    80    78    1
    19    94    96    1
    20    56    55    1
    21    70    67    1
    22    70    71    1
    23    82    81    1
    24    82    85    1
    25    78    77    1
    26    55    58    1
    27    67    66    1
    28    50    51    1
    29    50    52    1
    30    58    59    1
    31    51    53    1
    32    77    79    1
    33    77    74    1
    34    73    74    1
    35    86    85    1
    36    86    88    1
    37    66    64   am
    38    85    87    1
    39    74    75    1
    40    62    63    1
    41    59    60   ar
    42    59    61   ar
    43    64    63    1
    44    64    65    2
    45    75    76    2
    46    38    37    2
    47    37    36    1
    48    39    36    1
    49    39    40    1
    50     9    10    1
    51    34    33    2
    52    36    35    1
    53    40    41   ar
    54    40    42   ar
    55     7     6   ar
    56    10    11    1
    57     2     3    1
    58     2     1    1
    59     2     5    1
    60     3     4    2
    61    41    43   ar
    62    33    32    1
    63    42    44   ar
    64    32    31    1
    65    43    45   ar
    66     6     5    1
    67     6     8   ar
    68    44    45   ar
    69    11    12    2
    70    11    13   am
    71    31    21   am
    72    13    14    1
    73    21    22    2
    74    21    20    1
    75    23    20    1
    76    23    24    1
    77    16    15    2
    78    14    17    1
    79    14    15    1
    80    20    19    1
    81    26    24   ar
    82    26    28   ar
    83    18    17    1
    84    24    25   ar
    85    28    29   ar
    86    25    27   ar
    87    29    27   ar
    88    29    30    1
