@<TRIPOS>MOLECULE
tmp/4y3sA00.pdb
 106 98 0 0 0
SMALL
GASTEIGER

@<TRIPOS>ATOM
      1  N         22.4510   -2.8380  113.0610 N.3    33  ASP33      -0.1239
      2  CA        22.3390   -1.8920  114.1620 C.3    33  ASP33       0.1674
      3  C         21.0130   -1.1330  114.0130 C.2    33  ASP33       0.2266
      4  O         20.8540   -0.3080  113.1110 O.2    33  ASP33      -0.2867
      5  CB        23.5390   -0.9490  114.0910 C.3    33  ASP33       0.1410
      6  CG        23.6390    0.0220  115.2330 C.2    33  ASP33       0.3668
      7  OD1       22.7140    0.1590  116.0500 O.co2  33  ASP33      -0.2456
      8  OD2       24.7150    0.6760  115.2860 O.co2  33  ASP33      -0.2456
      9  N         18.5210    1.5810  114.5750 N.3    35  ASP35      -0.1239
     10  CA        18.8350    2.9750  114.8550 C.3    35  ASP35       0.1674
     11  C         17.5870    3.8500  114.8010 C.2    35  ASP35       0.2266
     12  O         17.1520    4.2470  113.7240 O.2    35  ASP35      -0.2867
     13  CB        19.8710    3.4780  113.8370 C.3    35  ASP35       0.1410
     14  CG        20.2760    4.9170  114.0650 C.2    35  ASP35       0.3668
     15  OD1       19.9710    5.4390  115.1480 O.co2  35  ASP35      -0.2456
     16  OD2       20.9180    5.5090  113.1630 O.co2  35  ASP35      -0.2456
     17  N         26.3610   10.3510  109.5040 N.3    79  TYR79      -0.1227
     18  CA        25.8810   10.2280  110.8690 C.3    79  TYR79       0.1736
     19  C         26.6080   11.2030  111.7830 C.2    79  TYR79       0.2596
     20  O         27.6140   11.8010  111.4020 O.2    79  TYR79      -0.2718
     21  CB        26.0560    8.7910  111.3540 C.3    79  TYR79       0.0548
     22  CG        25.2570    7.7820  110.5510 C.ar   79  TYR79      -0.0200
     23  CD1       25.8510    7.0310  109.5510 C.ar   79  TYR79      -0.0009
     24  CD2       23.8980    7.5970  110.7880 C.ar   79  TYR79      -0.0009
     25  CE1       25.1280    6.1090  108.8190 C.ar   79  TYR79       0.0417
     26  CE2       23.1530    6.6820  110.0540 C.ar   79  TYR79       0.0417
     27  CZ        23.7850    5.9440  109.0700 C.ar   79  TYR79       0.1957
     28  OH        23.1020    5.0220  108.3190 O.3    79  TYR79      -0.2866
     29  N         26.0830   11.3580  112.9940 N.am   80  GLY80      -0.1942
     30  CA        26.5830   12.3450  113.9340 C.3    80  GLY80       0.2014
     31  C         28.0130   12.1290  114.3870 C.2    80  GLY80       0.2638
     32  O         28.6590   13.0580  114.8710 O.2    80  GLY80      -0.2714
     33  N         28.5060   10.9030  114.2500 N.am   81  ASP81      -0.1971
     34  CA        29.8790   10.5820  114.6160 C.3    81  ASP81       0.1709
     35  C         30.8400   10.8240  113.4510 C.2    81  ASP81       0.2293
     36  O         32.0330   10.5320  113.5480 O.2    81  ASP81      -0.2864
     37  CB        29.9820    9.1340  115.1160 C.3    81  ASP81       0.1436
     38  CG        29.6860    8.1120  114.0370 C.2    81  ASP81       0.3671
     39  OD1       29.1940    8.5010  112.9580 O.co2  81  ASP81      -0.2456
     40  OD2       29.9370    6.9080  114.2730 O.co2  81  ASP81      -0.2456
     41  N         30.6880    9.3810  110.5050 N.3    83  SER83      -0.1217
     42  CA        30.7340    8.2430  109.5910 C.3    83  SER83       0.1889
     43  C         29.7140    8.4230  108.4730 C.2    83  SER83       0.2288
     44  O         28.8220    9.2680  108.5620 O.2    83  SER83      -0.2866
     45  CB        30.4960    6.9350  110.3400 C.3    83  SER83       0.2089
     46  OG        29.1760    6.8350  110.8260 O.3    83  SER83      -0.2183
     47  N         35.1200    3.9410  109.8910 N.3   115  SER115     -0.1202
     48  CA        34.6000    3.4250  111.1460 C.3   115  SER115      0.2020
     49  C         33.7030    2.2210  110.8890 C.2   115  SER115      0.2618
     50  O         33.6990    1.2820  111.6780 O.2   115  SER115     -0.2717
     51  CB        33.8560    4.5020  111.9300 C.3   115  SER115      0.2103
     52  OG        32.8240    5.0770  111.1610 O.3   115  SER115     -0.2182
     53  N         32.9690    2.2220  109.7770 N.am  116  PHE116     -0.1975
     54  CA        32.1470    1.0630  109.4490 C.3   116  PHE116      0.1639
     55  C         33.0320   -0.1320  109.0910 C.2   116  PHE116      0.2290
     56  O         32.8370   -1.2330  109.6050 O.2   116  PHE116     -0.2864
     57  CB        31.1470    1.3840  108.3410 C.3   116  PHE116      0.0560
     58  CG        30.0080    2.2300  108.8130 C.ar  116  PHE116     -0.0200
     59  CD1       29.1120    1.7340  109.7430 C.ar  116  PHE116     -0.0042
     60  CD2       29.8310    3.5260  108.3430 C.ar  116  PHE116     -0.0042
     61  CE1       28.0750    2.5070  110.2060 C.ar  116  PHE116     -0.0003
     62  CE2       28.7800    4.3000  108.7900 C.ar  116  PHE116     -0.0003
     63  CZ        27.9060    3.7950  109.7280 C.ar  116  PHE116     -0.0000
     64  N         34.4960   -1.8650  112.0930 N.3   119  ASP119     -0.1239
     65  CA        33.6150   -2.5860  112.9900 C.3   119  ASP119      0.1674
     66  C         33.0850   -3.8360  112.3020 C.2   119  ASP119      0.2266
     67  O         32.0620   -3.8120  111.6090 O.2   119  ASP119     -0.2867
     68  CB        32.4730   -1.7140  113.4680 C.3   119  ASP119      0.1410
     69  CG        31.7290   -2.3550  114.5930 C.2   119  ASP119      0.3668
     70  OD1       30.9740   -1.6500  115.2850 O.co2 119  ASP119     -0.2456
     71  OD2       31.9290   -3.5730  114.8120 O.co2 119  ASP119     -0.2456
     72  N         29.1620   -5.1650  112.7480 N.3   122  ILE122     -0.1245
     73  CA        27.9680   -4.4750  112.2630 C.3   122  ILE122      0.1561
     74  C         27.9050   -4.6000  110.7480 C.2   122  ILE122      0.2260
     75  O         28.7750   -4.1000  110.0320 O.2   122  ILE122     -0.2867
     76  CB        27.9480   -3.0100  112.7410 C.3   122  ILE122      0.0252
     77  CG1       27.7310   -2.9800  114.2540 C.3   122  ILE122      0.0019
     78  CG2       26.8520   -2.2240  112.0330 C.3   122  ILE122      0.0019
     79  CD1       27.8170   -1.6060  114.8720 C.3   122  ILE122      0.0001
     80  N         22.7980   -0.9810  108.9800 N.3   125  LEU125     -0.1245
     81  CA        21.8920   -0.2790  109.8820 C.3   125  LEU125      0.1561
     82  C         20.4540   -0.5180  109.4520 C.2   125  LEU125      0.2260
     83  O         20.1660   -0.6650  108.2660 O.2   125  LEU125     -0.2867
     84  CB        22.1800    1.2330  109.9010 C.3   125  LEU125      0.0270
     85  CG        23.1270    1.6810  111.0280 C.3   125  LEU125      0.0019
     86  CD1       24.5170    1.1250  110.8270 C.3   125  LEU125      0.0001
     87  CD2       23.1810    3.1890  111.1780 C.3   125  LEU125      0.0001
     88  N         17.3930    7.7690  120.8080 N.3   219  ASP219     -0.1239
     89  CA        18.2470    7.3370  119.7060 C.3   219  ASP219      0.1674
     90  C         19.0460    6.0840  120.0490 C.2   219  ASP219      0.2266
     91  O         20.1180    6.1450  120.6640 O.2   219  ASP219     -0.2867
     92  CB        19.1780    8.4750  119.3110 C.3   219  ASP219      0.1410
     93  CG        20.0200    8.1520  118.0990 C.2   219  ASP219      0.3668
     94  OD1       20.8470    9.0070  117.7150 O.co2 219  ASP219     -0.2456
     95  OD2       19.8790    7.0430  117.5430 O.co2 219  ASP219     -0.2456
     96  N         20.7400    4.2690  118.1570 N.3   221  GLY221     -0.1210
     97  CA        21.9860    4.1770  117.4180 C.3   221  GLY221      0.1956
     98  C         23.1120    5.0540  117.9480 C.2   221  GLY221      0.2612
     99  O         24.2010    5.0410  117.3720 O.2   221  GLY221     -0.2717
    100  N         22.8780    5.7890  119.0330 N.am  222  THR222     -0.1952
    101  CA        23.9050    6.5870  119.6890 C.3   222  THR222      0.1897
    102  C         24.2420    5.9050  121.0100 C.2   222  THR222      0.2313
    103  O         23.3450    5.5360  121.7570 O.2   222  THR222     -0.2863
    104  CB        23.4160    8.0330  119.9130 C.3   222  THR222      0.1794
    105  OG1       23.3150    8.6810  118.6470 O.3   222  THR222     -0.2208
    106  CG2       24.4020    8.8210  120.7700 C.3   222  THR222      0.0378
@<TRIPOS>BOND
     1    83    82    2
     2    28    27    1
     3    57    58    1
     4    57    54    1
     5    60    62   ar
     6    60    58   ar
     7    43    44    2
     8    43    42    1
     9    62    63   ar
    10    58    59   ar
    11    25    27   ar
    12    25    23   ar
    13    80    81    1
    14    27    26   ar
    15    55    54    1
    16    55    56    2
    17    54    53    1
    18    82    81    1
    19    17    18    1
    20    23    22   ar
    21    42    45    1
    22    42    41    1
    23    63    61   ar
    24    59    61   ar
    25    53    49   am
    26    81    84    1
    27    47    48    1
    28    84    85    1
    29    75    74    2
    30    26    24   ar
    31    45    46    1
    32    22    24   ar
    33    22    21    1
    34    74    73    1
    35    86    85    1
    36    18    21    1
    37    18    19    1
    38    49    48    1
    39    49    50    2
    40    85    87    1
    41    48    51    1
    42    52    51    1
    43    20    19    2
    44    67    66    2
    45    19    29   am
    46    78    76    1
    47    64    65    1
    48    73    76    1
    49    73    72    1
    50    66    65    1
    51    76    77    1
    52    39    38   ar
    53    65    68    1
    54    29    30    1
    55     1     2    1
    56     4     3    2
    57    16    14   ar
    58    35    36    2
    59    35    34    1
    60    68    69    1
    61    12    11    2
    62    13    14    1
    63    13    10    1
    64    30    31    1
    65     3     2    1
    66    38    40   ar
    67    38    37    1
    68    14    15   ar
    69     5     2    1
    70     5     6    1
    71    33    31   am
    72    33    34    1
    73    77    79    1
    74    31    32    2
    75     9    10    1
    76    69    71   ar
    77    69    70   ar
    78    34    37    1
    79    11    10    1
    80     6     8   ar
    81     6     7   ar
    82    99    98    2
    83    97    98    1
    84    97    96    1
    85    95    93   ar
    86    94    93   ar
    87    98   100   am
    88    93    92    1
    89   105   104    1
    90   100   101    1
    91    92    89    1
    92   101   104    1
    93   101   102    1
    94    89    90    1
    95    89    88    1
    96   104   106    1
    97    90    91    2
    98   102   103    2
