@<TRIPOS>MOLECULE
tmp/4y3tA00.pdb
 118 109 0 0 0
SMALL
GASTEIGER

@<TRIPOS>ATOM
      1  N         33.2560   -1.7470   59.3550 N.3    35  ASP35      -0.1239
      2  CA        32.9210   -0.3520   59.0830 C.3    35  ASP35       0.1674
      3  C         34.1630    0.5320   59.1240 C.2    35  ASP35       0.2266
      4  O         34.5950    0.9380   60.1980 O.2    35  ASP35      -0.2867
      5  CB        31.9110    0.1120   60.1440 C.3    35  ASP35       0.1410
      6  CG        31.4750    1.5500   59.9520 C.2    35  ASP35       0.3668
      7  OD1       31.7780    2.1130   58.8780 O.co2  35  ASP35      -0.2456
      8  OD2       30.8190    2.1030   60.8710 O.co2  35  ASP35      -0.2456
      9  N         34.2780    3.4810   58.4790 N.3    37  GLY37      -0.1210
     10  CA        33.8340    4.8070   58.8830 C.3    37  GLY37       0.1956
     11  C         33.5610    4.9980   60.3670 C.2    37  GLY37       0.2612
     12  O         33.0700    6.0530   60.7530 O.2    37  GLY37      -0.2717
     13  N         33.8770    4.0080   61.1980 N.am   38  SER38      -0.1952
     14  CA        33.7750    4.1730   62.6460 C.3    38  SER38       0.1924
     15  C         34.8260    3.3030   63.3190 C.2    38  SER38       0.2314
     16  O         35.5440    2.5520   62.6400 O.2    38  SER38      -0.2863
     17  CB        32.3650    3.8430   63.1450 C.3    38  SER38       0.2116
     18  OG        32.1060    2.4560   63.0450 O.3    38  SER38      -0.2180
     19  N         26.5350    7.5030   67.9840 N.3    78  SER78      -0.1202
     20  CA        25.4570    7.9690   67.1190 C.3    78  SER78       0.2020
     21  C         26.0180    8.0440   65.7140 C.2    78  SER78       0.2619
     22  O         27.0100    8.7300   65.4750 O.2    78  SER78      -0.2717
     23  CB        25.0020    9.3710   67.5380 C.3    78  SER78       0.2103
     24  OG        24.5490    9.3850   68.8770 O.3    78  SER78      -0.2182
     25  N         25.3810    7.3460   64.7860 N.am   79  TYR79      -0.1961
     26  CA        25.8310    7.2740   63.4070 C.3    79  TYR79       0.1771
     27  C         25.0930    8.2640   62.5070 C.2    79  TYR79       0.2620
     28  O         24.0330    8.7950   62.8680 O.2    79  TYR79      -0.2715
     29  CB        25.6330    5.8590   62.8760 C.3    79  TYR79       0.0574
     30  CG        26.4490    4.7970   63.5990 C.ar   79  TYR79      -0.0198
     31  CD1       27.8040    4.6440   63.3420 C.ar   79  TYR79      -0.0009
     32  CD2       25.8630    3.9470   64.5200 C.ar   79  TYR79      -0.0009
     33  CE1       28.5530    3.6630   63.9790 C.ar   79  TYR79       0.0417
     34  CE2       26.6010    2.9620   65.1670 C.ar   79  TYR79       0.0417
     35  CZ        27.9370    2.8170   64.8960 C.ar   79  TYR79       0.1957
     36  OH        28.6310    1.8250   65.5710 O.3    79  TYR79      -0.2866
     37  N         25.6470    8.4770   61.3170 N.am   80  GLY80      -0.1940
     38  CA        25.1580    9.4850   60.3910 C.3    80  GLY80       0.2014
     39  C         23.8040    9.2110   59.7770 C.2    80  GLY80       0.2638
     40  O         23.2520   10.0790   59.1040 O.2    80  GLY80      -0.2714
     41  N         23.2690    8.0130   59.9900 N.am   81  ASP81      -0.1971
     42  CA        21.9260    7.6930   59.5170 C.3    81  ASP81       0.1709
     43  C         20.9050    7.8590   60.6310 C.2    81  ASP81       0.2293
     44  O         19.7330    7.5330   60.4510 O.2    81  ASP81      -0.2864
     45  CB        21.8740    6.2640   58.9880 C.3    81  ASP81       0.1436
     46  CG        22.1310    5.2350   60.0640 C.2    81  ASP81       0.3671
     47  OD1       22.6710    5.6020   61.1270 O.co2  81  ASP81      -0.2456
     48  OD2       21.8100    4.0540   59.8360 O.co2  81  ASP81      -0.2456
     49  N         28.9620   -4.2440   64.9800 N.3   125  LEU125     -0.1245
     50  CA        29.8810   -3.5430   64.0820 C.3   125  LEU125      0.1561
     51  C         31.3130   -3.7710   64.5170 C.2   125  LEU125      0.2260
     52  O         31.5960   -3.9220   65.7090 O.2   125  LEU125     -0.2867
     53  CB        29.6120   -2.0240   64.0650 C.3   125  LEU125      0.0270
     54  CG        28.7000   -1.5590   62.9140 C.3   125  LEU125      0.0019
     55  CD1       27.2760   -2.1150   63.0350 C.3   125  LEU125      0.0001
     56  CD2       28.6640   -0.0490   62.7990 C.3   125  LEU125      0.0001
     57  N         38.9710    9.6120   59.8380 N.3   194  PHE194     -0.1241
     58  CA        38.4890    8.7590   58.7610 C.3   194  PHE194      0.1605
     59  C         39.6010    8.4490   57.7710 C.2   194  PHE194      0.2264
     60  O         40.6640    9.0880   57.7780 O.2   194  PHE194     -0.2867
     61  CB        37.3700    9.4490   57.9820 C.3   194  PHE194      0.0534
     62  CG        36.1630    9.8090   58.7990 C.ar  194  PHE194     -0.0203
     63  CD1       35.3770    8.8360   59.3760 C.ar  194  PHE194     -0.0042
     64  CD2       35.7910   11.1290   58.9470 C.ar  194  PHE194     -0.0042
     65  CE1       34.2620    9.1710   60.1120 C.ar  194  PHE194     -0.0003
     66  CE2       34.6740   11.4710   59.6810 C.ar  194  PHE194     -0.0003
     67  CZ        33.9110   10.4870   60.2710 C.ar  194  PHE194     -0.0000
     68  N         35.4540   10.2140   52.1920 N.3   217  ILE217     -0.1245
     69  CA        35.9550    9.1090   53.0050 C.3   217  ILE217      0.1561
     70  C         35.6340    7.7700   52.3650 C.2   217  ILE217      0.2260
     71  O         34.5930    7.6070   51.7220 O.2   217  ILE217     -0.2867
     72  CB        35.4170    9.1650   54.4540 C.3   217  ILE217      0.0252
     73  CG1       33.9020    8.9500   54.5130 C.3   217  ILE217      0.0019
     74  CG2       35.8070   10.4960   55.0780 C.3   217  ILE217      0.0019
     75  CD1       33.4210    8.6900   55.9160 C.3   217  ILE217      0.0001
     76  N         34.3080    4.4600   53.1350 N.3   219  ASP219     -0.1239
     77  CA        33.4620    3.9840   54.2240 C.3   219  ASP219      0.1674
     78  C         32.7090    2.7160   53.8320 C.2   219  ASP219      0.2266
     79  O         31.6580    2.7660   53.2050 O.2   219  ASP219     -0.2867
     80  CB        32.4700    5.0650   54.6480 C.3   219  ASP219      0.1410
     81  CG        31.6730    4.6660   55.8670 C.2   219  ASP219      0.3668
     82  OD1       31.8980    3.5480   56.3950 O.co2 219  ASP219     -0.2456
     83  OD2       30.8350    5.4710   56.3200 O.co2 219  ASP219     -0.2456
     84  N         31.0290    0.9430   55.6920 N.3   221  GLY221     -0.1210
     85  CA        29.7940    0.8550   56.4650 C.3   221  GLY221      0.1956
     86  C         28.6590    1.7220   55.9590 C.2   221  GLY221      0.2612
     87  O         27.5840    1.7140   56.5450 O.2   221  GLY221     -0.2717
     88  N         28.9060    2.4770   54.8930 N.am  222  THR222     -0.1952
     89  CA        27.8630    3.2450   54.2240 C.3   222  THR222      0.1897
     90  C         27.5240    2.5480   52.9140 C.2   222  THR222      0.2313
     91  O         28.4180    2.1880   52.1480 O.2   222  THR222     -0.2863
     92  CB        28.3240    4.6880   53.9630 C.3   222  THR222      0.1794
     93  OG1       28.3990    5.3770   55.2160 O.3   222  THR222     -0.2208
     94  CG2       27.3440    5.4260   53.0350 C.3   222  THR222      0.0378
     95  N         25.3000   16.4220   54.8410 N.3   300  ILE300     -0.1245
     96  CA        26.0500   15.4320   55.6200 C.3   300  ILE300      0.1561
     97  C         27.3110   16.0610   56.1790 C.2   300  ILE300      0.2260
     98  O         27.7630   15.7150   57.2780 O.2   300  ILE300     -0.2867
     99  CB        26.4810   14.2090   54.7800 C.3   300  ILE300      0.0252
    100  CG1       25.2560   13.4880   54.2240 C.3   300  ILE300      0.0019
    101  CG2       27.3520   13.2470   55.6160 C.3   300  ILE300      0.0019
    102  CD1       25.6020   12.3140   53.3110 C.3   300  ILE300      0.0001
    103  N         30.2670   15.8250   54.6020 N.3   302  ILE302     -0.1245
    104  CA        31.4230   15.1410   54.0390 C.3   302  ILE302      0.1561
    105  C         30.9320   14.2600   52.8900 C.2   302  ILE302      0.2260
    106  O         29.8090   13.7610   52.9140 O.2   302  ILE302     -0.2867
    107  CB        32.1910   14.3170   55.1300 C.3   302  ILE302      0.0252
    108  CG1       33.6270   14.0080   54.7000 C.3   302  ILE302      0.0019
    109  CG2       31.4490   13.0470   55.4850 C.3   302  ILE302      0.0019
    110  CD1       34.5410   13.6970   55.8890 C.3   302  ILE302      0.0001
    111  N         31.0560   10.7520   50.8290 N.3   304  ILE304     -0.1245
    112  CA        31.2740    9.3760   51.2790 C.3   304  ILE304      0.1561
    113  C         31.3390    8.4150   50.1050 C.2   304  ILE304      0.2260
    114  O         30.3420    8.2020   49.3880 O.2   304  ILE304     -0.2867
    115  CB        30.1610    8.9060   52.2250 C.3   304  ILE304      0.0252
    116  CG1       29.9370    9.9080   53.3590 C.3   304  ILE304      0.0019
    117  CG2       30.5010    7.5150   52.7790 C.3   304  ILE304      0.0019
    118  CD1       28.7060    9.6120   54.1900 C.3   304  ILE304      0.0001
@<TRIPOS>BOND
     1   114   113    2
     2   113   112    1
     3   111   112    1
     4   112   115    1
     5    71    70    2
     6    91    90    2
     7    68    69    1
     8   115   117    1
     9   115   116    1
    10    70    69    1
    11   105   106    2
    12   105   104    1
    13    90    89    1
    14    69    72    1
    15    94    92    1
    16    76    77    1
    17    79    78    2
    18   102   100    1
    19   116   118    1
    20    78    77    1
    21    92    89    1
    22    92    93    1
    23   104   103    1
    24   104   107    1
    25    77    80    1
    26   100    99    1
    27    89    88    1
    28    72    73    1
    29    72    74    1
    30    73    75    1
    31    80    81    1
    32   108   107    1
    33   108   110    1
    34    99   101    1
    35    99    96    1
    36    95    96    1
    37    88    86   am
    38   107   109    1
    39    96    97    1
    40    84    85    1
    41    81    83   ar
    42    81    82   ar
    43    86    85    1
    44    86    87    2
    45    97    98    2
    46    59    60    2
    47    59    58    1
    48    61    58    1
    49    61    62    1
    50     9    10    1
    51    58    57    1
    52    62    64   ar
    53    62    63   ar
    54     7     6   ar
    55    10    11    1
    56    64    66   ar
    57    45    42    1
    58    45    46    1
    59     2     3    1
    60     2     1    1
    61     2     5    1
    62    40    39    2
    63     3     4    2
    64    63    65   ar
    65    42    41    1
    66    42    43    1
    67    66    67   ar
    68    39    41   am
    69    39    38    1
    70    48    46   ar
    71     6     5    1
    72     6     8   ar
    73    46    47   ar
    74    65    67   ar
    75    11    12    2
    76    11    13   am
    77    38    37    1
    78    44    43    2
    79    13    14    1
    80    37    27   am
    81    27    28    2
    82    27    26    1
    83    16    15    2
    84    14    17    1
    85    14    15    1
    86    56    54    1
    87    29    26    1
    88    29    30    1
    89    54    55    1
    90    54    53    1
    91    18    17    1
    92    31    30   ar
    93    31    33   ar
    94    26    25    1
    95    30    32   ar
    96    33    35   ar
    97    53    50    1
    98    50    51    1
    99    50    49    1
   100    51    52    2
   101    32    34   ar
   102    25    21   am
   103    35    34   ar
   104    35    36    1
   105    22    21    2
   106    21    20    1
   107    20    23    1
   108    20    19    1
   109    23    24    1
