@<TRIPOS>MOLECULE
tmp/4y3tA01.pdb
 76 69 0 0 0
SMALL
GASTEIGER

@<TRIPOS>ATOM
      1  N         25.6470    8.4770   61.3170 N.3    80  GLY80      -0.1210
      2  CA        25.1580    9.4850   60.3910 C.3    80  GLY80       0.1956
      3  C         23.8040    9.2110   59.7770 C.2    80  GLY80       0.2611
      4  O         23.2520   10.0790   59.1040 O.2    80  GLY80      -0.2717
      5  N         23.2690    8.0130   59.9900 N.am   81  ASP81      -0.1973
      6  CA        21.9260    7.6930   59.5170 C.3    81  ASP81       0.1709
      7  C         20.9050    7.8590   60.6310 C.2    81  ASP81       0.2293
      8  O         19.7330    7.5330   60.4510 O.2    81  ASP81      -0.2864
      9  CB        21.8740    6.2640   58.9880 C.3    81  ASP81       0.1436
     10  CG        22.1310    5.2350   60.0640 C.2    81  ASP81       0.3671
     11  OD1       22.6710    5.6020   61.1270 O.co2  81  ASP81      -0.2456
     12  OD2       21.8100    4.0540   59.8360 O.co2  81  ASP81      -0.2456
     13  N         34.3080    4.4600   53.1350 N.3   219  ASP219     -0.1239
     14  CA        33.4620    3.9840   54.2240 C.3   219  ASP219      0.1674
     15  C         32.7090    2.7160   53.8320 C.2   219  ASP219      0.2266
     16  O         31.6580    2.7660   53.2050 O.2   219  ASP219     -0.2867
     17  CB        32.4700    5.0650   54.6480 C.3   219  ASP219      0.1410
     18  CG        31.6730    4.6660   55.8670 C.2   219  ASP219      0.3668
     19  OD1       31.8980    3.5480   56.3950 O.co2 219  ASP219     -0.2456
     20  OD2       30.8350    5.4710   56.3200 O.co2 219  ASP219     -0.2456
     21  N         31.0290    0.9430   55.6920 N.3   221  GLY221     -0.1210
     22  CA        29.7940    0.8550   56.4650 C.3   221  GLY221      0.1956
     23  C         28.6590    1.7220   55.9590 C.2   221  GLY221      0.2613
     24  O         27.5840    1.7140   56.5450 O.2   221  GLY221     -0.2717
     25  N         28.9060    2.4770   54.8930 N.am  222  THR222     -0.1938
     26  CA        27.8630    3.2450   54.2240 C.3   222  THR222      0.2028
     27  C         27.5240    2.5480   52.9140 C.2   222  THR222      0.2642
     28  O         28.4180    2.1880   52.1480 O.2   222  THR222     -0.2714
     29  CB        28.3240    4.6880   53.9630 C.3   222  THR222      0.1808
     30  OG1       28.3990    5.3770   55.2160 O.3   222  THR222     -0.2208
     31  CG2       27.3440    5.4260   53.0350 C.3   222  THR222      0.0379
     32  N         26.2300    2.3870   52.6510 N.am  223  THR223     -0.1950
     33  CA        25.7880    1.6340   51.4860 C.3   223  THR223      0.1897
     34  C         26.0510    2.3440   50.1630 C.2   223  THR223      0.2313
     35  O         26.5160    1.7280   49.1980 O.2   223  THR223     -0.2863
     36  CB        24.2690    1.3380   51.5720 C.3   223  THR223      0.1794
     37  OG1       23.9400    0.8400   52.8680 O.3   223  THR223     -0.2208
     38  CG2       23.8380    0.3300   50.5280 C.3   223  THR223      0.0378
     39  N         27.8780    9.0870   48.2050 N.3   226  TYR226     -0.1241
     40  CA        27.3660   10.4280   48.4880 C.3   226  TYR226      0.1605
     41  C         28.3770   11.4650   48.0470 C.2   226  TYR226      0.2264
     42  O         29.4960   11.5000   48.5580 O.2   226  TYR226     -0.2867
     43  CB        27.1000   10.6120   49.9860 C.3   226  TYR226      0.0534
     44  CG        25.9640    9.7590   50.5090 C.ar  226  TYR226     -0.0201
     45  CD1       24.6610   10.2250   50.5070 C.ar  226  TYR226     -0.0009
     46  CD2       26.1960    8.4730   50.9760 C.ar  226  TYR226     -0.0009
     47  CE1       23.6260    9.4380   50.9560 C.ar  226  TYR226      0.0417
     48  CE2       25.1770    7.6760   51.4300 C.ar  226  TYR226      0.0417
     49  CZ        23.8940    8.1600   51.4270 C.ar  226  TYR226      0.1957
     50  OH        22.8730    7.3610   51.8710 O.3   226  TYR226     -0.2866
     51  N         13.3500   10.8560   49.9450 N.3   249  GLY249     -0.1225
     52  CA        14.6150   11.1440   50.5960 C.3   249  GLY249      0.1811
     53  C         15.8390   11.0570   49.7120 C.2   249  GLY249      0.2280
     54  O         16.9400   10.8150   50.2020 O.2   249  GLY249     -0.2866
     55  N         23.1420   12.9280   46.9500 N.3   296  SER296     -0.1217
     56  CA        23.8310   14.1270   47.3660 C.3   296  SER296      0.1889
     57  C         24.3410   14.0350   48.7990 C.2   296  SER296      0.2288
     58  O         23.6460   13.5560   49.7010 O.2   296  SER296     -0.2866
     59  CB        22.8760   15.3070   47.2820 C.3   296  SER296      0.2089
     60  OG        23.5070   16.4920   47.7320 O.3   296  SER296     -0.2183
     61  N         25.3000   16.4220   54.8410 N.3   300  ILE300     -0.1245
     62  CA        26.0500   15.4320   55.6200 C.3   300  ILE300      0.1561
     63  C         27.3110   16.0610   56.1790 C.2   300  ILE300      0.2260
     64  O         27.7630   15.7150   57.2780 O.2   300  ILE300     -0.2867
     65  CB        26.4810   14.2090   54.7800 C.3   300  ILE300      0.0252
     66  CG1       25.2560   13.4880   54.2240 C.3   300  ILE300      0.0019
     67  CG2       27.3520   13.2470   55.6160 C.3   300  ILE300      0.0019
     68  CD1       25.6020   12.3140   53.3110 C.3   300  ILE300      0.0001
     69  N         31.0560   10.7520   50.8290 N.3   304  ILE304     -0.1245
     70  CA        31.2740    9.3760   51.2790 C.3   304  ILE304      0.1561
     71  C         31.3390    8.4150   50.1050 C.2   304  ILE304      0.2260
     72  O         30.3420    8.2020   49.3880 O.2   304  ILE304     -0.2867
     73  CB        30.1610    8.9060   52.2250 C.3   304  ILE304      0.0252
     74  CG1       29.9370    9.9080   53.3590 C.3   304  ILE304      0.0019
     75  CG2       30.5010    7.5150   52.7790 C.3   304  ILE304      0.0019
     76  CD1       28.7060    9.6120   54.1900 C.3   304  ILE304      0.0001
@<TRIPOS>BOND
     1    55    56    1
     2    59    56    1
     3    59    60    1
     4    56    57    1
     5    41    40    1
     6    41    42    2
     7    39    40    1
     8    40    43    1
     9    57    58    2
    10    35    34    2
    11    72    71    2
    12    53    54    2
    13    53    52    1
    14    51    52    1
    15    43    44    1
    16    71    70    1
    17    34    33    1
    18    45    44   ar
    19    45    47   ar
    20    44    46   ar
    21    38    36    1
    22    69    70    1
    23    47    49   ar
    24    46    48   ar
    25    70    73    1
    26    49    48   ar
    27    49    50    1
    28    33    36    1
    29    33    32    1
    30    36    37    1
    31    28    27    2
    32    73    75    1
    33    73    74    1
    34    32    27   am
    35    27    26    1
    36    31    29    1
    37    13    14    1
    38    16    15    2
    39    68    66    1
    40    74    76    1
    41    15    14    1
    42    29    26    1
    43    29    30    1
    44    66    65    1
    45    26    25    1
    46    14    17    1
    47    17    18    1
    48    65    67    1
    49    65    62    1
    50    61    62    1
    51    25    23   am
    52    62    63    1
    53    21    22    1
    54    18    20   ar
    55    18    19   ar
    56    23    22    1
    57    23    24    2
    58    63    64    2
    59     9     6    1
    60     9    10    1
    61     4     3    2
    62     6     5    1
    63     6     7    1
    64     3     5   am
    65     3     2    1
    66    12    10   ar
    67    10    11   ar
    68     2     1    1
    69     8     7    2
