@<TRIPOS>MOLECULE
tmp/4y3wA00.pdb
 116 107 0 0 0
SMALL
GASTEIGER

@<TRIPOS>ATOM
      1  N         41.3360   -7.5310    3.3500 N.3    10  ILE10      -0.1231
      2  CA        40.2470   -7.9660    4.2190 C.3    10  ILE10       0.1692
      3  C         38.9340   -8.1620    3.4860 C.2    10  ILE10       0.2592
      4  O         38.0420   -8.8240    3.9950 O.2    10  ILE10      -0.2718
      5  CB        39.9930   -6.9780    5.3620 C.3    10  ILE10       0.0266
      6  CG1       39.5870   -5.5950    4.8360 C.3    10  ILE10       0.0019
      7  CG2       41.2260   -6.8850    6.2420 C.3    10  ILE10       0.0020
      8  CD1       38.9600   -4.7110    5.8990 C.3    10  ILE10       0.0001
      9  N         38.8130   -7.5660    2.3070 N.am   11  ASP11      -0.1974
     10  CA        37.5820   -7.6530    1.5430 C.3    11  ASP11       0.1709
     11  C         37.8620   -7.4550    0.0630 C.2    11  ASP11       0.2293
     12  O         39.0180   -7.2970   -0.3440 O.2    11  ASP11      -0.2864
     13  CB        36.5490   -6.6320    2.0490 C.3    11  ASP11       0.1436
     14  CG        37.0270   -5.1890    1.9750 C.2    11  ASP11       0.3671
     15  OD1       36.5330   -4.3860    2.8010 O.co2  11  ASP11      -0.2456
     16  OD2       37.8530   -4.8360    1.1070 O.co2  11  ASP11      -0.2456
     17  N         40.1190   -2.7420    1.2000 N.3    15  ASP15      -0.1225
     18  CA        39.9420   -1.6370    2.1450 C.3    15  ASP15       0.1805
     19  C         41.0910   -1.5600    3.1490 C.2    15  ASP15       0.2597
     20  O         41.4620   -0.4800    3.6150 O.2    15  ASP15      -0.2718
     21  CB        38.6100   -1.7790    2.8760 C.3    15  ASP15       0.1424
     22  CG        37.4450   -1.2410    2.0650 C.2    15  ASP15       0.3668
     23  OD1       37.5820   -0.1520    1.4690 O.co2  15  ASP15      -0.2456
     24  OD2       36.3950   -1.9120    2.0120 O.co2  15  ASP15      -0.2456
     25  N         41.6440   -2.7190    3.4730 N.am   16  ALA16      -0.1979
     26  CA        42.7960   -2.8160    4.3520 C.3    16  ALA16       0.1597
     27  C         43.3850   -4.1960    4.1720 C.2    16  ALA16       0.2287
     28  O         42.7880   -5.0540    3.5120 O.2    16  ALA16      -0.2864
     29  CB        42.4150   -2.5720    5.8060 C.3    16  ALA16       0.0319
     30  N         46.5290   -5.1040   11.2220 N.3    33  ASP33      -0.1239
     31  CA        46.6110   -4.1280   10.1540 C.3    33  ASP33       0.1674
     32  C         47.9410   -3.3880   10.2970 C.2    33  ASP33       0.2266
     33  O         48.0870   -2.5560   11.1870 O.2    33  ASP33      -0.2867
     34  CB        45.4080   -3.1780   10.2650 C.3    33  ASP33       0.1410
     35  CG        45.3190   -2.1650    9.1390 C.2    33  ASP33       0.3668
     36  OD1       46.2540   -2.0470    8.3260 O.co2  33  ASP33      -0.2456
     37  OD2       44.2790   -1.4700    9.0870 O.co2  33  ASP33      -0.2456
     38  N         42.4010    8.1730   15.5660 N.3    79  TYR79      -0.1241
     39  CA        42.8520    8.2770   14.1860 C.3    79  TYR79       0.1605
     40  C         42.0470    9.3390   13.4520 C.2    79  TYR79       0.2264
     41  O         41.0870    9.8850   13.9980 O.2    79  TYR79      -0.2867
     42  CB        42.7380    6.9230   13.4830 C.3    79  TYR79       0.0534
     43  CG        43.5940    5.8450   14.1120 C.ar   79  TYR79      -0.0201
     44  CD1       43.0560    4.9470   15.0250 C.ar   79  TYR79      -0.0009
     45  CD2       44.9430    5.7330   13.8020 C.ar   79  TYR79      -0.0009
     46  CE1       43.8370    3.9560   15.6070 C.ar   79  TYR79       0.0417
     47  CE2       45.7340    4.7510   14.3800 C.ar   79  TYR79       0.0417
     48  CZ        45.1750    3.8630   15.2800 C.ar   79  TYR79       0.1957
     49  OH        45.9590    2.8880   15.8560 O.3    79  TYR79      -0.2866
     50  N         39.8190    9.4580   11.3010 N.3    81  ASP81      -0.1239
     51  CA        38.4970    9.1170   10.7810 C.3    81  ASP81       0.1674
     52  C         37.4770    8.9840   11.9130 C.2    81  ASP81       0.2266
     53  O         36.4170    8.3820   11.7400 O.2    81  ASP81      -0.2867
     54  CB        38.5650    7.8210    9.9670 C.3    81  ASP81       0.1410
     55  CG        39.2590    6.6970   10.7130 C.2    81  ASP81       0.3668
     56  OD1       40.5060    6.6990   10.7680 O.co2  81  ASP81      -0.2456
     57  OD2       38.5590    5.8040   11.2360 O.co2  81  ASP81      -0.2456
     58  N         37.6910    7.2800   14.5530 N.3    83  SER83      -0.1217
     59  CA        37.8550    6.0350   15.2910 C.3    83  SER83       0.1889
     60  C         38.8580    6.2170   16.4250 C.2    83  SER83       0.2288
     61  O         39.7400    7.0710   16.3510 O.2    83  SER83      -0.2866
     62  CB        38.3080    4.9110   14.3590 C.3    83  SER83       0.2089
     63  OG        39.6620    5.0750   13.9680 O.3    83  SER83      -0.2183
     64  N         33.7590    1.7870   15.0320 N.3   115  SER115     -0.1202
     65  CA        34.3920    1.6060   13.7330 C.3   115  SER115      0.2020
     66  C         35.4230    0.4730   13.7470 C.2   115  SER115      0.2618
     67  O         35.6500   -0.1710   12.7220 O.2   115  SER115     -0.2717
     68  CB        35.0520    2.9090   13.2800 C.3   115  SER115      0.2103
     69  OG        35.2330    3.7960   14.3710 O.3   115  SER115     -0.2182
     70  N         36.0450    0.2200   14.8970 N.am  116  PHE116     -0.1975
     71  CA        36.9670   -0.9110   15.0050 C.3   116  PHE116      0.1639
     72  C         36.1920   -2.1940   15.2870 C.2   116  PHE116      0.2290
     73  O         36.4770   -3.2400   14.7080 O.2   116  PHE116     -0.2864
     74  CB        38.0230   -0.6710   16.0890 C.3   116  PHE116      0.0560
     75  CG        39.0530    0.3620   15.7150 C.ar  116  PHE116     -0.0200
     76  CD1       39.8920    0.1600   14.6330 C.ar  116  PHE116     -0.0042
     77  CD2       39.1840    1.5290   16.4440 C.ar  116  PHE116     -0.0042
     78  CE1       40.8350    1.1070   14.2820 C.ar  116  PHE116     -0.0003
     79  CE2       40.1320    2.4770   16.0970 C.ar  116  PHE116     -0.0003
     80  CZ        40.9550    2.2620   15.0160 C.ar  116  PHE116     -0.0000
     81  N         33.3920   -2.9660   14.2610 N.3   118  GLU118     -0.1231
     82  CA        32.6810   -3.3510   13.0440 C.3   118  GLU118      0.1699
     83  C         33.5800   -4.0040   11.9840 C.2   118  GLU118      0.2592
     84  O         33.0790   -4.5410   10.9950 O.2   118  GLU118     -0.2718
     85  CB        31.9840   -2.1190   12.4520 C.3   118  GLU118      0.0402
     86  CG        30.7680   -1.6480   13.2590 C.3   118  GLU118      0.1161
     87  CD        30.3290   -0.2310   12.9140 C.2   118  GLU118      0.3649
     88  OE1       29.4630    0.3150   13.6330 O.co2 118  GLU118     -0.2457
     89  OE2       30.8430    0.3400   11.9280 O.co2 118  GLU118     -0.2457
     90  N         34.8960   -3.9510   12.1870 N.am  119  ASP119     -0.1974
     91  CA        35.8530   -4.6440   11.3140 C.3   119  ASP119      0.1709
     92  C         36.2090   -6.0020   11.9230 C.2   119  ASP119      0.2293
     93  O         37.2510   -6.1340   12.5500 O.2   119  ASP119     -0.2864
     94  CB        37.1450   -3.8380   11.1080 C.3   119  ASP119      0.1436
     95  CG        36.9360   -2.5340   10.3560 C.2   119  ASP119      0.3671
     96  OD1       37.8130   -1.6480   10.4790 O.co2 119  ASP119     -0.2456
     97  OD2       35.9240   -2.3840    9.6420 O.co2 119  ASP119     -0.2456
     98  N         39.8740   -7.4700   11.5500 N.3   122  ILE122     -0.1245
     99  CA        41.0780   -6.7890   12.0240 C.3   122  ILE122      0.1561
    100  C         41.1430   -6.8780   13.5450 C.2   122  ILE122      0.2260
    101  O         40.3050   -6.3120   14.2510 O.2   122  ILE122     -0.2867
    102  CB        41.1130   -5.3220   11.5570 C.3   122  ILE122      0.0252
    103  CG1       41.2690   -5.2820   10.0340 C.3   122  ILE122      0.0019
    104  CG2       42.2680   -4.5610   12.2160 C.3   122  ILE122      0.0019
    105  CD1       41.0860   -3.9090    9.4160 C.3   122  ILE122      0.0001
    106  N         48.1370    2.1990    6.2070 N.3   221  GLY221     -0.1225
    107  CA        46.9190    2.1300    6.9950 C.3   221  GLY221      0.1811
    108  C         45.7880    3.0050    6.4870 C.2   221  GLY221      0.2280
    109  O         44.7260    3.0540    7.1020 O.2   221  GLY221     -0.2866
    110  N         43.3420    3.6490    3.1250 N.3   223  THR223     -0.1218
    111  CA        42.9030    2.9210    1.9420 C.3   223  THR223      0.1862
    112  C         43.1910    3.6590    0.6410 C.2   223  THR223      0.2287
    113  O         43.6720    3.0750   -0.3290 O.2   223  THR223     -0.2866
    114  CB        41.3890    2.6430    2.0000 C.3   223  THR223      0.1770
    115  OG1       41.0410    2.0970    3.2760 O.3   223  THR223     -0.2211
    116  CG2       40.9740    1.6740    0.8990 C.3   223  THR223      0.0375
@<TRIPOS>BOND
     1    12    11    2
     2   113   112    2
     3    11    10    1
     4   112   111    1
     5   116   114    1
     6    16    14   ar
     7    17    18    1
     8    23    22   ar
     9    10    13    1
    10    10     9    1
    11   111   114    1
    12   111   110    1
    13    14    13    1
    14    14    15   ar
    15   114   115    1
    16    24    22   ar
    17    22    21    1
    18    18    21    1
    19    18    19    1
    20     9     3   am
    21    19    25   am
    22    19    20    2
    23     1     2    1
    24    25    26    1
    25     3     4    2
    26     3     2    1
    27    28    27    2
    28    27    26    1
    29     2     5    1
    30    26    29    1
    31     6     5    1
    32     6     8    1
    33     5     7    1
    34   106   107    1
    35   108   107    1
    36   108   109    2
    37    36    35   ar
    38    37    35   ar
    39    35    34    1
    40   105   103    1
    41    97    95   ar
    42    54    55    1
    43    54    51    1
    44   103   102    1
    45    31    34    1
    46    31    32    1
    47    31    30    1
    48    32    33    2
    49    95    96   ar
    50    95    94    1
    51    55    56   ar
    52    55    57   ar
    53    51    50    1
    54    51    52    1
    55    84    83    2
    56    94    91    1
    57    91    92    1
    58    91    90    1
    59    98    99    1
    60   102    99    1
    61   102   104    1
    62    53    52    2
    63    92    93    2
    64    89    87   ar
    65    83    90   am
    66    83    82    1
    67    99   100    1
    68    85    82    1
    69    85    86    1
    70    67    66    2
    71    87    86    1
    72    87    88   ar
    73    82    81    1
    74    68    65    1
    75    68    69    1
    76    40    41    2
    77    40    39    1
    78    42    43    1
    79    42    39    1
    80   100   101    2
    81    65    66    1
    82    65    64    1
    83    66    70   am
    84    45    43   ar
    85    45    47   ar
    86    63    62    1
    87    43    44   ar
    88    39    38    1
    89    78    76   ar
    90    78    80   ar
    91    62    59    1
    92    47    48   ar
    93    58    59    1
    94    76    75   ar
    95    73    72    2
    96    70    71    1
    97    71    72    1
    98    71    74    1
    99    80    79   ar
   100    44    46   ar
   101    48    46   ar
   102    48    49    1
   103    59    60    1
   104    75    74    1
   105    75    77   ar
   106    79    77   ar
   107    61    60    2
