@<TRIPOS>MOLECULE
tmp/4y3xA00.pdb
 115 105 0 0 0
SMALL
GASTEIGER

@<TRIPOS>ATOM
      1  N         45.0870   -1.4970   70.8770 N.3    16  ALA16      -0.1245
      2  CA        43.9430   -1.5630   69.9710 C.3    16  ALA16       0.1562
      3  C         43.3180   -2.9200   70.1710 C.2    16  ALA16       0.2260
      4  O         43.8880   -3.7660   70.8440 O.2    16  ALA16      -0.2867
      5  CB        44.3310   -1.3650   68.5400 C.3    16  ALA16       0.0290
      6  N         40.0220   -3.7120   63.0470 N.3    33  ASP33      -0.1239
      7  CA        39.9260   -2.7730   64.1760 C.3    33  ASP33       0.1674
      8  C         38.6150   -2.0250   64.0360 C.2    33  ASP33       0.2266
      9  O         38.4300   -1.1850   63.1370 O.2    33  ASP33      -0.2867
     10  CB        41.1240   -1.8130   64.0890 C.3    33  ASP33       0.1410
     11  CG        41.2270   -0.8260   65.1720 C.2    33  ASP33       0.3668
     12  OD1       40.3280   -0.6510   66.0010 O.co2  33  ASP33      -0.2456
     13  OD2       42.2990   -0.1380   65.1680 O.co2  33  ASP33      -0.2456
     14  N         36.0650    0.6740   64.6410 N.3    35  ASP35      -0.1239
     15  CA        36.4260    2.0750   64.9220 C.3    35  ASP35       0.1674
     16  C         35.1990    2.9710   64.8720 C.2    35  ASP35       0.2266
     17  O         34.7690    3.3650   63.7910 O.2    35  ASP35      -0.2867
     18  CB        37.4490    2.5170   63.8580 C.3    35  ASP35       0.1410
     19  CG        37.8700    3.9540   63.9940 C.2    35  ASP35       0.3668
     20  OD1       37.5740    4.5380   65.0540 O.co2  35  ASP35      -0.2456
     21  OD2       38.5820    4.4440   63.0600 O.co2  35  ASP35      -0.2456
     22  N         35.0590    5.9560   65.4770 N.3    37  GLY37      -0.1225
     23  CA        35.5010    7.2800   65.0420 C.3    37  GLY37       0.1811
     24  C         35.7550    7.4580   63.5550 C.2    37  GLY37       0.2280
     25  O         36.1890    8.5430   63.1660 O.2    37  GLY37      -0.2866
     26  N         44.0790    9.3970   59.6960 N.3    79  TYR79      -0.1227
     27  CA        43.6480    9.3240   61.0680 C.3    79  TYR79       0.1736
     28  C         44.4110   10.3540   61.9000 C.2    79  TYR79       0.2596
     29  O         45.3600   10.9900   61.4640 O.2    79  TYR79      -0.2718
     30  CB        43.8550    7.9130   61.5830 C.3    79  TYR79       0.0548
     31  CG        43.0300    6.8860   60.8030 C.ar   79  TYR79      -0.0200
     32  CD1       43.6080    6.1500   59.7770 C.ar   79  TYR79      -0.0009
     33  CD2       41.6700    6.7440   61.0310 C.ar   79  TYR79      -0.0009
     34  CE1       42.8680    5.2230   59.0360 C.ar   79  TYR79       0.0417
     35  CE2       40.9030    5.7820   60.2890 C.ar   79  TYR79       0.0417
     36  CZ        41.5310    5.0590   59.2730 C.ar   79  TYR79       0.1957
     37  OH        40.8510    4.1450   58.5270 O.3    79  TYR79      -0.2866
     38  N         43.9870   10.5030   63.1370 N.am   80  GLY80      -0.1942
     39  CA        44.5520   11.5230   64.0120 C.3    80  GLY80       0.2014
     40  C         46.0360   11.4290   64.3820 C.2    80  GLY80       0.2638
     41  O         46.6000   12.4170   64.8650 O.2    80  GLY80      -0.2714
     42  N         46.6390   10.2440   64.2340 N.am   81  ASP81      -0.1971
     43  CA        48.0860   10.0690   64.4360 C.3    81  ASP81       0.1709
     44  C         48.8700   10.3680   63.1670 C.2    81  ASP81       0.2293
     45  O         50.1110   10.2400   63.1370 O.2    81  ASP81      -0.2864
     46  CB        48.3650    8.6310   64.9140 C.3    81  ASP81       0.1436
     47  CG        48.1560    7.6150   63.8650 C.2    81  ASP81       0.3671
     48  OD1       47.3020    7.8790   62.9980 O.co2  81  ASP81      -0.2456
     49  OD2       48.8380    6.5500   63.8900 O.co2  81  ASP81      -0.2456
     50  N         48.5380    8.6420   60.4430 N.3    83  SER83      -0.1217
     51  CA        48.5440    7.4280   59.6090 C.3    83  SER83       0.1889
     52  C         47.4780    7.5590   58.5260 C.2    83  SER83       0.2288
     53  O         46.5380    8.3390   58.6430 O.2    83  SER83      -0.2866
     54  CB        48.3380    6.1540   60.4060 C.3    83  SER83       0.2089
     55  OG        47.0690    6.1010   61.0250 O.3    83  SER83      -0.2183
     56  N         52.8310    2.9840   59.9510 N.3   115  SER115     -0.1202
     57  CA        52.3530    2.4420   61.2180 C.3   115  SER115      0.2020
     58  C         51.2760    1.3830   61.0270 C.2   115  SER115      0.2618
     59  O         50.9830    0.6490   61.9680 O.2   115  SER115     -0.2717
     60  CB        51.8290    3.5290   62.1430 C.3   115  SER115      0.2103
     61  OG        50.7090    4.1790   61.5840 O.3   115  SER115     -0.2182
     62  N         50.6490    1.3310   59.8390 N.am  116  PHE116     -0.1975
     63  CA        49.8170    0.1780   59.4910 C.3   116  PHE116      0.1639
     64  C         50.6740   -1.0060   59.1250 C.2   116  PHE116      0.2290
     65  O         50.4670   -2.1140   59.6300 O.2   116  PHE116     -0.2864
     66  CB        48.8170    0.5470   58.3870 C.3   116  PHE116      0.0560
     67  CG        47.6490    1.3960   58.8840 C.ar  116  PHE116     -0.0200
     68  CD1       46.7420    0.8600   59.7920 C.ar  116  PHE116     -0.0042
     69  CD2       47.4800    2.7180   58.5150 C.ar  116  PHE116     -0.0042
     70  CE1       45.7070    1.5700   60.2810 C.ar  116  PHE116     -0.0003
     71  CE2       46.4130    3.4320   58.9870 C.ar  116  PHE116     -0.0003
     72  CZ        45.5230    2.8930   59.8780 C.ar  116  PHE116     -0.0000
     73  N         52.0110   -2.7040   62.1950 N.3   119  ASP119     -0.1239
     74  CA        50.9610   -3.3070   63.0770 C.3   119  ASP119      0.1674
     75  C         50.5100   -4.6660   62.4410 C.2   119  ASP119      0.2266
     76  O         49.4400   -4.7680   61.8200 O.2   119  ASP119     -0.2867
     77  CB        49.7170   -2.3640   63.2120 C.3   119  ASP119      0.1410
     78  CG        49.5270   -1.7760   64.6060 C.2   119  ASP119      0.3668
     79  OD1       48.8130   -0.7420   64.7260 O.co2 119  ASP119     -0.2456
     80  OD2       50.0200   -2.3660   65.5940 O.co2 119  ASP119     -0.2456
     81  N         46.7550   -6.0910   62.7540 N.3   122  ILE122     -0.1245
     82  CA        45.5660   -5.3760   62.2890 C.3   122  ILE122      0.1561
     83  C         45.4930   -5.5060   60.7610 C.2   122  ILE122      0.2260
     84  O         46.3670   -5.0070   60.0240 O.2   122  ILE122     -0.2867
     85  CB        45.5730   -3.9120   62.7380 C.3   122  ILE122      0.0252
     86  CG1       45.4000   -3.8790   64.2680 C.3   122  ILE122      0.0019
     87  CG2       44.4760   -3.1190   61.9940 C.3   122  ILE122      0.0019
     88  CD1       45.4830   -2.4870   64.8640 C.3   122  ILE122      0.0001
     89  N         40.4060   -1.8760   59.0100 N.3   125  LEU125     -0.1245
     90  CA        39.4920   -1.1470   59.8710 C.3   125  LEU125      0.1561
     91  C         38.0650   -1.3940   59.4680 C.2   125  LEU125      0.2260
     92  O         37.7610   -1.5700   58.2850 O.2   125  LEU125     -0.2867
     93  CB        39.7410    0.3720   59.7360 C.3   125  LEU125      0.0270
     94  CG        40.8360    0.9880   60.5530 C.3   125  LEU125      0.0019
     95  CD1       40.2910    1.3110   61.7940 C.3   125  LEU125      0.0001
     96  CD2       42.1300    0.2260   60.7290 C.3   125  LEU125      0.0001
     97  N         35.0080    6.9050   70.8410 N.3   219  ASP219     -0.1239
     98  CA        35.8750    6.4640   69.7530 C.3   219  ASP219      0.1674
     99  C         36.6510    5.2080   70.0990 C.2   219  ASP219      0.2266
    100  O         37.7230    5.2690   70.7210 O.2   219  ASP219     -0.2867
    101  CB        36.8240    7.5780   69.3120 C.3   219  ASP219      0.1410
    102  CG        37.6210    7.1960   68.1170 C.2   219  ASP219      0.3668
    103  OD1       38.4590    8.0140   67.6830 O.co2 219  ASP219     -0.2456
    104  OD2       37.4120    6.0750   67.5750 O.co2 219  ASP219     -0.2456
    105  N         38.3300    3.4250   68.1640 N.3   221  GLY221     -0.1210
    106  CA        39.5510    3.3890   67.3940 C.3   221  GLY221      0.1956
    107  C         40.6880    4.2440   67.9180 C.2   221  GLY221      0.2612
    108  O         41.7600    4.2500   67.2970 O.2   221  GLY221     -0.2717
    109  N         40.4650    4.9740   69.0180 N.am  222  THR222     -0.1952
    110  CA        41.5180    5.7520   69.6840 C.3   222  THR222      0.1897
    111  C         41.8660    5.0650   70.9980 C.2   222  THR222      0.2313
    112  O         40.9620    4.7270   71.7800 O.2   222  THR222     -0.2863
    113  CB        41.0550    7.1890   69.9050 C.3   222  THR222      0.1794
    114  OG1       40.9600    7.8260   68.6230 O.3   222  THR222     -0.2208
    115  CG2       42.0600    7.9530   70.7590 C.3   222  THR222      0.0378
@<TRIPOS>BOND
     1    92    91    2
     2    66    67    1
     3    66    63    1
     4    69    67   ar
     5    69    71   ar
     6    52    53    2
     7    52    51    1
     8    37    36    1
     9    67    68   ar
    10    71    72   ar
    11    89    90    1
    12    34    36   ar
    13    34    32   ar
    14    64    63    1
    15    64    65    2
    16    36    35   ar
    17    91    90    1
    18    63    62    1
    19    51    54    1
    20    51    50    1
    21    26    27    1
    22    93    90    1
    23    93    94    1
    24    32    31   ar
    25    68    70   ar
    26    62    58   am
    27    72    70   ar
    28    56    57    1
    29    84    83    2
    30    35    33   ar
    31    54    55    1
    32    94    96    1
    33    94    95    1
    34    83    82    1
    35    31    33   ar
    36    31    30    1
    37    58    57    1
    38    58    59    2
    39    27    30    1
    40    27    28    1
    41    57    60    1
    42    29    28    2
    43    61    60    1
    44    76    75    2
    45    28    38   am
    46    87    85    1
    47    73    74    1
    48    82    85    1
    49    82    81    1
    50    75    74    1
    51    85    86    1
    52    48    47   ar
    53     6     7    1
    54    21    19   ar
    55    74    77    1
    56     9     8    2
    57    45    44    2
    58    38    39    1
    59    25    24    2
    60    44    43    1
    61    77    78    1
    62    24    23    1
    63    17    16    2
    64    18    19    1
    65    18    15    1
    66    47    49   ar
    67    47    46    1
    68    19    20   ar
    69    39    40    1
    70     8     7    1
    71    10     7    1
    72    10    11    1
    73    42    40   am
    74    42    43    1
    75    86    88    1
    76    40    41    2
    77    43    46    1
    78    78    79   ar
    79    78    80   ar
    80    14    15    1
    81    16    15    1
    82    23    22    1
    83    13    11   ar
    84    11    12   ar
    85   108   107    2
    86   106   107    1
    87   106   105    1
    88   104   102   ar
    89   103   102   ar
    90   107   109   am
    91   102   101    1
    92     5     2    1
    93   114   113    1
    94   109   110    1
    95   101    98    1
    96   110   113    1
    97   110   111    1
    98    98    99    1
    99    98    97    1
   100   113   115    1
   101     2     3    1
   102     2     1    1
   103    99   100    2
   104     3     4    2
   105   111   112    2
