@<TRIPOS>MOLECULE
tmp/4y3yA00.pdb
 96 88 0 0 0
SMALL
GASTEIGER

@<TRIPOS>ATOM
      1  N          5.2990   -1.1190    9.7940 N.3    35  ASP35      -0.1239
      2  CA         4.9610    0.2740    9.5000 C.3    35  ASP35       0.1674
      3  C          6.2220    1.1490    9.5440 C.2    35  ASP35       0.2266
      4  O          6.6630    1.5390   10.6330 O.2    35  ASP35      -0.2867
      5  CB         3.9660    0.7680   10.5450 C.3    35  ASP35       0.1410
      6  CG         3.5120    2.2000   10.3130 C.2    35  ASP35       0.3668
      7  OD1        3.7800    2.7600    9.2270 O.co2  35  ASP35      -0.2456
      8  OD2        2.8740    2.7570   11.2380 O.co2  35  ASP35      -0.2456
      9  N          6.3640    4.1060    8.9190 N.3    37  GLY37      -0.1210
     10  CA         5.9260    5.4240    9.3400 C.3    37  GLY37       0.1956
     11  C          5.6450    5.5800   10.8360 C.2    37  GLY37       0.2612
     12  O          5.1090    6.6090   11.2450 O.2    37  GLY37      -0.2717
     13  N          5.9990    4.5920   11.6590 N.am   38  SER38      -0.1952
     14  CA         5.8790    4.7310   13.1050 C.3    38  SER38       0.1924
     15  C          6.9200    3.8460   13.7700 C.2    38  SER38       0.2314
     16  O          7.6350    3.1030   13.0940 O.2    38  SER38      -0.2863
     17  CB         4.4680    4.3900   13.5930 C.3    38  SER38       0.2116
     18  OG         4.1800    3.0180   13.4450 O.3    38  SER38      -0.2180
     19  N         -2.4110    7.6870   15.0970 N.3    79  TYR79      -0.1227
     20  CA        -1.9220    7.5240   13.7420 C.3    79  TYR79       0.1736
     21  C         -2.5500    8.4940   12.7580 C.2    79  TYR79       0.2596
     22  O         -3.5140    9.1900   13.0810 O.2    79  TYR79      -0.2718
     23  CB        -2.1790    6.0950   13.2940 C.3    79  TYR79       0.0548
     24  CG        -1.3740    5.0700   14.0840 C.ar   79  TYR79      -0.0200
     25  CD1       -0.0180    4.8930   13.8310 C.ar   79  TYR79      -0.0009
     26  CD2       -1.9610    4.2870   15.0630 C.ar   79  TYR79      -0.0009
     27  CE1        0.7360    3.9440   14.5230 C.ar   79  TYR79       0.0417
     28  CE2       -1.2260    3.3330   15.7610 C.ar   79  TYR79       0.0417
     29  CZ         0.1240    3.1810   15.4900 C.ar   79  TYR79       0.1957
     30  OH         0.8630    2.2440   16.1590 O.3    79  TYR79      -0.2866
     31  N         -2.0110    8.5040   11.5400 N.am   80  GLY80      -0.1957
     32  CA        -2.4190    9.4520   10.5200 C.3    80  GLY80       0.1869
     33  C         -3.8690    9.3370   10.1020 C.2    80  GLY80       0.2309
     34  O         -4.4260   10.2900    9.5690 O.2    80  GLY80      -0.2863
     35  N         11.1500   10.1570   10.2830 N.3   194  PHE194     -0.1241
     36  CA        10.6710    9.3100    9.1890 C.3   194  PHE194      0.1605
     37  C         11.7820    9.0030    8.1820 C.2   194  PHE194      0.2264
     38  O         12.8440    9.6330    8.1910 O.2   194  PHE194     -0.2867
     39  CB         9.5580   10.0130    8.4250 C.3   194  PHE194      0.0534
     40  CG         8.3390   10.3390    9.2490 C.ar  194  PHE194     -0.0203
     41  CD1        7.5720    9.3410    9.8420 C.ar  194  PHE194     -0.0042
     42  CD2        7.9430   11.6530    9.4120 C.ar  194  PHE194     -0.0042
     43  CE1        6.4650    9.6590   10.6020 C.ar  194  PHE194     -0.0003
     44  CE2        6.8110   11.9650   10.1640 C.ar  194  PHE194     -0.0003
     45  CZ         6.0820   10.9670   10.7500 C.ar  194  PHE194     -0.0000
     46  N          7.6100   10.7900    2.5950 N.3   217  ILE217     -0.1245
     47  CA         8.0980    9.6890    3.4210 C.3   217  ILE217      0.1561
     48  C          7.7970    8.3450    2.7680 C.2   217  ILE217      0.2260
     49  O          6.7530    8.1710    2.1400 O.2   217  ILE217     -0.2867
     50  CB         7.5440    9.7570    4.8590 C.3   217  ILE217      0.0252
     51  CG1        6.0220    9.5860    4.9110 C.3   217  ILE217      0.0019
     52  CG2        7.9510   11.0760    5.4960 C.3   217  ILE217      0.0019
     53  CD1        5.5080    9.3240    6.3070 C.3   217  ILE217      0.0001
     54  N          6.4980    4.9840    3.4310 N.3   219  ASP219     -0.1239
     55  CA         5.6480    4.5420    4.5210 C.3   219  ASP219      0.1674
     56  C          4.8590    3.2790    4.1730 C.2   219  ASP219      0.2266
     57  O          3.7950    3.3260    3.5560 O.2   219  ASP219     -0.2867
     58  CB         4.6890    5.6740    4.9040 C.3   219  ASP219      0.1410
     59  CG         3.8330    5.3460    6.1050 C.2   219  ASP219      0.3668
     60  OD1        4.0110    4.2570    6.7050 O.co2 219  ASP219     -0.2456
     61  OD2        2.9700    6.1750    6.4560 O.co2 219  ASP219     -0.2456
     62  N          3.1310    1.5450    6.0960 N.3   221  GLY221     -0.1210
     63  CA         1.8990    1.4880    6.8650 C.3   221  GLY221      0.1956
     64  C          0.7640    2.3420    6.3370 C.2   221  GLY221      0.2612
     65  O         -0.3110    2.3700    6.9430 O.2   221  GLY221     -0.2717
     66  N          0.9980    3.0520    5.2390 N.am  222  THR222     -0.1952
     67  CA        -0.0510    3.8190    4.5730 C.3   222  THR222      0.1897
     68  C         -0.3990    3.1040    3.2770 C.2   222  THR222      0.2313
     69  O          0.4880    2.7200    2.5200 O.2   222  THR222     -0.2863
     70  CB         0.4030    5.2680    4.3210 C.3   222  THR222      0.1794
     71  OG1        0.4870    5.9340    5.5770 O.3   222  THR222     -0.2208
     72  CG2       -0.5850    6.0470    3.4410 C.3   222  THR222      0.0378
     73  N         -2.7910   16.8590    5.1550 N.3   300  ILE300     -0.1245
     74  CA        -1.9670   15.9130    5.9340 C.3   300  ILE300      0.1561
     75  C         -0.7170   16.5640    6.4850 C.2   300  ILE300      0.2260
     76  O         -0.2620   16.2200    7.5830 O.2   300  ILE300     -0.2867
     77  CB        -1.4820   14.7030    5.0940 C.3   300  ILE300      0.0252
     78  CG1       -2.6690   13.9220    4.5570 C.3   300  ILE300      0.0019
     79  CG2       -0.5760   13.7780    5.9470 C.3   300  ILE300      0.0019
     80  CD1       -2.2680   12.7400    3.7070 C.3   300  ILE300      0.0001
     81  N          2.2320   16.3340    4.9520 N.3   302  ILE302     -0.1245
     82  CA         3.3960   15.6370    4.4350 C.3   302  ILE302      0.1561
     83  C          2.9490   14.7750    3.2550 C.2   302  ILE302      0.2260
     84  O          1.8140   14.2860    3.2200 O.2   302  ILE302     -0.2867
     85  CB         4.0800   14.8070    5.5540 C.3   302  ILE302      0.0252
     86  CG1        5.5160   14.4350    5.1690 C.3   302  ILE302      0.0019
     87  CG2        3.2260   13.6150    5.9400 C.3   302  ILE302      0.0019
     88  CD1        6.4090   14.1530    6.3790 C.3   302  ILE302      0.0001
     89  N          3.1700   11.2970    1.2000 N.3   304  ILE304     -0.1245
     90  CA         3.3660    9.9390    1.6890 C.3   304  ILE304      0.1561
     91  C          3.4620    8.9680    0.5180 C.2   304  ILE304      0.2260
     92  O          2.4830    8.7650   -0.2150 O.2   304  ILE304     -0.2867
     93  CB         2.2470    9.4740    2.6450 C.3   304  ILE304      0.0252
     94  CG1        2.0520   10.4540    3.8070 C.3   304  ILE304      0.0019
     95  CG2        2.5880    8.0760    3.1640 C.3   304  ILE304      0.0019
     96  CD1        0.8920   10.1310    4.7010 C.3   304  ILE304      0.0001
@<TRIPOS>BOND
     1    92    91    2
     2    91    90    1
     3    89    90    1
     4    90    93    1
     5    49    48    2
     6    69    68    2
     7    46    47    1
     8    93    95    1
     9    93    94    1
    10    48    47    1
    11    84    83    2
    12    83    82    1
    13    68    67    1
    14    47    50    1
    15    54    55    1
    16    72    70    1
    17    57    56    2
    18    80    78    1
    19    94    96    1
    20    56    55    1
    21    70    67    1
    22    70    71    1
    23    82    81    1
    24    82    85    1
    25    55    58    1
    26    78    77    1
    27    67    66    1
    28    50    51    1
    29    50    52    1
    30    58    59    1
    31    51    53    1
    32    77    74    1
    33    77    79    1
    34    73    74    1
    35    86    85    1
    36    86    88    1
    37    66    64   am
    38    85    87    1
    39    74    75    1
    40    62    63    1
    41    59    61   ar
    42    59    60   ar
    43    64    63    1
    44    64    65    2
    45    75    76    2
    46    37    38    2
    47    37    36    1
    48    39    36    1
    49    39    40    1
    50     9    10    1
    51    36    35    1
    52     7     6   ar
    53    40    42   ar
    54    40    41   ar
    55    10    11    1
    56    42    44   ar
    57     2     3    1
    58     2     1    1
    59     2     5    1
    60     3     4    2
    61    34    33    2
    62    41    43   ar
    63    33    32    1
    64    44    45   ar
    65     6     5    1
    66     6     8   ar
    67    32    31    1
    68    43    45   ar
    69    11    12    2
    70    11    13   am
    71    31    21   am
    72    13    14    1
    73    21    22    2
    74    21    20    1
    75    16    15    2
    76    14    17    1
    77    14    15    1
    78    23    20    1
    79    23    24    1
    80    18    17    1
    81    20    19    1
    82    25    24   ar
    83    25    27   ar
    84    24    26   ar
    85    27    29   ar
    86    26    28   ar
    87    29    28   ar
    88    29    30    1
