@<TRIPOS>MOLECULE
tmp/4y41A00.pdb
 119 111 0 0 0
SMALL
GASTEIGER

@<TRIPOS>ATOM
      1  N        -16.2080   -6.2840   61.0270 N.3    33  ASP33      -0.1239
      2  CA       -16.0990   -5.3430   59.9170 C.3    33  ASP33       0.1674
      3  C        -14.7780   -4.5940   60.0670 C.2    33  ASP33       0.2266
      4  O        -14.6300   -3.7540   60.9600 O.2    33  ASP33      -0.2867
      5  CB       -17.3060   -4.3970   59.9830 C.3    33  ASP33       0.1410
      6  CG       -17.3970   -3.4410   58.8280 C.2    33  ASP33       0.3668
      7  OD1      -16.4540   -3.3480   58.0170 O.co2  33  ASP33      -0.2456
      8  OD2      -18.4550   -2.7580   58.7550 O.co2  33  ASP33      -0.2456
      9  N        -12.2540   -1.8970   59.5190 N.3    35  ASP35      -0.1239
     10  CA       -12.6150   -0.5040   59.2590 C.3    35  ASP35       0.1674
     11  C        -11.3920    0.4050   59.3060 C.2    35  ASP35       0.2266
     12  O        -10.9570    0.8070   60.3830 O.2    35  ASP35      -0.2867
     13  CB       -13.6340   -0.0580   60.3080 C.3    35  ASP35       0.1410
     14  CG       -14.0900    1.3760   60.1310 C.2    35  ASP35       0.3668
     15  OD1      -13.8420    1.9400   59.0480 O.co2  35  ASP35      -0.2456
     16  OD2      -14.7290    1.9070   61.0740 O.co2  35  ASP35      -0.2456
     17  N        -20.1610    7.2020   64.8700 N.3    79  TYR79      -0.1227
     18  CA       -19.6690    7.1410   63.5040 C.3    79  TYR79       0.1736
     19  C        -20.3910    8.1250   62.5950 C.2    79  TYR79       0.2596
     20  O        -21.4730    8.6320   62.9200 O.2    79  TYR79      -0.2718
     21  CB       -19.8330    5.7290   62.9460 C.3    79  TYR79       0.0548
     22  CG       -19.0660    4.6510   63.7000 C.ar   79  TYR79      -0.0200
     23  CD1      -19.7090    3.8110   64.5960 C.ar   79  TYR79      -0.0009
     24  CD2      -17.7070    4.4590   63.4780 C.ar   79  TYR79      -0.0009
     25  CE1      -19.0180    2.8190   65.2720 C.ar   79  TYR79       0.0417
     26  CE2      -16.9950    3.4670   64.1520 C.ar   79  TYR79       0.0417
     27  CZ       -17.6610    2.6480   65.0440 C.ar   79  TYR79       0.1957
     28  OH       -16.9760    1.6550   65.7160 O.3    79  TYR79      -0.2866
     29  N        -19.7990    8.3480   61.4270 N.am   80  GLY80      -0.1942
     30  CA       -20.2850    9.3430   60.4930 C.3    80  GLY80       0.2014
     31  C        -21.6470    9.0500   59.8960 C.2    80  GLY80       0.2638
     32  O        -22.2500    9.9370   59.2850 O.2    80  GLY80      -0.2714
     33  N        -22.1340    7.8210   60.0630 N.am   81  ASP81      -0.1971
     34  CA       -23.4600    7.4590   59.5670 C.3    81  ASP81       0.1709
     35  C        -24.5310    7.6020   60.6430 C.2    81  ASP81       0.2293
     36  O        -25.6850    7.2440   60.4230 O.2    81  ASP81      -0.2864
     37  CB       -23.4650    6.0380   59.0020 C.3    81  ASP81       0.1436
     38  CG       -23.2380    4.9750   60.0590 C.2    81  ASP81       0.3671
     39  OD1      -22.8220    5.3230   61.1850 O.co2  81  ASP81      -0.2456
     40  OD2      -23.4570    3.7840   59.7460 O.co2  81  ASP81      -0.2456
     41  N        -24.4720    6.1030   63.5960 N.3    83  SER83      -0.1217
     42  CA       -24.5110    4.9590   64.5090 C.3    83  SER83       0.1889
     43  C        -23.5230    5.1490   65.6560 C.2    83  SER83       0.2288
     44  O        -22.6690    6.0350   65.6160 O.2    83  SER83      -0.2866
     45  CB       -24.2260    3.6520   63.7690 C.3    83  SER83       0.2089
     46  OG       -22.8900    3.6010   63.3100 O.3    83  SER83      -0.2183
     47  N        -26.7780   -1.2270   64.2720 N.3   116  PHE116     -0.1241
     48  CA       -25.9560   -2.3840   64.6200 C.3   116  PHE116      0.1605
     49  C        -26.8310   -3.5760   64.9960 C.2   116  PHE116      0.2264
     50  O        -26.6350   -4.6800   64.4890 O.2   116  PHE116     -0.2867
     51  CB       -24.9690   -2.0350   65.7340 C.3   116  PHE116      0.0534
     52  CG       -23.8240   -1.1680   65.2730 C.ar  116  PHE116     -0.0203
     53  CD1      -22.9340   -1.6300   64.3200 C.ar  116  PHE116     -0.0042
     54  CD2      -23.6580    0.1150   65.7670 C.ar  116  PHE116     -0.0042
     55  CE1      -21.8980   -0.8420   63.8850 C.ar  116  PHE116     -0.0003
     56  CE2      -22.6120    0.9080   65.3340 C.ar  116  PHE116     -0.0003
     57  CZ       -21.7390    0.4320   64.3930 C.ar  116  PHE116     -0.0000
     58  N        -16.6050   -4.4210   65.0770 N.3   125  LEU125     -0.1245
     59  CA       -15.6790   -3.7290   64.1860 C.3   125  LEU125      0.1561
     60  C        -14.2480   -3.9600   64.6210 C.2   125  LEU125      0.2260
     61  O        -13.9690   -4.0980   65.8060 O.2   125  LEU125     -0.2867
     62  CB       -15.9660   -2.2200   64.1830 C.3   125  LEU125      0.0270
     63  CG       -16.9390   -1.7680   63.0820 C.3   125  LEU125      0.0019
     64  CD1      -18.3500   -2.3620   63.2680 C.3   125  LEU125      0.0001
     65  CD2      -17.0040   -0.2630   63.0070 C.3   125  LEU125      0.0001
     66  N        -11.2100    4.3770   53.2600 N.3   219  ASP219     -0.1239
     67  CA       -12.0460    3.8900   54.3640 C.3   219  ASP219      0.1674
     68  C        -12.8270    2.6320   53.9900 C.2   219  ASP219      0.2266
     69  O        -13.8880    2.6880   53.3550 O.2   219  ASP219     -0.2867
     70  CB       -13.0150    4.9740   54.8360 C.3   219  ASP219      0.1410
     71  CG       -13.8170    4.5390   56.0480 C.2   219  ASP219      0.3668
     72  OD1      -14.6940    5.3070   56.4830 O.co2 219  ASP219     -0.2456
     73  OD2      -13.5730    3.4240   56.5650 O.co2 219  ASP219     -0.2456
     74  N        -14.5370    0.8870   55.8560 N.3   221  GLY221     -0.1210
     75  CA       -15.7690    0.8000   56.6280 C.3   221  GLY221      0.1956
     76  C        -16.9020    1.6870   56.1380 C.2   221  GLY221      0.2613
     77  O        -17.9850    1.6910   56.7250 O.2   221  GLY221     -0.2717
     78  N        -16.6590    2.4280   55.0660 N.am  222  THR222     -0.1938
     79  CA       -17.7080    3.1880   54.3910 C.3   222  THR222      0.2028
     80  C        -18.0070    2.4870   53.0680 C.2   222  THR222      0.2642
     81  O        -17.1000    2.1340   52.3240 O.2   222  THR222     -0.2714
     82  CB       -17.2550    4.6420   54.1270 C.3   222  THR222      0.1808
     83  OG1      -17.1490    5.3420   55.3700 O.3   222  THR222     -0.2208
     84  CG2      -18.2650    5.3670   53.2390 C.3   222  THR222      0.0379
     85  N        -19.2810    2.2990   52.7630 N.am  223  THR223     -0.1950
     86  CA       -19.6620    1.5210   51.5970 C.3   223  THR223      0.1897
     87  C        -19.4260    2.2680   50.2970 C.2   223  THR223      0.2313
     88  O        -18.9230    1.7060   49.3330 O.2   223  THR223     -0.2863
     89  CB       -21.1530    1.1390   51.6490 C.3   223  THR223      0.1794
     90  OG1      -21.4700    0.6020   52.9400 O.3   223  THR223     -0.2208
     91  CG2      -21.5030    0.1080   50.5680 C.3   223  THR223      0.0378
     92  N        -17.6860    8.9730   48.3770 N.3   226  TYR226     -0.1241
     93  CA       -18.1960   10.3120   48.6550 C.3   226  TYR226      0.1605
     94  C        -17.1800   11.3450   48.1940 C.2   226  TYR226      0.2264
     95  O        -16.0550   11.3860   48.6960 O.2   226  TYR226     -0.2867
     96  CB       -18.4790   10.4990   50.1460 C.3   226  TYR226      0.0534
     97  CG       -19.6120    9.6310   50.6440 C.ar  226  TYR226     -0.0201
     98  CD1      -20.9250   10.0770   50.6100 C.ar  226  TYR226     -0.0009
     99  CD2      -19.3690    8.3580   51.1300 C.ar  226  TYR226     -0.0009
    100  CE1      -21.9640    9.2810   51.0550 C.ar  226  TYR226      0.0417
    101  CE2      -20.3860    7.5570   51.5750 C.ar  226  TYR226      0.0417
    102  CZ       -21.6840    8.0150   51.5400 C.ar  226  TYR226      0.1957
    103  OH       -22.7000    7.1990   51.9680 O.3   226  TYR226     -0.2866
    104  N        -20.5620   16.1150   54.9870 N.3   300  ILE300     -0.1245
    105  CA       -19.7920   15.1070   55.7160 C.3   300  ILE300      0.1561
    106  C        -18.4800   15.6910   56.2210 C.2   300  ILE300      0.2260
    107  O        -17.9600   15.2660   57.2570 O.2   300  ILE300     -0.2867
    108  CB       -19.5060   13.8700   54.8370 C.3   300  ILE300      0.0252
    109  CG1      -20.8230   13.2010   54.4400 C.3   300  ILE300      0.0019
    110  CG2      -18.5960   12.8770   55.5680 C.3   300  ILE300      0.0019
    111  CD1      -20.6630   12.0560   53.4590 C.3   300  ILE300      0.0001
    112  N        -14.4950   10.6250   50.9730 N.3   304  ILE304     -0.1245
    113  CA       -14.2820    9.2570   51.4400 C.3   304  ILE304      0.1561
    114  C        -14.2060    8.2940   50.2750 C.2   304  ILE304      0.2260
    115  O        -15.1910    8.0790   49.5630 O.2   304  ILE304     -0.2867
    116  CB       -15.3920    8.7870   52.4010 C.3   304  ILE304      0.0252
    117  CG1      -15.5860    9.7620   53.5710 C.3   304  ILE304      0.0019
    118  CG2      -15.0460    7.3980   52.9290 C.3   304  ILE304      0.0019
    119  CD1      -16.8230    9.4630   54.4060 C.3   304  ILE304      0.0001
@<TRIPOS>BOND
     1    94    93    1
     2    94    95    2
     3    92    93    1
     4    93    96    1
     5    88    87    2
     6   115   114    2
     7    96    97    1
     8   114   113    1
     9    87    86    1
    10    91    89    1
    11    98    97   ar
    12    98   100   ar
    13    97    99   ar
    14   112   113    1
    15   100   102   ar
    16    99   101   ar
    17   113   116    1
    18   102   101   ar
    19   102   103    1
    20    86    89    1
    21    86    85    1
    22    89    90    1
    23    81    80    2
    24   116   118    1
    25   116   117    1
    26    85    80   am
    27    80    79    1
    28    84    82    1
    29    66    67    1
    30    69    68    2
    31   111   109    1
    32   117   119    1
    33    68    67    1
    34    82    79    1
    35    82    83    1
    36    67    70    1
    37    79    78    1
    38   109   108    1
    39    70    71    1
    40   108   110    1
    41   108   105    1
    42   104   105    1
    43    78    76   am
    44   105   106    1
    45    74    75    1
    46    71    72   ar
    47    71    73   ar
    48    76    75    1
    49    76    77    2
    50   106   107    2
    51     7     6   ar
    52     8     6   ar
    53     6     5    1
    54    37    34    1
    55    37    38    1
    56    15    14   ar
    57    10    11    1
    58    10     9    1
    59    10    13    1
    60    32    31    2
    61    11    12    2
    62    34    33    1
    63    34    35    1
    64    40    38   ar
    65    31    33   am
    66    31    30    1
    67     2     5    1
    68     2     3    1
    69     2     1    1
    70    38    39   ar
    71     3     4    2
    72    14    13    1
    73    14    16   ar
    74    36    35    2
    75    30    29    1
    76    29    19   am
    77    19    20    2
    78    19    18    1
    79    21    18    1
    80    21    22    1
    81    65    63    1
    82    63    64    1
    83    63    62    1
    84    46    45    1
    85    24    22   ar
    86    24    26   ar
    87    18    17    1
    88    41    42    1
    89    22    23   ar
    90    45    42    1
    91    55    53   ar
    92    55    57   ar
    93    26    27   ar
    94    62    59    1
    95    59    60    1
    96    59    58    1
    97    47    48    1
    98    53    52   ar
    99    57    56   ar
   100    50    49    2
   101    42    43    1
   102    23    25   ar
   103    48    49    1
   104    48    51    1
   105    60    61    2
   106    27    25   ar
   107    27    28    1
   108    52    51    1
   109    52    54   ar
   110    56    54   ar
   111    44    43    2
