@<TRIPOS>MOLECULE
tmp/4y41A01.pdb
 87 83 0 0 0
SMALL
GASTEIGER

@<TRIPOS>ATOM
      1  N        -25.3870   -6.5950   47.7610 N.3    13  LEU13      -0.1245
      2  CA       -24.9920   -5.2530   47.3200 C.3    13  LEU13       0.1561
      3  C        -23.5720   -4.8750   47.7430 C.2    13  LEU13       0.2260
      4  O        -23.1260   -3.7600   47.4760 O.2    13  LEU13      -0.2867
      5  CB       -25.9460   -4.2150   47.9070 C.3    13  LEU13       0.0270
      6  CG       -27.4150   -4.3110   47.4890 C.3    13  LEU13       0.0019
      7  CD1      -28.2340   -3.2900   48.2650 C.3    13  LEU13       0.0001
      8  CD2      -27.5830   -4.1230   45.9960 C.3    13  LEU13       0.0001
      9  N        -22.7490   -4.2770   50.8100 N.3    15  ASP15      -0.1239
     10  CA       -22.9580   -3.1500   51.7180 C.3    15  ASP15       0.1674
     11  C        -21.8370   -3.0120   52.7510 C.2    15  ASP15       0.2266
     12  O        -21.5880   -1.9240   53.2700 O.2    15  ASP15      -0.2867
     13  CB       -24.3090   -3.2750   52.4180 C.3    15  ASP15       0.1410
     14  CG       -25.4670   -2.7980   51.5580 C.2    15  ASP15       0.3668
     15  OD1      -25.3350   -1.7480   50.9050 O.co2  15  ASP15      -0.2456
     16  OD2      -26.5210   -3.4710   51.5440 O.co2  15  ASP15      -0.2456
     17  N        -19.2810    2.2990   52.7630 N.3   223  THR223     -0.1203
     18  CA       -19.6620    1.5210   51.5970 C.3   223  THR223      0.1994
     19  C        -19.4260    2.2680   50.2970 C.2   223  THR223      0.2617
     20  O        -18.9230    1.7060   49.3330 O.2   223  THR223     -0.2717
     21  CB       -21.1530    1.1390   51.6490 C.3   223  THR223      0.1784
     22  OG1      -21.4700    0.6020   52.9400 O.3   223  THR223     -0.2211
     23  CG2      -21.5030    0.1080   50.5680 C.3   223  THR223      0.0376
     24  N        -19.8340    3.5320   50.2650 N.am  224  LEU224     -0.1979
     25  CA       -19.8720    4.2920   49.0210 C.3   224  LEU224      0.1596
     26  C        -18.6720    5.2140   48.8210 C.2   224  LEU224      0.2287
     27  O        -17.8050    5.3390   49.6910 O.2   224  LEU224     -0.2864
     28  CB       -21.1610    5.1000   48.9590 C.3   224  LEU224      0.0297
     29  CG       -22.4310    4.2630   49.1600 C.3   224  LEU224      0.0022
     30  CD1      -23.6560    5.1360   48.9370 C.3   224  LEU224      0.0001
     31  CD2      -22.4640    3.0360   48.2470 C.3   224  LEU224      0.0001
     32  N        -17.6860    8.9730   48.3770 N.3   226  TYR226     -0.1241
     33  CA       -18.1960   10.3120   48.6550 C.3   226  TYR226      0.1605
     34  C        -17.1800   11.3450   48.1940 C.2   226  TYR226      0.2264
     35  O        -16.0550   11.3860   48.6960 O.2   226  TYR226     -0.2867
     36  CB       -18.4790   10.4990   50.1460 C.3   226  TYR226      0.0534
     37  CG       -19.6120    9.6310   50.6440 C.ar  226  TYR226     -0.0201
     38  CD1      -20.9250   10.0770   50.6100 C.ar  226  TYR226     -0.0009
     39  CD2      -19.3690    8.3580   51.1300 C.ar  226  TYR226     -0.0009
     40  CE1      -21.9640    9.2810   51.0550 C.ar  226  TYR226      0.0417
     41  CE2      -20.3860    7.5570   51.5750 C.ar  226  TYR226      0.0417
     42  CZ       -21.6840    8.0150   51.5400 C.ar  226  TYR226      0.1957
     43  OH       -22.7000    7.1990   51.9680 O.3   226  TYR226     -0.2866
     44  N        -34.8900   10.7700   49.3760 N.3   248  VAL248     -0.1245
     45  CA       -34.1630    9.5120   49.4760 C.3   248  VAL248      0.1561
     46  C        -32.8220    9.6830   50.1910 C.2   248  VAL248      0.2260
     47  O        -32.3900    8.7890   50.9230 O.2   248  VAL248     -0.2867
     48  CB       -33.9720    8.8850   48.0840 C.3   248  VAL248      0.0252
     49  CG1      -33.1390    7.6140   48.1760 C.3   248  VAL248      0.0019
     50  CG2      -35.3500    8.6050   47.4520 C.3   248  VAL248      0.0019
     51  N        -26.3580    0.4720   43.4870 N.3   280  PHE280     -0.1241
     52  CA       -26.7560   -0.0650   44.7940 C.3   280  PHE280      0.1605
     53  C        -28.2230   -0.4570   44.8780 C.2   280  PHE280      0.2264
     54  O        -28.7590   -0.6770   45.9540 O.2   280  PHE280     -0.2867
     55  CB       -26.2710    0.8360   45.9270 C.3   280  PHE280      0.0534
     56  CG       -24.8590    0.5580   46.2490 C.ar  280  PHE280     -0.0203
     57  CD1      -23.8540    1.0050   45.4070 C.ar  280  PHE280     -0.0042
     58  CD2      -24.5280   -0.2780   47.3050 C.ar  280  PHE280     -0.0042
     59  CE1      -22.5430    0.6770   45.6380 C.ar  280  PHE280     -0.0003
     60  CE2      -23.2120   -0.6050   47.5360 C.ar  280  PHE280     -0.0003
     61  CZ       -22.2220   -0.1200   46.7020 C.ar  280  PHE280     -0.0000
     62  N        -32.4860   -1.0290   43.9290 N.3   282  PRO282     -0.2102
     63  CA       -33.7190   -0.2760   44.1880 C.3   282  PRO282      0.1504
     64  C        -33.7230    0.4110   45.5440 C.2   282  PRO282      0.2575
     65  O        -33.2430   -0.1580   46.5310 O.2   282  PRO282     -0.2718
     66  CB       -34.7920   -1.3550   44.0980 C.3   282  PRO282      0.0282
     67  CG       -34.2350   -2.2910   43.0560 C.3   282  PRO282      0.0208
     68  CD       -32.7740   -2.3800   43.4080 C.3   282  PRO282      0.0893
     69  N        -34.2840    1.6160   45.5950 N.am  283  ILE283     -0.1980
     70  CA       -34.2970    2.3870   46.8330 C.3   283  ILE283      0.1595
     71  C        -35.1930    1.7320   47.8740 C.2   283  ILE283      0.2287
     72  O        -35.0040    1.9180   49.0730 O.2   283  ILE283     -0.2864
     73  CB       -34.7230    3.8480   46.5890 C.3   283  ILE283      0.0276
     74  CG1      -36.0990    3.9100   45.9230 C.3   283  ILE283      0.0022
     75  CG2      -33.6690    4.5670   45.7240 C.3   283  ILE283      0.0022
     76  CD1      -36.7030    5.2880   45.8940 C.3   283  ILE283      0.0001
     77  N        -30.3350    3.3750   43.7680 N.3   291  PHE291     -0.1241
     78  CA       -29.4880    4.2760   44.5360 C.3   291  PHE291      0.1605
     79  C        -28.0560    4.2640   44.0290 C.2   291  PHE291      0.2264
     80  O        -27.4750    3.1990   43.8050 O.2   291  PHE291     -0.2867
     81  CB       -29.5010    3.9200   46.0250 C.3   291  PHE291      0.0534
     82  CG       -28.9680    5.0220   46.9060 C.ar  291  PHE291     -0.0203
     83  CD1      -29.6230    6.2310   46.9800 C.ar  291  PHE291     -0.0042
     84  CD2      -27.8100    4.8560   47.6460 C.ar  291  PHE291     -0.0042
     85  CE1      -29.1370    7.2550   47.7790 C.ar  291  PHE291     -0.0003
     86  CE2      -27.3340    5.8650   48.4460 C.ar  291  PHE291     -0.0003
     87  CZ       -27.9950    7.0700   48.5070 C.ar  291  PHE291     -0.0000
@<TRIPOS>BOND
     1    67    68    1
     2    67    66    1
     3    68    62    1
     4    51    52    1
     5    77    78    1
     6    80    79    2
     7    62    63    1
     8    79    78    1
     9    66    63    1
    10    63    64    1
    11    78    81    1
    12    52    53    1
    13    52    55    1
    14    53    54    2
    15    57    59   ar
    16    57    56   ar
    17    64    69   am
    18    64    65    2
    19    69    70    1
    20    59    61   ar
    21    75    73    1
    22    76    74    1
    23    74    73    1
    24    55    56    1
    25     8     6    1
    26    81    82    1
    27    56    58   ar
    28    73    70    1
    29    61    60   ar
    30    70    71    1
    31    82    83   ar
    32    82    84   ar
    33    83    85   ar
    34    58    60   ar
    35     2     3    1
    36     2     1    1
    37     2     5    1
    38    50    48    1
    39     4     3    2
    40     6     5    1
    41     6     7    1
    42    84    86   ar
    43    85    87   ar
    44    71    72    2
    45    48    49    1
    46    48    45    1
    47    34    33    1
    48    34    35    2
    49    31    29    1
    50    32    33    1
    51    86    87   ar
    52    33    36    1
    53    26    25    1
    54    26    27    2
    55    30    29    1
    56    28    25    1
    57    28    29    1
    58    25    24    1
    59    20    19    2
    60    44    45    1
    61    45    46    1
    62    36    37    1
    63    46    47    2
    64    24    19   am
    65    19    18    1
    66    23    21    1
    67    38    37   ar
    68    38    40   ar
    69    37    39   ar
    70     9    10    1
    71    15    14   ar
    72    40    42   ar
    73    39    41   ar
    74    42    41   ar
    75    42    43    1
    76    16    14   ar
    77    14    13    1
    78    18    21    1
    79    18    17    1
    80    21    22    1
    81    10    13    1
    82    10    11    1
    83    11    12    2
