@<TRIPOS>MOLECULE
tmp/4y43A00.pdb
 91 87 0 0 0
SMALL
GASTEIGER

@<TRIPOS>ATOM
      1  N         37.8920   -5.6920   -1.8780 N.3    13  LEU13      -0.1245
      2  CA        38.2460   -4.3580   -2.3650 C.3    13  LEU13       0.1561
      3  C         39.6400   -3.9010   -1.9560 C.2    13  LEU13       0.2260
      4  O         40.0410   -2.7870   -2.2980 O.2    13  LEU13      -0.2867
      5  CB        37.2470   -3.3300   -1.8450 C.3    13  LEU13       0.0270
      6  CG        35.7930   -3.4900   -2.2820 C.3    13  LEU13       0.0019
      7  CD1       34.9350   -2.4510   -1.5940 C.3    13  LEU13       0.0001
      8  CD2       35.6770   -3.3720   -3.7930 C.3    13  LEU13       0.0001
      9  N         40.3970   -3.1630    1.1510 N.3    15  ASP15      -0.1239
     10  CA        40.1980   -2.0380    2.0690 C.3    15  ASP15       0.1674
     11  C         41.3080   -1.9390    3.1210 C.2    15  ASP15       0.2266
     12  O         41.6370   -0.8480    3.6030 O.2    15  ASP15      -0.2867
     13  CB        38.8230   -2.1070    2.7160 C.3    15  ASP15       0.1410
     14  CG        37.7310   -1.6350    1.7840 C.2    15  ASP15       0.3668
     15  OD1       37.9400   -0.6110    1.0970 O.co2  15  ASP15      -0.2456
     16  OD2       36.6710   -2.2920    1.7260 O.co2  15  ASP15      -0.2456
     17  N         43.8810    3.2570    3.0190 N.3   223  THR223     -0.1203
     18  CA        43.4300    2.4870    1.8700 C.3   223  THR223      0.1994
     19  C         43.7040    3.1840    0.5450 C.2   223  THR223      0.2617
     20  O         44.1880    2.5610   -0.4150 O.2   223  THR223     -0.2717
     21  CB        41.9130    2.2130    1.9560 C.3   223  THR223      0.1784
     22  OG1       41.6030    1.6780    3.2480 O.3   223  THR223     -0.2211
     23  CG2       41.4660    1.2310    0.8690 C.3   223  THR223      0.0376
     24  N         43.3850    4.4730    0.4910 N.am  224  LEU224     -0.1979
     25  CA        43.3600    5.1850   -0.7830 C.3   224  LEU224      0.1596
     26  C         44.5590    6.0940   -1.0040 C.2   224  LEU224      0.2287
     27  O         45.4440    6.2290   -0.1450 O.2   224  LEU224     -0.2864
     28  CB        42.0740    6.0070   -0.8970 C.3   224  LEU224      0.0297
     29  CG        40.7710    5.2240   -0.7150 C.3   224  LEU224      0.0022
     30  CD1       39.5530    6.1310   -0.9400 C.3   224  LEU224      0.0001
     31  CD2       40.7290    3.9960   -1.6320 C.3   224  LEU224      0.0001
     32  N         45.5170    9.8700   -1.4620 N.3   226  TYR226     -0.1241
     33  CA        45.0000   11.2180   -1.2100 C.3   226  TYR226      0.1605
     34  C         46.0090   12.2570   -1.6680 C.2   226  TYR226      0.2264
     35  O         47.1320   12.3100   -1.1570 O.2   226  TYR226     -0.2867
     36  CB        44.6990   11.4230    0.2780 C.3   226  TYR226      0.0534
     37  CG        43.5850   10.5430    0.7750 C.ar  226  TYR226     -0.0201
     38  CD1       43.8480    9.2680    1.2610 C.ar  226  TYR226     -0.0009
     39  CD2       42.2620   10.9760    0.7330 C.ar  226  TYR226     -0.0009
     40  CE1       42.8330    8.4490    1.7000 C.ar  226  TYR226      0.0417
     41  CE2       41.2350   10.1690    1.1680 C.ar  226  TYR226      0.0417
     42  CZ        41.5240    8.9020    1.6570 C.ar  226  TYR226      0.1957
     43  OH        40.5040    8.0910    2.0890 O.3   226  TYR226     -0.2866
     44  N         28.3380   11.4320   -0.5210 N.3   248  VAL248     -0.1231
     45  CA        29.0550   10.1630   -0.4330 C.3   248  VAL248      0.1692
     46  C         30.3880   10.3640    0.2830 C.2   248  VAL248      0.2592
     47  O         30.8430    9.4980    1.0310 O.2   248  VAL248     -0.2718
     48  CB        29.2760    9.5400   -1.8280 C.3   248  VAL248      0.0266
     49  CG1       30.1350    8.2810   -1.7360 C.3   248  VAL248      0.0020
     50  CG2       27.9320    9.2370   -2.4770 C.3   248  VAL248      0.0020
     51  N         31.0070   11.5170    0.0640 N.am  249  GLY249     -0.1957
     52  CA        32.2590   11.8340    0.7320 C.3   249  GLY249      0.1869
     53  C         33.4910   11.7180   -0.1470 C.2   249  GLY249      0.2309
     54  O         34.5990   11.5130    0.3500 O.2   249  GLY249     -0.2863
     55  N         36.8490    1.2130   -6.3220 N.3   280  PHE280     -0.1241
     56  CA        36.4840    0.6860   -5.0070 C.3   280  PHE280      0.1605
     57  C         35.0210    0.2730   -4.8670 C.2   280  PHE280      0.2264
     58  O         34.4960    0.1460   -3.7610 O.2   280  PHE280     -0.2867
     59  CB        36.9810    1.6060   -3.8830 C.3   280  PHE280      0.0534
     60  CG        38.4220    1.3810   -3.5890 C.ar  280  PHE280     -0.0203
     61  CD1       39.3930    1.8640   -4.4530 C.ar  280  PHE280     -0.0042
     62  CD2       38.8060    0.5870   -2.5230 C.ar  280  PHE280     -0.0042
     63  CE1       40.7180    1.5900   -4.2430 C.ar  280  PHE280     -0.0003
     64  CE2       40.1280    0.3130   -2.3040 C.ar  280  PHE280     -0.0003
     65  CZ        41.0920    0.8180   -3.1640 C.ar  280  PHE280     -0.0000
     66  N         30.7190   -0.3070   -5.7460 N.3   282  PRO282     -0.2102
     67  CA        29.4880    0.4660   -5.5650 C.3   282  PRO282      0.1504
     68  C         29.4550    1.1940   -4.2290 C.2   282  PRO282      0.2575
     69  O         29.9260    0.6660   -3.2190 O.2   282  PRO282     -0.2718
     70  CB        28.4000   -0.6070   -5.6450 C.3   282  PRO282      0.0282
     71  CG        29.0040   -1.6450   -6.5610 C.3   282  PRO282      0.0208
     72  CD        30.4430   -1.6990   -6.1370 C.3   282  PRO282      0.0893
     73  N         28.9130    2.4090   -4.2320 N.am  283  ILE283     -0.1980
     74  CA        28.8700    3.2230   -3.0220 C.3   283  ILE283      0.1595
     75  C         27.9500    2.5890   -1.9820 C.2   283  ILE283      0.2287
     76  O         28.1080    2.8080   -0.7800 O.2   283  ILE283     -0.2864
     77  CB        28.4260    4.6690   -3.3260 C.3   283  ILE283      0.0276
     78  CG1       27.0430    4.6850   -3.9850 C.3   283  ILE283      0.0022
     79  CG2       29.4620    5.3690   -4.2140 C.3   283  ILE283      0.0022
     80  CD1       26.4770    6.0810   -4.1640 C.3   283  ILE283      0.0001
     81  N         32.8520    4.0770   -5.9650 N.3   291  PHE291     -0.1241
     82  CA        33.7260    4.9780   -5.2250 C.3   291  PHE291      0.1605
     83  C         35.1550    4.9700   -5.7650 C.2   291  PHE291      0.2264
     84  O         35.7270    3.9140   -6.0150 O.2   291  PHE291     -0.2867
     85  CB        33.7260    4.6390   -3.7320 C.3   291  PHE291      0.0534
     86  CG        34.2560    5.7430   -2.8750 C.ar  291  PHE291     -0.0203
     87  CD1       33.5170    6.8990   -2.6830 C.ar  291  PHE291     -0.0042
     88  CD2       35.5020    5.6370   -2.2750 C.ar  291  PHE291     -0.0042
     89  CE1       34.0080    7.9350   -1.8940 C.ar  291  PHE291     -0.0003
     90  CE2       35.9980    6.6640   -1.4890 C.ar  291  PHE291     -0.0003
     91  CZ        35.2470    7.8180   -1.2970 C.ar  291  PHE291     -0.0000
@<TRIPOS>BOND
     1    71    72    1
     2    71    70    1
     3    55    56    1
     4    72    66    1
     5    84    83    2
     6    81    82    1
     7    83    82    1
     8    66    67    1
     9    70    67    1
    10    67    68    1
    11    82    85    1
    12    56    57    1
    13    56    59    1
    14    57    58    2
    15    61    63   ar
    16    61    60   ar
    17    63    65   ar
    18    73    68   am
    19    73    74    1
    20    68    69    2
    21    79    77    1
    22    80    78    1
    23    78    77    1
    24    59    60    1
    25     8     6    1
    26    85    86    1
    27    60    62   ar
    28    77    74    1
    29    65    64   ar
    30    74    75    1
    31    86    87   ar
    32    86    88   ar
    33    87    89   ar
    34    62    64   ar
    35    50    48    1
    36     2     3    1
    37     2     1    1
    38     2     5    1
    39     4     3    2
    40     6     5    1
    41     6     7    1
    42    88    90   ar
    43    75    76    2
    44    89    91   ar
    45    48    49    1
    46    48    45    1
    47    34    33    1
    48    34    35    2
    49    31    29    1
    50    90    91   ar
    51    32    33    1
    52    33    36    1
    53    26    25    1
    54    26    27    2
    55    30    29    1
    56    28    25    1
    57    28    29    1
    58    25    24    1
    59    44    45    1
    60    45    46    1
    61    20    19    2
    62    53    54    2
    63    53    52    1
    64    51    46   am
    65    51    52    1
    66    36    37    1
    67    46    47    2
    68    24    19   am
    69    19    18    1
    70    39    37   ar
    71    39    41   ar
    72    37    38   ar
    73    23    21    1
    74    15    14   ar
    75     9    10    1
    76    41    42   ar
    77    38    40   ar
    78    42    40   ar
    79    42    43    1
    80    16    14   ar
    81    14    13    1
    82    18    21    1
    83    18    17    1
    84    21    22    1
    85    10    13    1
    86    10    11    1
    87    11    12    2
