@<TRIPOS>MOLECULE
tmp/4y45A00.pdb
 134 124 0 0 0
SMALL
GASTEIGER

@<TRIPOS>ATOM
      1  N         -3.8540   -8.5690    3.4590 N.3    10  ILE10      -0.1245
      2  CA        -4.9490   -8.9640    4.3320 C.3    10  ILE10       0.1561
      3  C         -6.2600   -9.1800    3.5810 C.2    10  ILE10       0.2260
      4  O         -7.1740   -9.8060    4.1150 O.2    10  ILE10      -0.2867
      5  CB        -5.1930   -7.9640    5.4880 C.3    10  ILE10       0.0252
      6  CG1       -5.6680   -6.5990    4.9640 C.3    10  ILE10       0.0019
      7  CG2       -3.9480   -7.8310    6.3510 C.3    10  ILE10       0.0019
      8  CD1       -6.2380   -5.7100    6.0590 C.3    10  ILE10       0.0001
      9  N         -5.0790   -3.8490    1.1720 N.3    15  ASP15      -0.1225
     10  CA        -5.2660   -2.7240    2.0820 C.3    15  ASP15       0.1805
     11  C         -4.1440   -2.6180    3.1290 C.2    15  ASP15       0.2597
     12  O         -3.8170   -1.5250    3.6160 O.2    15  ASP15      -0.2718
     13  CB        -6.6400   -2.7930    2.7360 C.3    15  ASP15       0.1424
     14  CG        -7.7470   -2.3580    1.7950 C.2    15  ASP15       0.3668
     15  OD1       -7.5750   -1.3260    1.1080 O.co2  15  ASP15      -0.2456
     16  OD2       -8.8000   -3.0380    1.7480 O.co2  15  ASP15      -0.2456
     17  N         -3.5630   -3.7530    3.4790 N.am   16  ALA16      -0.1979
     18  CA        -2.4080   -3.8060    4.3590 C.3    16  ALA16       0.1597
     19  C         -1.8040   -5.1840    4.1800 C.2    16  ALA16       0.2287
     20  O         -2.3920   -6.0440    3.5190 O.2    16  ALA16      -0.2864
     21  CB        -2.7910   -3.5550    5.8190 C.3    16  ALA16       0.0319
     22  N          1.3880   -5.9750   11.3440 N.3    33  ASP33      -0.1239
     23  CA         1.5100   -5.0400   10.2360 C.3    33  ASP33       0.1674
     24  C          2.8380   -4.2980   10.3920 C.2    33  ASP33       0.2266
     25  O          2.9960   -3.4530   11.2850 O.2    33  ASP33      -0.2867
     26  CB         0.3110   -4.1000   10.3070 C.3    33  ASP33       0.1410
     27  CG         0.2390   -3.0880    9.1820 C.2    33  ASP33       0.3668
     28  OD1        1.1600   -2.9900    8.3520 O.co2  33  ASP33      -0.2456
     29  OD2       -0.8020   -2.3750    9.1440 O.co2  33  ASP33      -0.2456
     30  N          5.3830   -1.5900    9.7880 N.3    35  ASP35      -0.1239
     31  CA         5.0370   -0.2000    9.5300 C.3    35  ASP35       0.1674
     32  C          6.2690    0.6910    9.5950 C.2    35  ASP35       0.2266
     33  O          6.7000    1.0790   10.6790 O.2    35  ASP35      -0.2867
     34  CB         4.0180    0.2410   10.5840 C.3    35  ASP35       0.1410
     35  CG         3.5810    1.6670   10.4220 C.2    35  ASP35       0.3668
     36  OD1        3.8670    2.2560    9.3610 O.co2  35  ASP35      -0.2456
     37  OD2        2.9240    2.1840   11.3570 O.co2  35  ASP35      -0.2456
     38  N         -2.6260    7.2020   15.0490 N.3    79  TYR79      -0.1227
     39  CA        -2.1440    7.1560   13.6830 C.3    79  TYR79       0.1736
     40  C         -2.8740    8.1890   12.8360 C.2    79  TYR79       0.2596
     41  O         -3.8450    8.8020   13.2880 O.2    79  TYR79      -0.2718
     42  CB        -2.3290    5.7430   13.1360 C.3    79  TYR79       0.0548
     43  CG        -1.5370    4.6950   13.8990 C.ar   79  TYR79      -0.0200
     44  CD1       -0.1670    4.5660   13.7070 C.ar   79  TYR79      -0.0009
     45  CD2       -2.1500    3.8460   14.8120 C.ar   79  TYR79      -0.0009
     46  CE1        0.5730    3.6130   14.3950 C.ar   79  TYR79       0.0417
     47  CE2       -1.4240    2.8900   15.4970 C.ar   79  TYR79       0.0417
     48  CZ        -0.0680    2.7780   15.2890 C.ar   79  TYR79       0.1957
     49  OH         0.6120    1.8080   15.9950 O.3    79  TYR79      -0.2866
     50  N         -2.3910    8.3790   11.6130 N.am   80  GLY80      -0.1942
     51  CA        -2.8610    9.4480   10.7500 C.3    80  GLY80       0.2014
     52  C         -4.3110    9.3300   10.3260 C.2    80  GLY80       0.2638
     53  O         -4.9090   10.3070    9.8630 O.2    80  GLY80      -0.2714
     54  N         -4.8760    8.1360   10.4770 N.am   81  ASP81      -0.1971
     55  CA        -6.2710    7.8870   10.1250 C.3    81  ASP81       0.1709
     56  C         -7.2030    8.0440   11.3250 C.2    81  ASP81       0.2293
     57  O         -8.4000    7.7670   11.2230 O.2    81  ASP81      -0.2864
     58  CB        -6.4180    6.4890    9.5220 C.3    81  ASP81       0.1436
     59  CG        -6.0500    5.3850   10.4920 C.2    81  ASP81       0.3671
     60  OD1       -5.5250    5.6910   11.5800 O.co2  81  ASP81      -0.2456
     61  OD2       -6.2800    4.2050   10.1520 O.co2  81  ASP81      -0.2456
     62  N         -7.0580    6.3580   14.1470 N.3    83  SER83      -0.1217
     63  CA        -7.0790    5.1600   14.9880 C.3    83  SER83       0.1889
     64  C         -6.0550    5.2920   16.1100 C.2    83  SER83       0.2288
     65  O         -5.1520    6.1260   16.0420 O.2    83  SER83      -0.2866
     66  CB        -6.8030    3.9000   14.1600 C.3    83  SER83       0.2089
     67  OG        -5.4820    3.8800   13.6420 O.3    83  SER83      -0.2183
     68  N        -11.6370    0.6100   14.8840 N.3   115  SER115     -0.1202
     69  CA       -11.1150    0.1640   13.6070 C.3   115  SER115      0.2020
     70  C        -10.2190   -1.0630   13.7600 C.2   115  SER115      0.2618
     71  O        -10.2280   -1.9450   12.9050 O.2   115  SER115     -0.2717
     72  CB       -10.3470    1.2940   12.9470 C.3   115  SER115      0.2103
     73  OG        -9.4080    1.8220   13.8610 O.3   115  SER115     -0.2182
     74  N         -9.4480   -1.1210   14.8450 N.am  116  PHE116     -0.1975
     75  CA        -8.6230   -2.2940   15.1150 C.3   116  PHE116      0.1639
     76  C         -9.4980   -3.4880   15.4810 C.2   116  PHE116      0.2290
     77  O         -9.3220   -4.5790   14.9400 O.2   116  PHE116     -0.2864
     78  CB        -7.6030   -1.9940   16.2150 C.3   116  PHE116      0.0560
     79  CG        -6.4880   -1.0960   15.7640 C.ar  116  PHE116     -0.0200
     80  CD1       -5.5860   -1.5300   14.8080 C.ar  116  PHE116     -0.0042
     81  CD2       -6.3440    0.1850   16.2820 C.ar  116  PHE116     -0.0042
     82  CE1       -4.5670   -0.7170   14.3850 C.ar  116  PHE116     -0.0003
     83  CE2       -5.3190    1.0050   15.8550 C.ar  116  PHE116     -0.0003
     84  CZ        -4.4320    0.5550   14.9060 C.ar  116  PHE116     -0.0000
     85  N        -11.1090   -5.2240   12.5480 N.3   119  ASP119     -0.1239
     86  CA       -10.2310   -5.8970   11.5980 C.3   119  ASP119      0.1674
     87  C         -9.5800   -7.1080   12.2490 C.2   119  ASP119      0.2266
     88  O         -8.5690   -7.0020   12.9530 O.2   119  ASP119     -0.2867
     89  CB        -9.1590   -4.9430   11.1020 C.3   119  ASP119      0.1410
     90  CG        -8.3330   -5.5300    9.9850 C.2   119  ASP119      0.3668
     91  OD1       -8.3910   -6.7550    9.7590 O.co2 119  ASP119     -0.2456
     92  OD2       -7.6270   -4.7610    9.3080 O.co2 119  ASP119     -0.2456
     93  N         -5.4170   -8.2900   11.6550 N.3   122  ILE122     -0.1245
     94  CA        -4.2160   -7.6100   12.1480 C.3   122  ILE122      0.1561
     95  C         -4.1470   -7.7480   13.6630 C.2   122  ILE122      0.2260
     96  O         -5.0180   -7.2660   14.3840 O.2   122  ILE122     -0.2867
     97  CB        -4.1920   -6.1340   11.6970 C.3   122  ILE122      0.0252
     98  CG1       -3.9790   -6.0740   10.1810 C.3   122  ILE122      0.0019
     99  CG2       -3.0990   -5.3500   12.4280 C.3   122  ILE122      0.0019
    100  CD1       -4.0810   -4.6780    9.5920 C.3   122  ILE122      0.0001
    101  N          0.9950   -4.1190   15.4240 N.3   125  LEU125     -0.1245
    102  CA         1.8870   -3.3690   14.5440 C.3   125  LEU125      0.1561
    103  C          3.3230   -3.6460   14.9570 C.2   125  LEU125      0.2260
    104  O          3.6160   -3.8090   16.1480 O.2   125  LEU125     -0.2867
    105  CB         1.6280   -1.8630   14.6880 C.3   125  LEU125      0.0270
    106  CG         0.5350   -1.2190   13.8510 C.3   125  LEU125      0.0019
    107  CD1        1.0650   -0.9590   12.4840 C.3   125  LEU125      0.0001
    108  CD2       -0.7570   -2.0080   13.7840 C.3   125  LEU125      0.0001
    109  N          6.5130    4.6570    3.5750 N.3   219  ASP219     -0.1239
    110  CA         5.6650    4.1650    4.6620 C.3   219  ASP219      0.1674
    111  C          4.8870    2.9070    4.2760 C.2   219  ASP219      0.2266
    112  O          3.8140    2.9720    3.6630 O.2   219  ASP219     -0.2867
    113  CB         4.7030    5.2580    5.1110 C.3   219  ASP219      0.1410
    114  CG         3.9050    4.8460    6.3290 C.2   219  ASP219      0.3668
    115  OD1        4.1610    3.7420    6.8660 O.co2 219  ASP219     -0.2456
    116  OD2        3.0260    5.6210    6.7680 O.co2 219  ASP219     -0.2456
    117  N          3.2120    1.1380    6.1840 N.3   221  GLY221     -0.1210
    118  CA         1.9900    1.0920    6.9630 C.3   221  GLY221      0.1956
    119  C          0.8570    1.9880    6.4720 C.2   221  GLY221      0.2613
    120  O         -0.1960    2.0390    7.1130 O.2   221  GLY221     -0.2717
    121  N          1.0600    2.6870    5.3550 N.am  222  THR222     -0.1938
    122  CA         0.0080    3.4690    4.7130 C.3   222  THR222      0.2028
    123  C         -0.3520    2.7700    3.4060 C.2   222  THR222      0.2642
    124  O          0.5340    2.3650    2.6560 O.2   222  THR222     -0.2714
    125  CB         0.4800    4.9130    4.4420 C.3   222  THR222      0.1808
    126  OG1        0.5990    5.6090    5.6870 O.3   222  THR222     -0.2208
    127  CG2       -0.5050    5.6650    3.5660 C.3   222  THR222      0.0379
    128  N         -1.6470    2.6290    3.1280 N.am  223  THR223     -0.1950
    129  CA        -2.0880    1.8750    1.9590 C.3   223  THR223      0.1897
    130  C         -1.7850    2.6010    0.6470 C.2   223  THR223      0.2313
    131  O         -1.3180    1.9900   -0.3180 O.2   223  THR223     -0.2863
    132  CB        -3.6170    1.6160    2.0150 C.3   223  THR223      0.1794
    133  OG1       -4.0120    1.1270    3.2980 O.3   223  THR223     -0.2208
    134  CG2       -4.0560    0.6330    0.9300 C.3   223  THR223      0.0378
@<TRIPOS>BOND
     1   131   130    2
     2   130   129    1
     3   134   132    1
     4    15    14   ar
     5     9    10    1
     6    16    14   ar
     7    14    13    1
     8   129   132    1
     9   129   128    1
    10   132   133    1
    11    10    13    1
    12    10    11    1
    13   124   123    2
    14   128   123   am
    15    11    17   am
    16    11    12    2
    17   123   122    1
    18     1     2    1
    19    17    18    1
    20    20    19    2
    21   127   125    1
    22   109   110    1
    23     3     4    2
    24     3     2    1
    25   112   111    2
    26    19    18    1
    27   111   110    1
    28     2     5    1
    29    18    21    1
    30   125   122    1
    31   125   126    1
    32   110   113    1
    33   122   121    1
    34     6     5    1
    35     6     8    1
    36   113   114    1
    37   121   119   am
    38     5     7    1
    39   117   118    1
    40   114   116   ar
    41   114   115   ar
    42   119   118    1
    43   119   120    2
    44    28    27   ar
    45    29    27   ar
    46    27    26    1
    47    92    90   ar
    48    36    35   ar
    49    58    55    1
    50    58    59    1
    51    31    32    1
    52    31    30    1
    53    31    34    1
    54   100    98    1
    55    32    33    2
    56    91    90   ar
    57    53    52    2
    58    90    89    1
    59    55    54    1
    60    55    56    1
    61    61    59   ar
    62    98    97    1
    63    23    26    1
    64    23    24    1
    65    23    22    1
    66    52    54   am
    67    52    51    1
    68    24    25    2
    69    35    34    1
    70    35    37   ar
    71    59    60   ar
    72    51    50    1
    73    89    86    1
    74    57    56    2
    75    86    87    1
    76    86    85    1
    77    50    40   am
    78    93    94    1
    79    97    94    1
    80    97    99    1
    81    94    95    1
    82    87    88    2
    83   107   106    1
    84    40    41    2
    85    40    39    1
    86    71    70    2
    87    72    69    1
    88    72    73    1
    89    42    39    1
    90    42    43    1
    91    69    70    1
    92    69    68    1
    93    67    66    1
    94    95    96    2
    95    39    38    1
    96    44    43   ar
    97    44    46   ar
    98    70    74   am
    99   108   106    1
   100   106   105    1
   101    43    45   ar
   102    62    63    1
   103    66    63    1
   104    82    80   ar
   105    82    84   ar
   106    46    48   ar
   107   102   105    1
   108   102   103    1
   109   102   101    1
   110    80    79   ar
   111    45    47   ar
   112    74    75    1
   113    84    83   ar
   114    77    76    2
   115   103   104    2
   116    63    64    1
   117    75    76    1
   118    75    78    1
   119    48    47   ar
   120    48    49    1
   121    79    78    1
   122    79    81   ar
   123    83    81   ar
   124    65    64    2
