@<TRIPOS>MOLECULE
tmp/4y45A01.pdb
 87 83 0 0 0
SMALL
GASTEIGER

@<TRIPOS>ATOM
      1  N         -7.6440   -6.2410   -1.9440 N.3    13  LEU13      -0.1245
      2  CA        -7.2500   -4.9010   -2.3860 C.3    13  LEU13       0.1561
      3  C         -5.8430   -4.5060   -1.9480 C.2    13  LEU13       0.2260
      4  O         -5.3980   -3.4050   -2.2530 O.2    13  LEU13      -0.2867
      5  CB        -8.2130   -3.8520   -1.8220 C.3    13  LEU13       0.0270
      6  CG        -9.6740   -3.9940   -2.2240 C.3    13  LEU13       0.0019
      7  CD1      -10.5150   -2.9460   -1.5060 C.3    13  LEU13       0.0001
      8  CD2       -9.8260   -3.8680   -3.7280 C.3    13  LEU13       0.0001
      9  N         -5.0790   -3.8490    1.1720 N.3    15  ASP15      -0.1239
     10  CA        -5.2660   -2.7240    2.0820 C.3    15  ASP15       0.1674
     11  C         -4.1440   -2.6180    3.1290 C.2    15  ASP15       0.2266
     12  O         -3.8170   -1.5250    3.6160 O.2    15  ASP15      -0.2867
     13  CB        -6.6400   -2.7930    2.7360 C.3    15  ASP15       0.1410
     14  CG        -7.7470   -2.3580    1.7950 C.2    15  ASP15       0.3668
     15  OD1       -7.5750   -1.3260    1.1080 O.co2  15  ASP15      -0.2456
     16  OD2       -8.8000   -3.0380    1.7480 O.co2  15  ASP15      -0.2456
     17  N         -1.6470    2.6290    3.1280 N.3   223  THR223     -0.1203
     18  CA        -2.0880    1.8750    1.9590 C.3   223  THR223      0.1994
     19  C         -1.7850    2.6010    0.6470 C.2   223  THR223      0.2617
     20  O         -1.3180    1.9900   -0.3180 O.2   223  THR223     -0.2717
     21  CB        -3.6170    1.6160    2.0150 C.3   223  THR223      0.1784
     22  OG1       -4.0120    1.1270    3.2980 O.3   223  THR223     -0.2211
     23  CG2       -4.0560    0.6330    0.9300 C.3   223  THR223      0.0376
     24  N         -2.1320    3.8860    0.5950 N.am  224  LEU224     -0.1979
     25  CA        -2.1830    4.6430   -0.6540 C.3   224  LEU224      0.1596
     26  C         -0.9670    5.5470   -0.8470 C.2   224  LEU224      0.2287
     27  O         -0.0880    5.6500    0.0180 O.2   224  LEU224     -0.2864
     28  CB        -3.4910    5.4440   -0.7280 C.3   224  LEU224      0.0297
     29  CG        -4.7710    4.6220   -0.5180 C.3   224  LEU224      0.0022
     30  CD1       -6.0060    5.4980   -0.6930 C.3   224  LEU224      0.0001
     31  CD2       -4.8270    3.4070   -1.4620 C.3   224  LEU224      0.0001
     32  N          0.0140    9.3320   -1.3050 N.3   226  TYR226     -0.1241
     33  CA        -0.4820   10.6780   -1.0180 C.3   226  TYR226      0.1605
     34  C          0.5420   11.7090   -1.4830 C.2   226  TYR226      0.2264
     35  O          1.6760   11.7310   -0.9820 O.2   226  TYR226     -0.2867
     36  CB        -0.7760   10.8670    0.4770 C.3   226  TYR226      0.0534
     37  CG        -1.9050   10.0060    0.9830 C.ar  226  TYR226     -0.0201
     38  CD1       -1.6680    8.7160    1.4560 C.ar  226  TYR226     -0.0009
     39  CD2       -3.2060   10.4710    0.9860 C.ar  226  TYR226     -0.0009
     40  CE1       -2.7040    7.9140    1.9050 C.ar  226  TYR226      0.0417
     41  CE2       -4.2490    9.6790    1.4390 C.ar  226  TYR226      0.0417
     42  CZ        -3.9910    8.4020    1.9050 C.ar  226  TYR226      0.1957
     43  OH        -5.0100    7.5980    2.3530 O.3   226  TYR226     -0.2866
     44  N        -17.1230   11.0420   -0.2950 N.3   248  VAL248     -0.1245
     45  CA       -16.4160    9.7730   -0.2070 C.3   248  VAL248      0.1561
     46  C        -15.0760    9.9620    0.5060 C.2   248  VAL248      0.2260
     47  O        -14.6080    9.0650    1.2110 O.2   248  VAL248     -0.2867
     48  CB       -16.2180    9.1530   -1.6060 C.3   248  VAL248      0.0252
     49  CG1      -15.3420    7.9100   -1.5310 C.3   248  VAL248      0.0019
     50  CG2      -17.5780    8.8260   -2.2340 C.3   248  VAL248      0.0019
     51  N         -8.6270    0.8010   -6.2080 N.3   280  PHE280     -0.1241
     52  CA        -9.0500    0.2910   -4.9020 C.3   280  PHE280      0.1605
     53  C        -10.5100   -0.1210   -4.8400 C.2   280  PHE280      0.2264
     54  O        -11.0450   -0.3590   -3.7690 O.2   280  PHE280     -0.2867
     55  CB        -8.5830    1.2120   -3.7650 C.3   280  PHE280      0.0534
     56  CG        -7.1660    0.9370   -3.4430 C.ar  280  PHE280     -0.0203
     57  CD1       -6.1690    1.3660   -4.3030 C.ar  280  PHE280     -0.0042
     58  CD2       -6.8160    0.0950   -2.3990 C.ar  280  PHE280     -0.0042
     59  CE1       -4.8580    1.0150   -4.1070 C.ar  280  PHE280     -0.0003
     60  CE2       -5.4880   -0.2660   -2.2010 C.ar  280  PHE280     -0.0003
     61  CZ        -4.5180    0.2040   -3.0580 C.ar  280  PHE280     -0.0000
     62  N        -14.7500   -0.7380   -5.7820 N.3   282  PRO282     -0.2102
     63  CA       -15.9790    0.0130   -5.5120 C.3   282  PRO282      0.1504
     64  C        -15.9740    0.7020   -4.1530 C.2   282  PRO282      0.2575
     65  O        -15.5270    0.1310   -3.1520 O.2   282  PRO282     -0.2718
     66  CB       -17.0600   -1.0650   -5.5910 C.3   282  PRO282      0.0282
     67  CG       -16.4980   -2.0400   -6.6190 C.3   282  PRO282      0.0208
     68  CD       -15.0300   -2.0920   -6.3020 C.3   282  PRO282      0.0893
     69  N        -16.5260    1.9120   -4.1140 N.am  283  ILE283     -0.1980
     70  CA       -16.5590    2.6760   -2.8730 C.3   283  ILE283      0.1595
     71  C        -17.4490    2.0220   -1.8160 C.2   283  ILE283      0.2287
     72  O        -17.2200    2.1990   -0.6280 O.2   283  ILE283     -0.2864
     73  CB       -16.9720    4.1510   -3.1170 C.3   283  ILE283      0.0276
     74  CG1      -18.3670    4.2430   -3.7550 C.3   283  ILE283      0.0022
     75  CG2      -15.9000    4.8540   -3.9640 C.3   283  ILE283      0.0022
     76  CD1      -18.9100    5.6480   -3.8330 C.3   283  ILE283      0.0001
     77  N        -12.6070    3.7000   -5.8770 N.3   291  PHE291     -0.1241
     78  CA       -11.7500    4.6000   -5.1170 C.3   291  PHE291      0.1605
     79  C        -10.3260    4.5890   -5.6570 C.2   291  PHE291      0.2264
     80  O         -9.7520    3.5310   -5.9200 O.2   291  PHE291     -0.2867
     81  CB       -11.7390    4.2280   -3.6330 C.3   291  PHE291      0.0534
     82  CG       -11.2270    5.3380   -2.7440 C.ar  291  PHE291     -0.0203
     83  CD1      -11.8990    6.5520   -2.6690 C.ar  291  PHE291     -0.0042
     84  CD2      -10.0660    5.2020   -2.0120 C.ar  291  PHE291     -0.0042
     85  CE1      -11.4450    7.5880   -1.8620 C.ar  291  PHE291     -0.0003
     86  CE2       -9.6150    6.2430   -1.2000 C.ar  291  PHE291     -0.0003
     87  CZ       -10.3020    7.4250   -1.1320 C.ar  291  PHE291     -0.0000
@<TRIPOS>BOND
     1    67    68    1
     2    67    66    1
     3    68    62    1
     4    51    52    1
     5    80    79    2
     6    77    78    1
     7    62    63    1
     8    79    78    1
     9    66    63    1
    10    63    64    1
    11    78    81    1
    12    52    53    1
    13    52    55    1
    14    53    54    2
    15    57    59   ar
    16    57    56   ar
    17    64    69   am
    18    64    65    2
    19    69    70    1
    20    59    61   ar
    21    75    73    1
    22    76    74    1
    23    55    56    1
    24    74    73    1
    25     8     6    1
    26    81    82    1
    27    56    58   ar
    28    73    70    1
    29    61    60   ar
    30    70    71    1
    31    82    83   ar
    32    82    84   ar
    33    83    85   ar
    34    58    60   ar
    35     2     3    1
    36     2     1    1
    37     2     5    1
    38     4     3    2
    39    50    48    1
    40     6     5    1
    41     6     7    1
    42    84    86   ar
    43    85    87   ar
    44    71    72    2
    45    48    49    1
    46    48    45    1
    47    34    33    1
    48    34    35    2
    49    31    29    1
    50    32    33    1
    51    86    87   ar
    52    33    36    1
    53    26    25    1
    54    26    27    2
    55    28    25    1
    56    28    29    1
    57    30    29    1
    58    25    24    1
    59    20    19    2
    60    44    45    1
    61    45    46    1
    62    36    37    1
    63    46    47    2
    64    24    19   am
    65    19    18    1
    66    23    21    1
    67    37    39   ar
    68    37    38   ar
    69    39    41   ar
    70    15    14   ar
    71     9    10    1
    72    41    42   ar
    73    38    40   ar
    74    16    14   ar
    75    14    13    1
    76    40    42   ar
    77    42    43    1
    78    18    21    1
    79    18    17    1
    80    21    22    1
    81    10    13    1
    82    10    11    1
    83    11    12    2
