@<TRIPOS>MOLECULE
tmp/4y46A00.pdb
 131 121 0 0 0
SMALL
GASTEIGER

@<TRIPOS>ATOM
      1  N         -2.5410  -28.6090  -35.5960 N.3    26  ILE26      -0.1231
      2  CA        -2.1520  -29.1450  -34.2970 C.3    26  ILE26       0.1692
      3  C         -2.0600  -28.0680  -33.2200 C.2    26  ILE26       0.2593
      4  O         -1.6380  -28.3360  -32.1020 O.2    26  ILE26      -0.2718
      5  CB        -0.7970  -29.8830  -34.3920 C.3    26  ILE26       0.0266
      6  CG1        0.3030  -28.9450  -34.8840 C.3    26  ILE26       0.0019
      7  CG2       -0.9150  -31.0880  -35.3250 C.3    26  ILE26       0.0020
      8  CD1        1.6920  -29.4900  -34.6930 C.3    26  ILE26       0.0001
      9  N         -2.4490  -26.8470  -33.5560 N.am   27  GLY27      -0.1942
     10  CA        -2.4920  -25.7890  -32.5690 C.3    27  GLY27       0.2014
     11  C         -2.4700  -24.4320  -33.2310 C.2    27  GLY27       0.2639
     12  O         -2.3640  -24.3290  -34.4560 O.2    27  GLY27      -0.2714
     13  N         -2.5690  -23.3910  -32.4090 N.am   28  SER28      -0.1949
     14  CA        -2.5590  -22.0200  -32.8970 C.3    28  SER28       0.1924
     15  C         -2.2830  -21.0490  -31.7530 C.2    28  SER28       0.2314
     16  O         -3.1410  -20.8400  -30.8910 O.2    28  SER28      -0.2863
     17  CB        -3.8900  -21.6810  -33.5610 C.3    28  SER28       0.2116
     18  OG        -3.9030  -20.3290  -33.9740 O.3    28  SER28      -0.2180
     19  N         -0.4270  -23.5590  -36.7560 N.3    34  VAL34      -0.1245
     20  CA         0.5850  -24.6050  -36.9060 C.3    34  VAL34       0.1561
     21  C         -0.0030  -25.9460  -37.3570 C.2    34  VAL34       0.2260
     22  O         -0.9770  -26.4170  -36.7680 O.2    34  VAL34      -0.2867
     23  CB         1.3400  -24.8200  -35.5870 C.3    34  VAL34       0.0252
     24  CG1        2.5520  -25.6740  -35.8020 C.3    34  VAL34       0.0019
     25  CG2        1.7830  -23.4950  -35.0020 C.3    34  VAL34       0.0019
     26  N          6.6940  -29.8990  -38.3190 N.3    47  ALA47      -0.1245
     27  CA         5.7200  -28.8870  -37.9270 C.3    47  ALA47       0.1562
     28  C          5.9270  -27.6680  -38.8150 C.2    47  ALA47       0.2260
     29  O          7.0620  -27.2320  -38.9960 O.2    47  ALA47      -0.2867
     30  CB         5.9010  -28.5050  -36.4270 C.3    47  ALA47       0.0290
     31  N          4.7460  -23.6980  -39.3230 N.3    49  LYS49      -0.1245
     32  CA         4.0920  -22.5050  -38.7490 C.3    49  LYS49       0.1561
     33  C          3.9560  -21.4070  -39.7850 C.2    49  LYS49       0.2260
     34  O          4.9310  -21.0610  -40.4390 O.2    49  LYS49      -0.2867
     35  CB         4.9000  -21.9840  -37.5570 C.3    49  LYS49       0.0271
     36  CG         4.3410  -20.7480  -36.7840 C.3    49  LYS49       0.0035
     37  CD         5.0860  -20.6060  -35.4390 C.3    49  LYS49       0.0206
     38  CE         4.6970  -19.3930  -34.6370 C.3    49  LYS49       0.1093
     39  NZ         5.6490  -19.2430  -33.4910 N.3    49  LYS49      -0.1314
     40  N         14.2250  -25.5680  -30.1580 N.3    80  ILE80      -0.1245
     41  CA        13.6010  -26.0790  -31.3610 C.3    80  ILE80       0.1561
     42  C         14.4370  -25.6110  -32.5580 C.2    80  ILE80       0.2260
     43  O         14.8890  -24.4780  -32.6030 O.2    80  ILE80      -0.2867
     44  CB        12.1290  -25.6090  -31.5020 C.3    80  ILE80       0.0252
     45  CG1       11.3710  -26.4300  -32.5420 C.3    80  ILE80       0.0019
     46  CG2       12.0700  -24.1450  -31.8550 C.3    80  ILE80       0.0019
     47  CD1       11.1230  -27.8250  -32.1230 C.3    80  ILE80       0.0001
     48  N          9.7990  -26.8240  -38.7550 N.3   102  MET102     -0.1230
     49  CA        10.5020  -27.3200  -37.5710 C.3   102  MET102      0.1702
     50  C         10.2900  -28.8020  -37.3360 C.2   102  MET102      0.2592
     51  O          9.3340  -29.3920  -37.8290 O.2   102  MET102     -0.2718
     52  CB        10.0140  -26.5990  -36.3050 C.3   102  MET102      0.0401
     53  CG        10.2900  -25.1720  -36.2450 C.3   102  MET102      0.0596
     54  SD         9.1010  -24.2900  -35.2000 S.3   102  MET102     -0.1393
     55  CE         7.7560  -24.0440  -36.3700 C.3   102  MET102      0.0692
     56  N         11.1350  -29.3840  -36.4980 N.am  103  GLU103     -0.1966
     57  CA        10.9640  -30.7780  -36.1080 C.3   103  GLU103      0.1733
     58  C          9.6160  -30.9140  -35.4340 C.2   103  GLU103      0.2616
     59  O          9.1910  -30.0050  -34.7190 O.2   103  GLU103     -0.2715
     60  CB        12.0800  -31.2260  -35.1690 C.3   103  GLU103      0.0429
     61  CG        11.8050  -32.5530  -34.5210 C.3   103  GLU103      0.1163
     62  CD        13.0460  -33.1630  -33.8950 C.2   103  GLU103      0.3649
     63  OE1       14.0610  -32.4340  -33.7900 O.co2 103  GLU103     -0.2457
     64  OE2       13.0060  -34.3640  -33.5200 O.co2 103  GLU103     -0.2457
     65  N          8.9400  -32.0330  -35.6720 N.am  104  LEU104     -0.1963
     66  CA         7.6140  -32.2550  -35.1120 C.3   104  LEU104      0.1728
     67  C          7.6670  -32.9720  -33.7490 C.2   104  LEU104      0.2616
     68  O          8.1940  -34.0600  -33.6050 O.2   104  LEU104     -0.2715
     69  CB         6.7450  -33.0490  -36.0880 C.3   104  LEU104      0.0311
     70  CG         5.3400  -33.3870  -35.5890 C.3   104  LEU104      0.0022
     71  CD1        4.4620  -32.1430  -35.4600 C.3   104  LEU104      0.0001
     72  CD2        4.6990  -34.4280  -36.4680 C.3   104  LEU104      0.0001
     73  N          7.0720  -32.3490  -32.7520 N.am  105  MET105     -0.1963
     74  CA         7.0640  -32.9000  -31.4110 C.3   105  MET105      0.1736
     75  C          5.6710  -33.4200  -31.0850 C.2   105  MET105      0.2616
     76  O          4.7110  -33.1510  -31.8040 O.2   105  MET105     -0.2715
     77  CB         7.5240  -31.8400  -30.4320 C.3   105  MET105      0.0427
     78  CG         8.8640  -31.2220  -30.7910 C.3   105  MET105      0.0599
     79  SD        10.2400  -32.3140  -30.5140 S.3   105  MET105     -0.1393
     80  CE        10.5280  -31.9790  -28.7720 C.3   105  MET105      0.0692
     81  N          5.5690  -34.1580  -29.9970 N.am  106  ASP106     -0.1957
     82  CA         4.3510  -34.8880  -29.6700 C.3   106  ASP106      0.1840
     83  C          3.3950  -34.0960  -28.7810 C.2   106  ASP106      0.2622
     84  O          2.1780  -34.2590  -28.8700 O.2   106  ASP106     -0.2715
     85  CB         4.7270  -36.1810  -28.9890 C.3   106  ASP106      0.1450
     86  CG         5.4550  -37.1350  -29.9120 C.2   106  ASP106      0.3671
     87  OD1        5.0230  -37.2220  -31.0550 O.co2 106  ASP106     -0.2456
     88  OD2        6.4180  -37.8260  -29.4980 O.co2 106  ASP106     -0.2456
     89  N          3.9450  -33.2640  -27.8880 N.am  107  ALA107     -0.1963
     90  CA         3.1020  -32.5470  -26.9570 C.3   107  ALA107      0.1728
     91  C          3.7140  -31.2560  -26.4430 C.2   107  ALA107      0.2616
     92  O          4.9250  -31.0590  -26.5540 O.2   107  ALA107     -0.2715
     93  CB         2.7590  -33.4840  -25.7680 C.3   107  ALA107      0.0334
     94  N          2.8210  -30.3770  -25.9600 N.am  108  ASN108     -0.1972
     95  CA         3.0980  -29.2300  -25.0760 C.3   108  ASN108      0.1688
     96  C          3.4920  -29.6970  -23.6840 C.2   108  ASN108      0.2292
     97  O          3.0160  -30.7240  -23.2580 O.2   108  ASN108     -0.2864
     98  CB         1.8300  -28.3710  -24.8590 C.3   108  ASN108      0.1181
     99  CG         1.9370  -27.0100  -25.3830 C.2   108  ASN108      0.2629
    100  OD1        2.9630  -26.5970  -25.9090 O.2   108  ASN108     -0.2716
    101  ND2        0.8420  -26.2770  -25.2690 N.am  108  ASN108     -0.0877
    102  N          0.4150  -30.4850  -21.3740 N.3   111  GLN111     -0.1245
    103  CA        -0.1530  -31.8050  -21.3700 C.3   111  GLN111      0.1566
    104  C          0.5990  -32.7260  -20.4180 C.2   111  GLN111      0.2260
    105  O          0.0010  -33.5560  -19.7270 O.2   111  GLN111     -0.2867
    106  CB        -0.1440  -32.3610  -22.7850 C.3   111  GLN111      0.0367
    107  CG        -1.0020  -31.5680  -23.7350 C.3   111  GLN111      0.0905
    108  CD        -0.7120  -31.9270  -25.1720 C.2   111  GLN111      0.2608
    109  OE1       -0.2720  -31.0890  -25.9670 O.2   111  GLN111     -0.2717
    110  NE2       -0.9420  -33.1900  -25.5130 N.am  111  GLN111     -0.0878
    111  N          3.3720  -23.6470  -22.4380 N.3   149  SER149     -0.1217
    112  CA         2.8020  -23.6730  -23.7680 C.3   149  SER149      0.1889
    113  C          3.8770  -23.4870  -24.7950 C.2   149  SER149      0.2288
    114  O          3.6940  -23.9300  -25.8920 O.2   149  SER149     -0.2866
    115  CB         1.7280  -22.5930  -23.9740 C.3   149  SER149      0.2089
    116  OG         2.1930  -21.2990  -23.6490 O.3   149  SER149     -0.2183
    117  N          7.9240  -27.9310  -25.6590 N.3   152  VAL152     -0.1245
    118  CA         7.3380  -29.1360  -26.2400 C.3   152  VAL152      0.1561
    119  C          8.2150  -30.3400  -25.9700 C.2   152  VAL152      0.2260
    120  O          9.4130  -30.2250  -25.7660 O.2   152  VAL152     -0.2867
    121  CB         7.1160  -29.0450  -27.7780 C.3   152  VAL152      0.0252
    122  CG1        5.9460  -28.1840  -28.1240 C.3   152  VAL152      0.0019
    123  CG2        8.3100  -28.5150  -28.4820 C.3   152  VAL152      0.0019
    124  N         10.5100  -23.5260  -27.4230 N.3   162  LEU162     -0.1245
    125  CA        10.0230  -23.0780  -28.7330 C.3   162  LEU162      0.1561
    126  C         10.3800  -21.6460  -29.1630 C.2   162  LEU162      0.2260
    127  O         10.4420  -21.3880  -30.3620 O.2   162  LEU162     -0.2867
    128  CB         8.5030  -23.2000  -28.7990 C.3   162  LEU162      0.0270
    129  CG         7.8180  -24.5590  -28.9740 C.3   162  LEU162      0.0019
    130  CD1        6.2950  -24.3920  -29.0570 C.3   162  LEU162      0.0001
    131  CD2        8.3200  -25.2650  -30.2070 C.3   162  LEU162      0.0001
@<TRIPOS>BOND
     1    34    33    2
     2    33    32    1
     3    31    32    1
     4    29    28    2
     5    28    27    1
     6    48    49    1
     7    32    35    1
     8    26    27    1
     9    27    30    1
    10    51    50    2
    11    49    50    1
    12    49    52    1
    13    35    36    1
    14    21    20    1
    15    21    22    2
    16    50    56   am
    17    20    19    1
    18    20    23    1
    19    36    37    1
    20    56    57    1
    21    72    70    1
    22    55    54    1
    23    52    53    1
    24    53    54    1
    25    57    58    1
    26    57    60    1
    27    69    70    1
    28    69    66    1
    29    24    23    1
    30    65    58   am
    31    65    66    1
    32     1     2    1
    33    70    71    1
    34    23    25    1
    35    37    38    1
    36    58    59    2
    37     7     5    1
    38    60    61    1
    39    66    67    1
    40     6     8    1
    41     6     5    1
    42    38    39    1
    43    61    62    1
    44    12    11    2
    45     5     2    1
    46     2     3    1
    47    18    17    1
    48    62    63   ar
    49    62    64   ar
    50    67    68    2
    51    67    73   am
    52    17    14    1
    53     9     3   am
    54     9    10    1
    55    11    10    1
    56    11    13   am
    57     3     4    2
    58    14    13    1
    59    14    15    1
    60    73    74    1
    61    43    42    2
    62    42    41    1
    63    45    47    1
    64    45    44    1
    65    46    44    1
    66    76    75    2
    67    15    16    2
    68    44    41    1
    69    74    75    1
    70    74    77    1
    71    41    40    1
    72    75    81   am
    73    87    86   ar
    74    78    79    1
    75    78    77    1
    76    79    80    1
    77   127   126    2
    78   131   129    1
    79    81    82    1
    80    86    88   ar
    81    86    85    1
    82    82    85    1
    83    82    83    1
    84   126   125    1
    85   130   129    1
    86   129   128    1
    87    84    83    2
    88   128   125    1
    89    83    89   am
    90   125   124    1
    91   123   121    1
    92   122   121    1
    93    89    90    1
    94   121   118    1
    95    90    91    1
    96    90    93    1
    97    92    91    2
    98    91    94   am
    99   118   119    1
   100   118   117    1
   101   119   120    2
   102   109   108    2
   103    94    95    1
   104   100    99    2
   105   114   113    2
   106   110   108   am
   107    99   101   am
   108    99    98    1
   109   108   107    1
   110    95    98    1
   111    95    96    1
   112   113   112    1
   113   115   112    1
   114   115   116    1
   115   112   111    1
   116   107   106    1
   117    96    97    2
   118   106   103    1
   119   102   103    1
   120   103   104    1
   121   104   105    2
