@<TRIPOS>MOLECULE
tmp/4y47A00.pdb
 157 146 0 0 0
SMALL
GASTEIGER

@<TRIPOS>ATOM
      1  N         40.2570   -3.6530   63.1710 N.3    33  ASP33      -0.1239
      2  CA        40.1490   -2.7180   64.2810 C.3    33  ASP33       0.1674
      3  C         38.8200   -1.9720   64.1380 C.2    33  ASP33       0.2266
      4  O         38.6500   -1.1450   63.2420 O.2    33  ASP33      -0.2867
      5  CB        41.3470   -1.7760   64.1900 C.3    33  ASP33       0.1410
      6  CG        41.4380   -0.7730   65.3160 C.2    33  ASP33       0.3668
      7  OD1       40.5140   -0.6640   66.1520 O.co2  33  ASP33      -0.2456
      8  OD2       42.4930   -0.0730   65.3370 O.co2  33  ASP33      -0.2456
      9  N         36.2610    0.7100   64.7230 N.3    35  ASP35      -0.1239
     10  CA        36.6170    2.0960   64.9810 C.3    35  ASP35       0.1674
     11  C         35.3730    2.9840   64.9290 C.2    35  ASP35       0.2266
     12  O         34.9350    3.3830   63.8530 O.2    35  ASP35      -0.2867
     13  CB        37.6380    2.5270   63.9210 C.3    35  ASP35       0.1410
     14  CG        38.0960    3.9520   64.0680 C.2    35  ASP35       0.3668
     15  OD1       37.7080    4.6010   65.0560 O.co2  35  ASP35      -0.2456
     16  OD2       38.8660    4.3990   63.1750 O.co2  35  ASP35      -0.2456
     17  N         35.1670    5.9770   65.5630 N.3    37  GLY37      -0.1210
     18  CA        35.5470    7.3190   65.1450 C.3    37  GLY37       0.1956
     19  C         35.7950    7.5020   63.6550 C.2    37  GLY37       0.2612
     20  O         36.1480    8.6040   63.2470 O.2    37  GLY37      -0.2717
     21  N         35.5940    6.4660   62.8410 N.am   38  SER38      -0.1952
     22  CA        35.7060    6.6150   61.3880 C.3    38  SER38       0.1924
     23  C         34.6970    5.7130   60.7010 C.2    38  SER38       0.2314
     24  O         33.9920    4.9500   61.3630 O.2    38  SER38      -0.2863
     25  CB        37.1230    6.3230   60.8930 C.3    38  SER38       0.2116
     26  OG        37.4480    4.9520   61.0040 O.3    38  SER38      -0.2180
     27  N         44.0260    9.7610   59.3660 N.3    79  TYR79      -0.1227
     28  CA        43.5190    9.7830   60.7270 C.3    79  TYR79       0.1736
     29  C         44.2360   10.8430   61.5530 C.2    79  TYR79       0.2596
     30  O         45.2230   11.4420   61.1150 O.2    79  TYR79      -0.2718
     31  CB        43.6620    8.4040   61.3660 C.3    79  TYR79       0.0548
     32  CG        42.9220    7.3000   60.6300 C.ar   79  TYR79      -0.0200
     33  CD1       43.5880    6.4630   59.7420 C.ar   79  TYR79      -0.0009
     34  CD2       41.5570    7.1000   60.8140 C.ar   79  TYR79      -0.0009
     35  CE1       42.9180    5.4480   59.0690 C.ar   79  TYR79       0.0417
     36  CE2       40.8810    6.0840   60.1470 C.ar   79  TYR79       0.0417
     37  CZ        41.5730    5.2630   59.2730 C.ar   79  TYR79       0.1957
     38  OH        40.9340    4.2420   58.6020 O.3    79  TYR79      -0.2866
     39  N         43.7370   11.0740   62.7580 N.am   80  GLY80      -0.1942
     40  CA        44.2490   12.1400   63.5980 C.3    80  GLY80       0.2014
     41  C         45.6870   11.9550   64.0370 C.2    80  GLY80       0.2638
     42  O         46.3350   12.9180   64.4550 O.2    80  GLY80      -0.2714
     43  N         46.1830   10.7240   63.9540 N.am   81  ASP81      -0.1971
     44  CA        47.5450   10.4100   64.3730 C.3    81  ASP81       0.1709
     45  C         48.5220   10.5050   63.2050 C.2    81  ASP81       0.2293
     46  O         49.6980   10.1670   63.3410 O.2    81  ASP81      -0.2864
     47  CB        47.6070    9.0210   65.0260 C.3    81  ASP81       0.1436
     48  CG        47.2580    7.8980   64.0740 C.2    81  ASP81       0.3671
     49  OD1       46.8380    8.1710   62.9360 O.co2  81  ASP81      -0.2456
     50  OD2       47.3820    6.7240   64.4840 O.co2  81  ASP81      -0.2456
     51  N         48.3880    8.8350   60.4200 N.3    83  SER83      -0.1217
     52  CA        48.4200    7.6220   59.6110 C.3    83  SER83       0.1889
     53  C         47.4220    7.7530   58.4600 C.2    83  SER83       0.2288
     54  O         46.4930    8.5660   58.5200 O.2    83  SER83      -0.2866
     55  CB        48.1280    6.3770   60.4510 C.3    83  SER83       0.2089
     56  OG        46.8020    6.3590   60.9430 O.3    83  SER83      -0.2183
     57  N         50.7700    1.4560   59.8790 N.3   116  PHE116     -0.1241
     58  CA        49.9410    0.3020   59.5510 C.3   116  PHE116      0.1605
     59  C         50.8310   -0.8820   59.1780 C.2   116  PHE116      0.2264
     60  O         50.6360   -1.9830   59.6810 O.2   116  PHE116     -0.2867
     61  CB        48.9220    0.6330   58.4500 C.3   116  PHE116      0.0534
     62  CG        47.8200    1.5380   58.9130 C.ar  116  PHE116     -0.0203
     63  CD1       46.9660    1.1320   59.9190 C.ar  116  PHE116     -0.0042
     64  CD2       47.6450    2.7940   58.3660 C.ar  116  PHE116     -0.0042
     65  CE1       45.9600    1.9500   60.3600 C.ar  116  PHE116     -0.0003
     66  CE2       46.6290    3.6160   58.8000 C.ar  116  PHE116     -0.0003
     67  CZ        45.7900    3.1990   59.8000 C.ar  116  PHE116     -0.0000
     68  N         40.6340   -1.8020   59.0880 N.3   125  LEU125     -0.1245
     69  CA        39.7470   -1.0250   59.9470 C.3   125  LEU125      0.1561
     70  C         38.3050   -1.3090   59.5490 C.2   125  LEU125      0.2260
     71  O         38.0100   -1.4960   58.3660 O.2   125  LEU125     -0.2867
     72  CB        40.0240    0.4760   59.7730 C.3   125  LEU125      0.0270
     73  CG        41.1380    1.0810   60.6230 C.3   125  LEU125      0.0019
     74  CD1       40.6330    1.2840   62.0200 C.3   125  LEU125      0.0001
     75  CD2       42.4220    0.2630   60.6260 C.3   125  LEU125      0.0001
     76  N         29.2770   16.3580   63.1520 N.3   192  GLN192     -0.1245
     77  CA        30.6400   16.1460   62.6610 C.3   192  GLN192      0.1566
     78  C         30.8780   14.6940   62.2260 C.2   192  GLN192      0.2260
     79  O         32.0080   14.3130   61.9300 O.2   192  GLN192     -0.2867
     80  CB        31.6620   16.5340   63.7300 C.3   192  GLN192      0.0367
     81  CG        31.6950   18.0210   64.0610 C.3   192  GLN192      0.0905
     82  CD        32.8820   18.3820   64.9410 C.2   192  GLN192      0.2608
     83  OE1       33.9430   18.7550   64.4450 O.2   192  GLN192     -0.2717
     84  NE2       32.7100   18.2590   66.2540 N.am  192  GLN192     -0.0878
     85  N         30.5400   11.9930   64.0580 N.3   194  PHE194     -0.1241
     86  CA        31.0220   11.1570   65.1610 C.3   194  PHE194      0.1605
     87  C         29.8970   10.8480   66.1520 C.2   194  PHE194      0.2264
     88  O         28.8430   11.4880   66.1410 O.2   194  PHE194     -0.2867
     89  CB        32.1310   11.8640   65.9500 C.3   194  PHE194      0.0534
     90  CG        33.3230   12.2740   65.1320 C.ar  194  PHE194     -0.0203
     91  CD1       33.6620   13.6060   65.0200 C.ar  194  PHE194     -0.0042
     92  CD2       34.1410   11.3350   64.5240 C.ar  194  PHE194     -0.0042
     93  CE1       34.7670   13.9910   64.2940 C.ar  194  PHE194     -0.0003
     94  CE2       35.2460   11.7220   63.7890 C.ar  194  PHE194     -0.0003
     95  CZ        35.5530   13.0480   63.6750 C.ar  194  PHE194     -0.0000
     96  N         34.1160   12.7050   71.7160 N.3   217  ILE217     -0.1245
     97  CA        33.6040   11.5970   70.9180 C.3   217  ILE217      0.1561
     98  C         33.8910   10.2590   71.5780 C.2   217  ILE217      0.2260
     99  O         34.9170   10.0800   72.2380 O.2   217  ILE217     -0.2867
    100  CB        34.1560   11.6300   69.4800 C.3   217  ILE217      0.0252
    101  CG1       35.6690   11.3800   69.4250 C.3   217  ILE217      0.0019
    102  CG2       33.7770   12.9470   68.8140 C.3   217  ILE217      0.0019
    103  CD1       36.1950   11.1570   68.0180 C.3   217  ILE217      0.0001
    104  N         35.1300    6.8860   70.9430 N.3   219  ASP219     -0.1239
    105  CA        35.9740    6.4090   69.8520 C.3   219  ASP219      0.1674
    106  C         36.7610    5.1540   70.2240 C.2   219  ASP219      0.2266
    107  O         37.8400    5.2260   70.8530 O.2   219  ASP219     -0.2867
    108  CB        36.9420    7.5000   69.4120 C.3   219  ASP219      0.1410
    109  CG        37.7340    7.1030   68.1880 C.2   219  ASP219      0.3668
    110  OD1       38.6150    7.8790   67.7750 O.co2 219  ASP219     -0.2456
    111  OD2       37.4670    6.0170   67.6210 O.co2 219  ASP219     -0.2456
    112  N         38.4410    3.4260   68.2930 N.3   221  GLY221     -0.1210
    113  CA        39.6530    3.3970   67.4940 C.3   221  GLY221      0.1956
    114  C         40.7930    4.2890   67.9700 C.2   221  GLY221      0.2613
    115  O         41.8320    4.3530   67.3080 O.2   221  GLY221     -0.2717
    116  N         40.6110    4.9600   69.1050 N.am  222  THR222     -0.1938
    117  CA        41.6690    5.7210   69.7470 C.3   222  THR222      0.2028
    118  C         41.9860    5.0240   71.0600 C.2   222  THR222      0.2642
    119  O         41.0780    4.6380   71.7990 O.2   222  THR222     -0.2714
    120  CB        41.2250    7.1690   70.0010 C.3   222  THR222      0.1808
    121  OG1       41.1200    7.8410   68.7490 O.3   222  THR222     -0.2208
    122  CG2       42.2240    7.9170   70.8700 C.3   222  THR222      0.0379
    123  N         43.2730    4.8570   71.3490 N.am  223  THR223     -0.1950
    124  CA        43.7050    4.0910   72.5100 C.3   223  THR223      0.1897
    125  C         43.4380    4.8070   73.8290 C.2   223  THR223      0.2313
    126  O         42.9600    4.2130   74.7880 O.2   223  THR223     -0.2863
    127  CB        45.2120    3.7820   72.4180 C.3   223  THR223      0.1794
    128  OG1       45.5140    3.2480   71.1240 O.3   223  THR223     -0.2208
    129  CG2       45.6520    2.7970   73.5180 C.3   223  THR223      0.0378
    130  N         44.7890   18.4970   69.3650 N.3   300  ILE300     -0.1231
    131  CA        43.9440   17.6600   68.4910 C.3   300  ILE300      0.1692
    132  C         42.7180   18.3750   67.9280 C.2   300  ILE300      0.2593
    133  O         42.3330   18.1420   66.7790 O.2   300  ILE300     -0.2718
    134  CB        43.4380   16.4030   69.2440 C.3   300  ILE300      0.0266
    135  CG1       44.6200   15.5810   69.7540 C.3   300  ILE300      0.0019
    136  CG2       42.5490   15.5350   68.3380 C.3   300  ILE300      0.0020
    137  CD1       44.2160   14.4030   70.6320 C.3   300  ILE300      0.0001
    138  N         42.0830   19.2030   68.7460 N.am  301  GLY301     -0.1942
    139  CA        40.9140   19.9470   68.3200 C.3   301  GLY301      0.2014
    140  C         39.5930   19.3340   68.7520 C.2   301  GLY301      0.2638
    141  O         38.5390   19.9330   68.5510 O.2   301  GLY301     -0.2714
    142  N         39.6390   18.1440   69.3440 N.am  302  ILE302     -0.1977
    143  CA        38.4420   17.5150   69.8750 C.3   302  ILE302      0.1596
    144  C         38.8390   16.6420   71.0590 C.2   302  ILE302      0.2287
    145  O         39.9530   16.1260   71.1100 O.2   302  ILE302     -0.2864
    146  CB        37.7120   16.6890   68.7880 C.3   302  ILE302      0.0276
    147  CG1       36.3080   16.2430   69.2390 C.3   302  ILE302      0.0022
    148  CG2       38.5530   15.4800   68.3250 C.3   302  ILE302      0.0022
    149  CD1       35.3330   17.4020   69.1760 C.3   302  ILE302      0.0001
    150  N         38.5120   13.1990   73.1400 N.3   304  ILE304     -0.1245
    151  CA        38.2920   11.8360   72.6820 C.3   304  ILE304      0.1561
    152  C         38.2090   10.8870   73.8600 C.2   304  ILE304      0.2260
    153  O         39.2000   10.6580   74.5710 O.2   304  ILE304     -0.2867
    154  CB        39.3930   11.3530   71.7140 C.3   304  ILE304      0.0252
    155  CG1       39.5780   12.3320   70.5430 C.3   304  ILE304      0.0019
    156  CG2       39.0450    9.9650   71.1920 C.3   304  ILE304      0.0019
    157  CD1       40.7930   12.0260   69.6750 C.3   304  ILE304      0.0001
@<TRIPOS>BOND
     1    71    70    2
     2    64    66   ar
     3    64    62   ar
     4    61    62    1
     5    61    58    1
     6    53    54    2
     7    53    52    1
     8    38    37    1
     9    66    67   ar
    10    62    63   ar
    11    35    37   ar
    12    35    33   ar
    13    68    69    1
    14    59    58    1
    15    59    60    2
    16    37    36   ar
    17    27    28    1
    18    70    69    1
    19    58    57    1
    20    52    51    1
    21    52    55    1
    22    33    32   ar
    23    72    69    1
    24    72    73    1
    25    67    65   ar
    26    63    65   ar
    27    36    34   ar
    28    55    56    1
    29    73    75    1
    30    73    74    1
    31    32    34   ar
    32    32    31    1
    33    23    24    2
    34    23    22    1
    35    28    31    1
    36    28    29    1
    37    25    26    1
    38    25    22    1
    39    30    29    2
    40    22    21    1
    41    29    39   am
    42    79    78    2
    43    78    77    1
    44    77    76    1
    45    77    80    1
    46    39    40    1
    47    21    19   am
    48    49    48   ar
    49     1     2    1
    50    16    14   ar
    51    45    46    2
    52    45    44    1
    53     4     3    2
    54    20    19    2
    55    40    41    1
    56    19    18    1
    57    95    94   ar
    58    95    93   ar
    59    80    81    1
    60    94    92   ar
    61    12    11    2
    62    13    14    1
    63    13    10    1
    64    43    41   am
    65    43    44    1
    66    41    42    2
    67    85    86    1
    68    81    82    1
    69    14    15   ar
    70    48    50   ar
    71    48    47    1
    72     3     2    1
    73     5     2    1
    74     5     6    1
    75    93    91   ar
    76    44    47    1
    77    83    82    2
    78    92    90   ar
    79     9    10    1
    80    11    10    1
    81    82    84   am
    82    91    90   ar
    83    90    89    1
    84    18    17    1
    85    86    89    1
    86    86    87    1
    87     6     8   ar
    88     6     7   ar
    89    88    87    2
    90   133   132    2
    91   115   114    2
    92   113   114    1
    93   113   112    1
    94   111   109   ar
    95   110   109   ar
    96   132   131    1
    97   132   138   am
    98   114   116   am
    99   103   101    1
   100   109   108    1
   101   139   138    1
   102   139   140    1
   103   148   146    1
   104   136   134    1
   105   131   134    1
   106   131   130    1
   107   141   140    2
   108   121   120    1
   109   140   142   am
   110   146   147    1
   111   146   143    1
   112   102   100    1
   113   116   117    1
   114   149   147    1
   115   134   135    1
   116   142   143    1
   117   108   105    1
   118   101   100    1
   119   100    97    1
   120   157   155    1
   121   117   120    1
   122   117   118    1
   123   135   137    1
   124   105   106    1
   125   105   104    1
   126   143   144    1
   127   120   122    1
   128   106   107    2
   129   155   154    1
   130    97    98    1
   131    97    96    1
   132   144   145    2
   133   118   123   am
   134   118   119    2
   135   128   127    1
   136   156   154    1
   137   123   124    1
   138    98    99    2
   139   154   151    1
   140   127   124    1
   141   127   129    1
   142   124   125    1
   143   151   150    1
   144   151   152    1
   145   125   126    2
   146   152   153    2
