@<TRIPOS>MOLECULE
tmp/4y49B02.pdb
 239 234 0 0 0
SMALL
GASTEIGER

@<TRIPOS>ATOM
      1  N          1.9680   62.4780  539.4720 N.3    22  ASN22      -0.1225
      2  CA         1.5510   62.7660  540.8310 C.3    22  ASN22       0.1785
      3  C          2.2310   61.8120  541.8060 C.2    22  ASN22       0.2597
      4  O          1.5950   60.8900  542.3290 O.2    22  ASN22      -0.2718
      5  CB         0.0390   62.6680  540.9350 C.3    22  ASN22       0.1169
      6  CG        -0.6500   63.8750  540.3370 C.2    22  ASN22       0.2627
      7  OD1       -0.1600   65.0080  540.4930 O.2    22  ASN22      -0.2716
      8  ND2       -1.7590   63.6610  539.6420 N.am   22  ASN22      -0.0877
      9  N          3.5250   62.0600  542.0460 N.am   23  LEU23      -0.1980
     10  CA         4.3500   61.4550  543.1240 C.3    23  LEU23       0.1596
     11  C          5.8330   61.7690  542.8400 C.2    23  LEU23       0.2287
     12  O          6.2170   61.8820  541.6710 O.2    23  LEU23      -0.2864
     13  CB         4.1530   59.9340  543.2640 C.3    23  LEU23       0.0297
     14  CG         3.3060   59.4560  544.4730 C.3    23  LEU23       0.0022
     15  CD1        2.9640   57.9770  544.4150 C.3    23  LEU23       0.0001
     16  CD2        3.9840   59.7030  545.8050 C.3    23  LEU23       0.0001
     17  N          2.6760   46.8300  550.0860 N.3    75  ILE75      -0.1231
     18  CA         2.0560   47.7120  549.0820 C.3    75  ILE75       0.1692
     19  C          3.0790   48.7390  548.6260 C.2    75  ILE75       0.2593
     20  O          3.4980   49.5640  549.4300 O.2    75  ILE75      -0.2718
     21  CB         0.8210   48.4450  549.6320 C.3    75  ILE75       0.0266
     22  CG1       -0.2880   47.4510  549.9980 C.3    75  ILE75       0.0019
     23  CG2        0.3000   49.4420  548.6090 C.3    75  ILE75       0.0020
     24  CD1       -0.2320   46.9370  551.4330 C.3    75  ILE75       0.0001
     25  N          3.4580   48.7110  547.3450 N.am   76  THR76      -0.1939
     26  CA         4.5910   49.5160  546.8810 C.3    76  THR76       0.2028
     27  C          4.2780   51.0170  546.8440 C.2    76  THR76       0.2643
     28  O          4.6450   51.7290  547.7770 O.2    76  THR76      -0.2714
     29  CB         5.0790   49.0180  545.5400 C.3    76  THR76       0.1808
     30  OG1        5.2640   47.6350  545.5640 O.3    76  THR76      -0.2208
     31  CG2        6.3870   49.6640  545.1180 C.3    76  THR76       0.0379
     32  N          3.6200   51.4970  545.7830 N.am   77  SER77      -0.1935
     33  CA         3.2210   52.9130  545.6820 C.3    77  SER77       0.2055
     34  C          1.7210   53.0660  545.3770 C.2    77  SER77       0.2643
     35  O          1.1350   52.2430  544.6620 O.2    77  SER77      -0.2714
     36  CB         4.0590   53.6230  544.6220 C.3    77  SER77       0.2130
     37  OG         3.9620   55.0240  544.7370 O.3    77  SER77      -0.2179
     38  N          1.1130   54.1150  545.9420 N.am   78  LEU78      -0.1963
     39  CA        -0.2900   54.4740  545.6700 C.3    78  LEU78       0.1728
     40  C         -0.4410   55.9990  545.4540 C.2    78  LEU78       0.2617
     41  O          0.1970   56.7890  546.1590 O.2    78  LEU78      -0.2715
     42  CB        -1.1820   53.9990  546.8090 C.3    78  LEU78       0.0311
     43  CG        -2.6850   54.2550  546.6710 C.3    78  LEU78       0.0022
     44  CD1       -3.4940   53.2220  547.4400 C.3    78  LEU78       0.0001
     45  CD2       -3.0770   55.6630  547.0830 C.3    78  LEU78       0.0001
     46  N         -1.2850   56.4050  544.5000 N.am   79  SER79      -0.1936
     47  CA        -1.5370   57.8320  544.2260 C.3    79  SER79       0.2055
     48  C         -2.9350   58.0490  543.6360 C.2    79  SER79       0.2642
     49  O         -3.7280   57.1130  543.5660 O.2    79  SER79      -0.2714
     50  CB        -0.4680   58.3910  543.2960 C.3    79  SER79       0.2130
     51  OG        -0.6490   59.7110  542.9730 O.3    79  SER79      -0.2179
     52  N         -3.2460   59.2910  543.2640 N.am   80  VAL80      -0.1977
     53  CA        -4.4420   59.6000  542.4690 C.3    80  VAL80       0.1596
     54  C         -4.3310   60.9910  541.8370 C.2    80  VAL80       0.2287
     55  O         -3.6670   61.8840  542.3790 O.2    80  VAL80      -0.2864
     56  CB        -5.7100   59.4840  543.3110 C.3    80  VAL80       0.0276
     57  CG1       -5.8150   60.4790  544.4380 C.3    80  VAL80       0.0022
     58  CG2       -6.9570   59.4700  542.4420 C.3    80  VAL80       0.0022
     59  N         -5.2200   64.5220  541.2300 N.3    82  ARG82      -0.1245
     60  CA        -5.7680   65.4820  542.1960 C.3    82  ARG82       0.1563
     61  C         -7.2470   65.7280  541.9600 C.2    82  ARG82       0.2260
     62  O         -8.0590   65.4280  542.8210 O.2    82  ARG82      -0.2867
     63  CB        -5.0070   66.7940  542.1380 C.3    82  ARG82       0.0307
     64  CG        -3.5370   66.5330  542.5890 C.3    82  ARG82       0.0489
     65  CD        -3.4960   66.7350  544.0760 C.3    82  ARG82       0.2205
     66  NE        -2.3210   66.3190  544.7860 N.pl3  82  ARG82      -0.0865
     67  CZ        -1.6870   65.1410  544.8340 C.cat  82  ARG82       0.5346
     68  NH1       -2.2130   64.0330  544.2770 N.pl3  82  ARG82       0.1354
     69  NH2       -0.4790   65.1130  545.4470 N.pl3  82  ARG82       0.1354
     70  N         -9.5380   63.1160  543.7400 N.3    85  ARG85      -0.1231
     71  CA        -9.3900   62.7230  545.1750 C.3    85  ARG85       0.1694
     72  C        -10.4680   63.2780  546.1230 C.2    85  ARG85       0.2592
     73  O        -11.3410   64.0410  545.7020 O.2    85  ARG85      -0.2718
     74  CB        -8.0010   63.1170  545.6870 C.3    85  ARG85       0.0321
     75  CG        -7.7270   64.6010  545.7720 C.3    85  ARG85       0.0489
     76  CD        -6.2850   64.8420  546.1910 C.3    85  ARG85       0.2205
     77  NE        -5.9110   66.2270  546.3190 N.pl3  85  ARG85      -0.0865
     78  CZ        -6.1280   67.0300  547.3370 C.cat  85  ARG85       0.5346
     79  NH1       -6.7210   66.5350  548.4030 N.pl3  85  ARG85       0.1354
     80  NH2       -5.6860   68.2650  547.2880 N.pl3  85  ARG85       0.1354
     81  N        -10.4080   62.8670  547.3940 N.am   86  ARG86      -0.1966
     82  CA       -11.4420   63.1860  548.3870 C.3    86  ARG86       0.1729
     83  C        -12.8650   62.7470  547.9820 C.2    86  ARG86       0.2616
     84  O        -13.8600   63.2890  548.4720 O.2    86  ARG86      -0.2715
     85  CB       -11.4120   64.6600  548.7200 C.3    86  ARG86       0.0348
     86  CG       -10.1800   64.9900  549.5480 C.3    86  ARG86       0.0492
     87  CD       -10.0240   66.5020  549.7200 C.3    86  ARG86       0.2205
     88  NE       -10.0120   67.2520  548.4640 N.pl3  86  ARG86      -0.0865
     89  CZ       -10.1150   68.5880  548.3880 C.cat  86  ARG86       0.5346
     90  NH1      -10.2550   69.3240  549.5080 N.pl3  86  ARG86       0.1354
     91  NH2      -10.0930   69.1870  547.1750 N.pl3  86  ARG86       0.1354
     92  N        -12.9350   61.7470  547.0990 N.am   87  MET87      -0.1963
     93  CA       -14.1870   61.1900  546.5810 C.3    87  MET87       0.1736
     94  C        -14.0000   59.6910  546.5790 C.2    87  MET87       0.2617
     95  O        -14.0370   59.0340  545.5380 O.2    87  MET87      -0.2715
     96  CB       -14.4680   61.6890  545.1620 C.3    87  MET87       0.0427
     97  CG       -15.7820   61.1820  544.5770 C.3    87  MET87       0.0599
     98  SD       -16.0800   61.8720  542.9560 S.3    87  MET87      -0.1393
     99  CE       -14.7530   61.1180  542.0040 C.3    87  MET87       0.0692
    100  N        -13.7650   59.1630  547.7720 N.am   88  GLY88      -0.1940
    101  CA       -13.3370   57.7900  547.9210 C.3    88  GLY88       0.2014
    102  C        -12.0340   57.6750  547.1690 C.2    88  GLY88       0.2639
    103  O        -10.9870   58.1700  547.6460 O.2    88  GLY88      -0.2714
    104  N        -12.1570   57.0870  545.9670 N.am   89  ILE89      -0.1963
    105  CA       -11.0870   56.8770  544.9740 C.3    89  ILE89       0.1727
    106  C         -9.9240   56.0820  545.5480 C.2    89  ILE89       0.2616
    107  O         -9.8240   54.8810  545.3170 O.2    89  ILE89      -0.2715
    108  CB       -10.6250   58.1960  544.3610 C.3    89  ILE89       0.0290
    109  CG1      -11.8240   59.0190  543.8610 C.3    89  ILE89       0.0022
    110  CG2       -9.6150   57.9490  543.2560 C.3    89  ILE89       0.0023
    111  CD1      -12.8450   58.2540  543.0500 C.3    89  ILE89       0.0001
    112  N         -9.0600   56.7680  546.2980 N.am   90  ALA90      -0.1963
    113  CA        -8.0200   56.1440  547.1300 C.3    90  ALA90       0.1728
    114  C         -8.6840   55.3090  548.2140 C.2    90  ALA90       0.2616
    115  O         -8.4060   54.1100  548.4020 O.2    90  ALA90      -0.2715
    116  CB        -7.1530   57.2350  547.7890 C.3    90  ALA90       0.0334
    117  N         -9.5950   55.9880  548.9010 N.am   91  GLU91      -0.1977
    118  CA       -10.2070   55.5030  550.1270 C.3    91  GLU91       0.1602
    119  C        -11.1030   54.2480  550.0640 C.2    91  GLU91       0.2287
    120  O        -11.6250   53.8180  551.1090 O.2    91  GLU91      -0.2864
    121  CB       -10.9530   56.6560  550.8020 C.3    91  GLU91       0.0415
    122  CG       -10.0970   57.7410  551.3370 C.3    91  GLU91       0.1163
    123  CD       -10.8480   58.9960  551.7390 C.2    91  GLU91       0.3649
    124  OE1      -12.0770   59.1060  551.5020 O.co2  91  GLU91      -0.2457
    125  OE2      -10.2500   59.9410  552.2030 O.co2  91  GLU91      -0.2457
    126  N          4.0330   48.7030  554.4870 N.3   112  LEU112     -0.1231
    127  CA         4.3560   49.8200  553.5300 C.3   112  LEU112      0.1693
    128  C          5.3280   50.9220  554.0860 C.2   112  LEU112      0.2592
    129  O          5.8410   50.7950  555.2080 O.2   112  LEU112     -0.2718
    130  CB         3.0550   50.5070  553.1120 C.3   112  LEU112      0.0284
    131  CG         2.2750   51.1180  554.2710 C.3   112  LEU112      0.0019
    132  CD1        1.7720   52.5080  553.9040 C.3   112  LEU112      0.0001
    133  CD2        1.1390   50.2070  554.7400 C.3   112  LEU112      0.0001
    134  N          5.5500   52.0010  553.3060 N.am  113  HIS113     -0.1962
    135  CA         6.3700   53.1650  553.7070 C.3   113  HIS113      0.1787
    136  C          5.6630   54.4960  553.3550 C.2   113  HIS113      0.2620
    137  O          5.9390   55.0460  552.3070 O.2   113  HIS113     -0.2715
    138  CB         7.6630   53.1710  552.8850 C.3   113  HIS113      0.0785
    139  CG         8.7450   52.2860  553.3840 C.ar  113  HIS113      0.0821
    140  ND1        8.5590   50.9490  553.6560 N.ar  113  HIS113     -0.2267
    141  CD2       10.0670   52.5270  553.5310 C.ar  113  HIS113      0.1154
    142  CE1        9.7070   50.4240  554.0410 C.ar  113  HIS113      0.1986
    143  NE2       10.6450   51.3520  553.9340 N.ar  113  HIS113     -0.2212
    144  N          4.7550   55.0260  554.1680 N.am  114  VAL114     -0.1963
    145  CA         4.1560   56.3510  553.8580 C.3   114  VAL114      0.1727
    146  C          4.9910   57.4600  554.4850 C.2   114  VAL114      0.2616
    147  O          5.2880   57.4050  555.6760 O.2   114  VAL114     -0.2715
    148  CB         2.7080   56.4460  554.3250 C.3   114  VAL114      0.0290
    149  CG1        2.1420   57.8580  554.6560 C.3   114  VAL114      0.0023
    150  CG2        1.7770   55.6800  553.3880 C.3   114  VAL114      0.0023
    151  N          5.3800   58.4420  553.6790 N.am  115  ARG115     -0.1977
    152  CA         6.1690   59.6090  554.1460 C.3   115  ARG115      0.1597
    153  C          5.6890   60.3180  555.4410 C.2   115  ARG115      0.2287
    154  O          6.0420   59.9340  556.5810 O.2   115  ARG115     -0.2864
    155  CB         6.3530   60.6510  553.0070 C.3   115  ARG115      0.0334
    156  CG         5.1050   61.0110  552.1820 C.3   115  ARG115      0.0492
    157  CD         5.4150   61.2790  550.7170 C.3   115  ARG115      0.2205
    158  NE         6.5960   62.1390  550.5600 N.pl3 115  ARG115     -0.0865
    159  CZ         7.7110   61.8420  549.8680 C.cat 115  ARG115      0.5346
    160  NH1        7.8690   60.6830  549.2120 N.pl3 115  ARG115      0.1354
    161  NH2        8.6990   62.7420  549.8220 N.pl3 115  ARG115      0.1354
    162  N          2.5270   64.3480  555.9410 N.3   118  ASN118     -0.1225
    163  CA         1.4050   63.8900  555.0970 C.3   118  ASN118      0.1785
    164  C          0.1020   63.6910  555.8200 C.2   118  ASN118      0.2597
    165  O          0.0000   62.9170  556.7530 O.2   118  ASN118     -0.2718
    166  CB         1.7450   62.6210  554.3280 C.3   118  ASN118      0.1169
    167  CG         0.9700   62.5150  553.0080 C.2   118  ASN118      0.2627
    168  OD1       -0.1300   63.0300  552.8880 O.2   118  ASN118     -0.2716
    169  ND2        1.5490   61.8520  552.0180 N.am  118  ASN118     -0.0877
    170  N         -0.9110   64.3690  555.2940 N.am  119  ARG119     -0.1966
    171  CA        -2.2510   64.3030  555.8100 C.3   119  ARG119      0.1729
    172  C         -2.9020   63.1560  555.0910 C.2   119  ARG119      0.2616
    173  O         -3.0120   62.0660  555.6480 O.2   119  ARG119     -0.2715
    174  CB        -2.9980   65.6180  555.5550 C.3   119  ARG119      0.0348
    175  CG        -2.2910   66.8810  556.0520 C.3   119  ARG119      0.0492
    176  CD        -2.7310   67.2740  557.4560 C.3   119  ARG119      0.2205
    177  NE        -2.2980   66.3140  558.4670 N.pl3 119  ARG119     -0.0865
    178  CZ        -1.0670   66.2390  558.9490 C.cat 119  ARG119      0.5346
    179  NH1       -0.1330   67.0730  558.5190 N.pl3 119  ARG119      0.1354
    180  NH2       -0.7690   65.3500  559.8840 N.pl3 119  ARG119      0.1354
    181  N         -3.2490   63.4020  553.8290 N.am  120  ALA120     -0.1963
    182  CA        -4.0090   62.4950  553.0220 C.3   120  ALA120      0.1728
    183  C         -3.7390   61.0480  553.3770 C.2   120  ALA120      0.2616
    184  O         -4.6810   60.3020  553.6480 O.2   120  ALA120     -0.2715
    185  CB        -3.6590   62.7360  551.5700 C.3   120  ALA120      0.0334
    186  N         -2.4530   60.6650  553.3220 N.am  121  ALA121     -0.1977
    187  CA        -2.0530   59.2670  553.4860 C.3   121  ALA121      0.1597
    188  C         -2.1750   58.9860  554.9420 C.2   121  ALA121      0.2287
    189  O         -3.2040   58.4840  555.3380 O.2   121  ALA121     -0.2864
    190  CB        -0.6500   58.9690  552.9710 C.3   121  ALA121      0.0319
    191  N         -3.7180   59.3510  557.3990 N.3   123  HIS123     -0.1226
    192  CA        -5.0140   59.5380  558.0290 C.3   123  HIS123      0.1752
    193  C         -5.9330   58.3590  557.6540 C.2   123  HIS123      0.2596
    194  O         -5.9240   57.3650  558.3600 O.2   123  HIS123     -0.2718
    195  CB        -5.5800   60.9100  557.6560 C.3   123  HIS123      0.0759
    196  CG        -7.0470   61.0670  557.9250 C.ar  123  HIS123      0.0818
    197  ND1       -7.7720   60.2030  558.7210 N.ar  123  HIS123     -0.2268
    198  CD2       -7.9290   61.9930  557.4820 C.ar  123  HIS123      0.1154
    199  CE1       -9.0340   60.5870  558.7490 C.ar  123  HIS123      0.1986
    200  NE2       -9.1560   61.6730  558.0100 N.ar  123  HIS123     -0.2212
    201  N         -6.7300   58.4430  556.5910 N.am  124  LEU124     -0.1966
    202  CA        -7.6020   57.3270  556.2040 C.3   124  LEU124      0.1728
    203  C         -6.7270   56.1460  555.7440 C.2   124  LEU124      0.2616
    204  O         -6.8780   55.6140  554.6360 O.2   124  LEU124     -0.2715
    205  CB        -8.5730   57.7540  555.0950 C.3   124  LEU124      0.0311
    206  CG        -9.3670   58.9920  555.5460 C.3   124  LEU124      0.0022
    207  CD1       -8.8680   60.2640  554.8500 C.3   124  LEU124      0.0001
    208  CD2      -10.8460   58.8530  555.4250 C.3   124  LEU124      0.0001
    209  N         -5.8460   55.7390  556.6580 N.am  125  TYR125     -0.1974
    210  CA        -4.6720   54.8830  556.4010 C.3   125  TYR125      0.1639
    211  C         -4.0820   54.4400  557.7340 C.2   125  TYR125      0.2290
    212  O         -2.8650   54.2500  557.8450 O.2   125  TYR125     -0.2864
    213  CB        -3.5880   55.6600  555.6350 C.3   125  TYR125      0.0560
    214  CG        -2.8190   54.8860  554.5860 C.ar  125  TYR125     -0.0198
    215  CD1       -2.4620   53.5360  554.7720 C.ar  125  TYR125     -0.0009
    216  CD2       -2.4590   55.5170  553.3620 C.ar  125  TYR125     -0.0009
    217  CE1       -1.7640   52.8470  553.7920 C.ar  125  TYR125      0.0417
    218  CE2       -1.7710   54.8370  552.3680 C.ar  125  TYR125      0.0417
    219  CZ        -1.4310   53.5010  552.5570 C.ar  125  TYR125      0.1957
    220  OH        -0.7450   52.8410  551.5440 O.3   125  TYR125     -0.2866
    221  N         -9.4400   55.0130  559.2050 N.3   128  THR128     -0.1218
    222  CA       -10.4450   54.3280  558.4330 C.3   128  THR128      0.1862
    223  C        -10.0620   52.8450  558.3780 C.2   128  THR128      0.2287
    224  O        -10.8520   51.9770  558.7710 O.2   128  THR128     -0.2866
    225  CB       -10.5490   54.9300  557.0170 C.3   128  THR128      0.1770
    226  OG1       -9.2850   54.8360  556.3650 O.3   128  THR128     -0.2211
    227  CG2      -10.9600   56.4010  557.0750 C.3   128  THR128      0.0375
    228  N         13.5880   57.6430  553.2130 N.3   141  TYR141     -0.1241
    229  CA        13.0830   58.2620  552.0180 C.3   141  TYR141      0.1605
    230  C         14.1500   59.0990  551.3290 C.2   141  TYR141      0.2264
    231  O         15.1120   59.5440  551.9640 O.2   141  TYR141     -0.2867
    232  CB        11.8660   59.1020  552.4230 C.3   141  TYR141      0.0534
    233  CG        10.5600   58.4130  552.1290 C.ar  141  TYR141     -0.0201
    234  CD1       10.4300   57.0220  552.2410 C.ar  141  TYR141     -0.0009
    235  CD2        9.4470   59.1410  551.7120 C.ar  141  TYR141     -0.0009
    236  CE1        9.2490   56.3860  551.9150 C.ar  141  TYR141      0.0417
    237  CE2        8.2560   58.5010  551.4160 C.ar  141  TYR141      0.0417
    238  CZ         8.1600   57.1380  551.5290 C.ar  141  TYR141      0.1957
    239  OH         6.9620   56.5540  551.2330 O.3   141  TYR141     -0.2866
@<TRIPOS>BOND
     1     1     2    1
     2     8     6   am
     3     6     7    2
     4     6     5    1
     5     2     5    1
     6     2     3    1
     7    59    60    1
     8    12    11    2
     9     3     9   am
    10     3     4    2
    11    54    55    2
    12    54    53    1
    13    61    60    1
    14    61    62    2
    15    99    98    1
    16     9    10    1
    17    63    60    1
    18    63    64    1
    19    58    56    1
    20    53    52    1
    21    53    56    1
    22    64    65    1
    23    11    10    1
    24    98    97    1
    25    51    50    1
    26   111   109    1
    27    10    13    1
    28   110   108    1
    29    13    14    1
    30    52    48   am
    31    50    47    1
    32    56    57    1
    33    49    48    2
    34    48    47    1
    35    70    71    1
    36   109   108    1
    37    65    66    1
    38    47    46    1
    39    68    67    1
    40   108   105    1
    41    15    14    1
    42    14    16    1
    43    46    40   am
    44    97    96    1
    45    36    37    1
    46    36    33    1
    47    35    34    2
    48    66    67    2
    49    67    69    1
    50   105   106    1
    51   105   104    1
    52    31    29    1
    53    96    93    1
    54    71    74    1
    55    71    72    1
    56   107   106    2
    57    34    33    1
    58    34    38   am
    59    40    39    1
    60    40    41    2
    61    95    94    2
    62    29    30    1
    63    29    26    1
    64   106   112   am
    65    39    38    1
    66    39    42    1
    67    33    32    1
    68    74    75    1
    69    73    72    2
    70    75    76    1
    71    32    27   am
    72   104   102   am
    73    72    81   am
    74    76    77    1
    75   112   113    1
    76    77    78    2
    77    94    93    1
    78    94   100   am
    79    93    92    1
    80    43    42    1
    81    43    45    1
    82    43    44    1
    83    27    26    1
    84    27    28    2
    85    26    25    1
    86    92    83   am
    87   113   116    1
    88   113   114    1
    89   102   103    2
    90   102   101    1
    91    91    89    1
    92    80    78    1
    93    78    79    1
    94    25    19   am
    95    81    82    1
    96   100   101    1
    97    83    82    1
    98    83    84    2
    99   114   115    2
   100   114   117   am
   101    82    85    1
   102    89    88    2
   103    89    90    1
   104    88    87    1
   105    23    21    1
   106    19    18    1
   107    19    20    2
   108    85    86    1
   109   117   118    1
   110    18    21    1
   111    18    17    1
   112   160   159    1
   113    86    87    1
   114    21    22    1
   115   161   159    1
   116   159   158    2
   117    22    24    1
   118   119   118    1
   119   119   120    2
   120   118   121    1
   121   158   157    1
   122   157   156    1
   123   121   122    1
   124   239   238    1
   125   230   231    2
   126   230   229    1
   127   122   123    1
   128   237   238   ar
   129   237   235   ar
   130   124   123   ar
   131   238   236   ar
   132   220   219    1
   133   185   182    1
   134   235   233   ar
   135   123   125   ar
   136   236   234   ar
   137   229   232    1
   138   229   228    1
   139   169   167   am
   140   233   234   ar
   141   233   232    1
   142   156   155    1
   143   137   136    2
   144   218   219   ar
   145   218   216   ar
   146   219   217   ar
   147   138   139    1
   148   138   135    1
   149   168   167    2
   150   190   187    1
   151   155   152    1
   152   167   166    1
   153   182   183    1
   154   182   181    1
   155   130   127    1
   156   130   131    1
   157   134   135    1
   158   134   128   am
   159   186   183   am
   160   186   187    1
   161   136   135    1
   162   136   144   am
   163   216   214   ar
   164   183   184    2
   165   139   141   ar
   166   139   140   ar
   167   150   148    1
   168   187   188    1
   169   127   128    1
   170   127   126    1
   171   141   143   ar
   172   140   142   ar
   173   151   152    1
   174   151   146   am
   175   217   215   ar
   176   181   172   am
   177   145   144    1
   178   145   148    1
   179   145   146    1
   180   132   131    1
   181   143   142   ar
   182   128   129    2
   183   152   153    1
   184   131   133    1
   185   148   149    1
   186   166   163    1
   187   146   147    2
   188   214   215   ar
   189   214   213    1
   190   204   203    2
   191   207   206    1
   192   188   189    2
   193   172   173    2
   194   172   171    1
   195   205   206    1
   196   205   202    1
   197   163   164    1
   198   163   162    1
   199   170   171    1
   200   170   164   am
   201   208   206    1
   202   153   154    2
   203   174   171    1
   204   174   175    1
   205   213   210    1
   206   203   202    1
   207   203   209   am
   208   164   165    2
   209   175   176    1
   210   202   201    1
   211   226   225    1
   212   210   209    1
   213   210   211    1
   214   201   193   am
   215   225   227    1
   216   225   222    1
   217   191   192    1
   218   176   177    1
   219   198   196   ar
   220   198   200   ar
   221   193   192    1
   222   193   194    2
   223   195   196    1
   224   195   192    1
   225   211   212    2
   226   196   197   ar
   227   200   199   ar
   228   223   222    1
   229   223   224    2
   230   222   221    1
   231   177   178    2
   232   179   178    1
   233   197   199   ar
   234   178   180    1
