@<TRIPOS>MOLECULE
tmp/4y4aA00.pdb
 106 98 0 0 0
SMALL
GASTEIGER

@<TRIPOS>ATOM
      1  N          1.3860   -5.6650   11.2810 N.3    33  ASP33      -0.1239
      2  CA         1.5000   -4.7230   10.1710 C.3    33  ASP33       0.1674
      3  C          2.8200   -3.9750   10.3420 C.2    33  ASP33       0.2266
      4  O          2.9610   -3.1370   11.2320 O.2    33  ASP33      -0.2867
      5  CB         0.2910   -3.7760   10.2320 C.3    33  ASP33       0.1410
      6  CG         0.2100   -2.8070    9.0880 C.2    33  ASP33       0.3668
      7  OD1        1.1580   -2.7040    8.2830 O.co2  33  ASP33      -0.2456
      8  OD2       -0.8560   -2.1450    9.0090 O.co2  33  ASP33      -0.2456
      9  N          5.3450   -1.2660    9.8010 N.3    35  ASP35      -0.1239
     10  CA         5.0120    0.1290    9.5330 C.3    35  ASP35       0.1674
     11  C          6.2500    1.0230    9.5870 C.2    35  ASP35       0.2266
     12  O          6.6820    1.4160   10.6640 O.2    35  ASP35      -0.2867
     13  CB         3.9820    0.5920   10.5720 C.3    35  ASP35       0.1410
     14  CG         3.5420    2.0210   10.3770 C.2    35  ASP35       0.3668
     15  OD1        3.8560    2.5880    9.3120 O.co2  35  ASP35      -0.2456
     16  OD2        2.8480    2.5530   11.2870 O.co2  35  ASP35      -0.2456
     17  N         -2.4680    7.7180   15.1150 N.3    79  TYR79      -0.1227
     18  CA        -1.9740    7.6660   13.7510 C.3    79  TYR79       0.1736
     19  C         -2.6770    8.7030   12.8860 C.2    79  TYR79       0.2596
     20  O         -3.6640    9.3130   13.3040 O.2    79  TYR79      -0.2718
     21  CB        -2.1850    6.2630   13.1960 C.3    79  TYR79       0.0548
     22  CG        -1.4220    5.2050   13.9680 C.ar   79  TYR79      -0.0200
     23  CD1       -0.0630    5.0140   13.7550 C.ar   79  TYR79      -0.0009
     24  CD2       -2.0510    4.4100   14.9110 C.ar   79  TYR79      -0.0009
     25  CE1        0.6550    4.0460   14.4510 C.ar   79  TYR79       0.0417
     26  CE2       -1.3500    3.4350   15.6140 C.ar   79  TYR79       0.0417
     27  CZ         0.0080    3.2650   15.3860 C.ar   79  TYR79       0.1957
     28  OH         0.6960    2.2980   16.0830 O.3    79  TYR79      -0.2866
     29  N         -2.1560    8.8990   11.6790 N.am   80  GLY80      -0.1942
     30  CA        -2.5980    9.9730   10.8090 C.3    80  GLY80       0.2014
     31  C         -4.0430    9.8560   10.3790 C.2    80  GLY80       0.2638
     32  O         -4.6530   10.8520    9.9860 O.2    80  GLY80      -0.2714
     33  N         -4.5940    8.6460   10.4440 N.am   81  ASP81      -0.1971
     34  CA        -5.9790    8.4130   10.0370 C.3    81  ASP81       0.1709
     35  C         -6.9540    8.5890   11.2020 C.2    81  ASP81       0.2293
     36  O         -8.1610    8.4170   11.0380 O.2    81  ASP81      -0.2864
     37  CB        -6.1250    7.0120    9.4440 C.3    81  ASP81       0.1436
     38  CG        -5.9380    5.9190   10.4730 C.2    81  ASP81       0.3671
     39  OD1       -5.2540    6.1570   11.4900 O.co2  81  ASP81      -0.2456
     40  OD2       -6.4690    4.8110   10.2600 O.co2  81  ASP81      -0.2456
     41  N         -6.8370    6.8090   14.0150 N.3    83  SER83      -0.1217
     42  CA        -6.8680    5.6060   14.8310 C.3    83  SER83       0.1889
     43  C         -5.8520    5.7380   15.9550 C.2    83  SER83       0.2288
     44  O         -4.9190    6.5370   15.8720 O.2    83  SER83      -0.2866
     45  CB        -6.5600    4.3780   13.9870 C.3    83  SER83       0.2089
     46  OG        -5.2180    4.3780   13.5570 O.3    83  SER83      -0.2183
     47  N        -11.3000    1.1880   14.4880 N.3   115  SER115     -0.1202
     48  CA       -10.6970    0.7630   13.2320 C.3   115  SER115      0.2020
     49  C         -9.8150   -0.4670   13.4220 C.2   115  SER115      0.2618
     50  O         -9.7880   -1.3550   12.5720 O.2   115  SER115     -0.2717
     51  CB        -9.8820    1.9000   12.6290 C.3   115  SER115      0.2103
     52  OG        -8.9150    2.3620   13.5490 O.3   115  SER115     -0.2182
     53  N         -9.0850   -0.5200   14.5320 N.am  116  PHE116     -0.1975
     54  CA        -8.2600   -1.6890   14.8280 C.3   116  PHE116      0.1639
     55  C         -9.1360   -2.8970   15.1750 C.2   116  PHE116      0.2290
     56  O         -8.9160   -3.9910   14.6650 O.2   116  PHE116     -0.2864
     57  CB        -7.2320   -1.3960   15.9260 C.3   116  PHE116      0.0560
     58  CG        -6.1060   -0.5120   15.4670 C.ar  116  PHE116     -0.0200
     59  CD1       -5.2230   -0.9510   14.4930 C.ar  116  PHE116     -0.0042
     60  CD2       -5.9440    0.7610   15.9860 C.ar  116  PHE116     -0.0042
     61  CE1       -4.1930   -0.1500   14.0550 C.ar  116  PHE116     -0.0003
     62  CE2       -4.9010    1.5690   15.5540 C.ar  116  PHE116     -0.0003
     63  CZ        -4.0370    1.1170   14.5760 C.ar  116  PHE116     -0.0000
     64  N        -10.5200   -4.6190   12.1020 N.3   119  ASP119     -0.1239
     65  CA        -9.5670   -5.3200   11.2350 C.3   119  ASP119      0.1674
     66  C         -9.1240   -6.6310   11.8990 C.2   119  ASP119      0.2266
     67  O         -8.0700   -6.6720   12.5310 O.2   119  ASP119     -0.2867
     68  CB        -8.3140   -4.4660   10.9680 C.3   119  ASP119      0.1410
     69  CG        -8.5770   -3.2600   10.0720 C.2   119  ASP119      0.3668
     70  OD1       -9.6350   -3.2130    9.4100 O.co2 119  ASP119     -0.2456
     71  OD2       -7.7010   -2.3590   10.0210 O.co2 119  ASP119     -0.2456
     72  N         -5.3230   -8.0400   11.5440 N.3   122  ILE122     -0.1245
     73  CA        -4.1340   -7.3450   12.0260 C.3   122  ILE122      0.1561
     74  C         -4.0690   -7.4380   13.5520 C.2   122  ILE122      0.2260
     75  O         -4.9370   -6.9220   14.2600 O.2   122  ILE122     -0.2867
     76  CB        -4.1140   -5.8820   11.5180 C.3   122  ILE122      0.0252
     77  CG1       -3.9200   -5.8660    9.9920 C.3   122  ILE122      0.0019
     78  CG2       -3.0290   -5.0850   12.2270 C.3   122  ILE122      0.0019
     79  CD1       -4.0350   -4.4990    9.3550 C.3   122  ILE122      0.0001
     80  N          0.9920   -3.8000   15.3250 N.3   125  LEU125     -0.1245
     81  CA         1.9180   -3.1020   14.4260 C.3   125  LEU125      0.1561
     82  C          3.3500   -3.3450   14.8800 C.2   125  LEU125      0.2260
     83  O          3.6180   -3.4900   16.0760 O.2   125  LEU125     -0.2867
     84  CB         1.6590   -1.5840   14.3960 C.3   125  LEU125      0.0270
     85  CG         0.7070   -1.0980   13.2950 C.3   125  LEU125      0.0019
     86  CD1       -0.6790   -1.7100   13.4320 C.3   125  LEU125      0.0001
     87  CD2        0.6120    0.4180   13.2990 C.3   125  LEU125      0.0001
     88  N          6.4700    4.9530    3.5830 N.3   219  ASP219     -0.1239
     89  CA         5.6150    4.4770    4.6710 C.3   219  ASP219      0.1674
     90  C          4.8430    3.2070    4.3040 C.2   219  ASP219      0.2266
     91  O          3.7750    3.2620    3.6810 O.2   219  ASP219     -0.2867
     92  CB         4.6480    5.5780    5.1000 C.3   219  ASP219      0.1410
     93  CG         3.8390    5.1930    6.3060 C.2   219  ASP219      0.3668
     94  OD1        4.0420    4.0690    6.8300 O.co2 219  ASP219     -0.2456
     95  OD2        3.0080    6.0190    6.7340 O.co2 219  ASP219     -0.2456
     96  N          3.1830    1.4080    6.2100 N.3   221  GLY221     -0.1210
     97  CA         1.9550    1.3250    6.9760 C.3   221  GLY221      0.1956
     98  C          0.8150    2.2050    6.5050 C.2   221  GLY221      0.2612
     99  O         -0.2470    2.2190    7.1410 O.2   221  GLY221     -0.2717
    100  N          1.0090    2.8990    5.3860 N.am  222  THR222     -0.1952
    101  CA        -0.0510    3.6940    4.7610 C.3   222  THR222      0.1897
    102  C         -0.3690    3.0480    3.4190 C.2   222  THR222      0.2313
    103  O          0.5300    2.6960    2.6660 O.2   222  THR222     -0.2863
    104  CB         0.4070    5.1600    4.5490 C.3   222  THR222      0.1794
    105  OG1        0.5100    5.8120    5.8160 O.3   222  THR222     -0.2208
    106  CG2       -0.5820    5.9510    3.6810 C.3   222  THR222      0.0378
@<TRIPOS>BOND
     1   103   102    2
     2   102   101    1
     3    88    89    1
     4   106   104    1
     5    91    90    2
     6    90    89    1
     7   104   101    1
     8   104   105    1
     9    89    92    1
    10   101   100    1
    11    92    93    1
    12   100    98   am
    13    96    97    1
    14    93    95   ar
    15    93    94   ar
    16    98    97    1
    17    98    99    2
    18     7     6   ar
    19     8     6   ar
    20     6     5    1
    21    15    14   ar
    22    79    77    1
    23    70    69   ar
    24    37    34    1
    25    37    38    1
    26    10    11    1
    27    10     9    1
    28    10    13    1
    29    11    12    2
    30    32    31    2
    31    77    76    1
    32    71    69   ar
    33    34    33    1
    34    34    35    1
    35    69    68    1
    36     2     5    1
    37     2     3    1
    38     2     1    1
    39    40    38   ar
    40     3     4    2
    41    14    13    1
    42    14    16   ar
    43    31    33   am
    44    31    30    1
    45    38    39   ar
    46    30    29    1
    47    68    65    1
    48    36    35    2
    49    65    66    1
    50    65    64    1
    51    76    73    1
    52    76    78    1
    53    72    73    1
    54    29    19   am
    55    66    67    2
    56    73    74    1
    57    50    49    2
    58    51    48    1
    59    51    52    1
    60    19    20    2
    61    19    18    1
    62    21    18    1
    63    21    22    1
    64    48    49    1
    65    48    47    1
    66    85    87    1
    67    85    86    1
    68    85    84    1
    69    49    53   am
    70    74    75    2
    71    46    45    1
    72    18    17    1
    73    23    22   ar
    74    23    25   ar
    75    22    24   ar
    76    45    42    1
    77    41    42    1
    78    61    59   ar
    79    61    63   ar
    80    84    81    1
    81    81    82    1
    82    81    80    1
    83    25    27   ar
    84    59    58   ar
    85    53    54    1
    86    63    62   ar
    87    56    55    2
    88    54    55    1
    89    54    57    1
    90    42    43    1
    91    82    83    2
    92    24    26   ar
    93    27    26   ar
    94    27    28    1
    95    58    57    1
    96    58    60   ar
    97    62    60   ar
    98    44    43    2
