@<TRIPOS>MOLECULE
tmp/4y4bA02.pdb
 106 98 0 0 0
SMALL
GASTEIGER

@<TRIPOS>ATOM
      1  N          1.4490   -6.4280   11.3020 N.3    33  ASP33      -0.1239
      2  CA         1.5430   -5.4900   10.1860 C.3    33  ASP33       0.1674
      3  C          2.8640   -4.7270   10.3330 C.2    33  ASP33       0.2266
      4  O          3.0110   -3.8850   11.2240 O.2    33  ASP33      -0.2867
      5  CB         0.3180   -4.5650   10.2580 C.3    33  ASP33       0.1410
      6  CG         0.2230   -3.5670    9.1260 C.2    33  ASP33       0.3668
      7  OD1        1.1640   -3.4370    8.3230 O.co2  33  ASP33      -0.2456
      8  OD2       -0.8510   -2.9050    9.0720 O.co2  33  ASP33      -0.2456
      9  N          5.3630   -1.9920    9.7740 N.3    35  ASP35      -0.1239
     10  CA         5.0230   -0.6000    9.5100 C.3    35  ASP35       0.1674
     11  C          6.2650    0.2720    9.5590 C.2    35  ASP35       0.2266
     12  O          6.7070    0.6660   10.6320 O.2    35  ASP35      -0.2867
     13  CB         4.0000   -0.1240   10.5510 C.3    35  ASP35       0.1410
     14  CG         3.5850    1.3060   10.3540 C.2    35  ASP35       0.3668
     15  OD1        3.8750    1.8530    9.2740 O.co2  35  ASP35      -0.2456
     16  OD2        2.9450    1.8620   11.2790 O.co2  35  ASP35      -0.2456
     17  N         -2.4220    6.8610   14.8530 N.3    79  TYR79      -0.1227
     18  CA        -1.9260    6.7990   13.4850 C.3    79  TYR79       0.1736
     19  C         -2.6200    7.8280   12.5980 C.2    79  TYR79       0.2596
     20  O         -3.5920    8.4660   13.0070 O.2    79  TYR79      -0.2718
     21  CB        -2.1030    5.3760   12.9430 C.3    79  TYR79       0.0548
     22  CG        -1.3380    4.3390   13.7470 C.ar   79  TYR79      -0.0200
     23  CD1        0.0240    4.1470   13.5450 C.ar   79  TYR79      -0.0009
     24  CD2       -1.9680    3.5720   14.7200 C.ar   79  TYR79      -0.0009
     25  CE1        0.7380    3.2050   14.2840 C.ar   79  TYR79       0.0417
     26  CE2       -1.2700    2.6290   15.4600 C.ar   79  TYR79       0.0417
     27  CZ         0.0740    2.4510   15.2480 C.ar   79  TYR79       0.1957
     28  OH         0.7330    1.5040   16.0050 O.3    79  TYR79      -0.2866
     29  N         -2.1070    7.9810   11.3810 N.am   80  GLY80      -0.1942
     30  CA        -2.5610    9.0220   10.4760 C.3    80  GLY80       0.2014
     31  C         -4.0210    8.9150   10.0840 C.2    80  GLY80       0.2638
     32  O         -4.6320    9.9070    9.6810 O.2    80  GLY80      -0.2714
     33  N         -4.5820    7.7140   10.2030 N.am   81  ASP81      -0.1971
     34  CA        -5.9730    7.4710    9.8370 C.3    81  ASP81       0.1709
     35  C         -6.9160    7.6680   11.0240 C.2    81  ASP81       0.2293
     36  O         -8.1270    7.4570   10.9070 O.2    81  ASP81      -0.2864
     37  CB        -6.1330    6.0570    9.2810 C.3    81  ASP81       0.1436
     38  CG        -5.8550    4.9870   10.3170 C.2    81  ASP81       0.3671
     39  OD1       -5.1780    5.2870   11.3190 O.co2  81  ASP81      -0.2456
     40  OD2       -6.3080    3.8400   10.1270 O.co2  81  ASP81      -0.2456
     41  N         -6.7790    5.9990   13.8820 N.3    83  SER83      -0.1217
     42  CA        -6.8400    4.8240   14.7430 C.3    83  SER83       0.1889
     43  C         -5.8200    4.9600   15.8730 C.2    83  SER83       0.2288
     44  O         -4.9170    5.7880   15.8030 O.2    83  SER83      -0.2866
     45  CB        -6.5940    3.5440   13.9510 C.3    83  SER83       0.2089
     46  OG        -5.2550    3.4650   13.4990 O.3    83  SER83      -0.2183
     47  N        -11.2860    0.4030   14.5100 N.3   115  SER115     -0.1202
     48  CA       -10.7280   -0.0630   13.2450 C.3   115  SER115      0.2020
     49  C         -9.8350   -1.2820   13.4510 C.2   115  SER115      0.2618
     50  O         -9.8000   -2.1710   12.6090 O.2   115  SER115     -0.2717
     51  CB        -9.9570    1.0520   12.5350 C.3   115  SER115      0.2103
     52  OG        -8.9440    1.5900   13.3610 O.3   115  SER115     -0.2182
     53  N         -9.1210   -1.3320   14.5730 N.am  116  PHE116     -0.1975
     54  CA        -8.2900   -2.4910   14.8730 C.3   116  PHE116      0.1639
     55  C         -9.1630   -3.6960   15.2370 C.2   116  PHE116      0.2290
     56  O         -8.9560   -4.8020   14.7280 O.2   116  PHE116     -0.2864
     57  CB        -7.2630   -2.1710   15.9640 C.3   116  PHE116      0.0560
     58  CG        -6.1420   -1.2930   15.4830 C.ar  116  PHE116     -0.0200
     59  CD1       -5.2290   -1.7610   14.5520 C.ar  116  PHE116     -0.0042
     60  CD2       -5.9930   -0.0020   15.9630 C.ar  116  PHE116     -0.0042
     61  CE1       -4.2060   -0.9600   14.0990 C.ar  116  PHE116     -0.0003
     62  CE2       -4.9620    0.7990   15.5190 C.ar  116  PHE116     -0.0003
     63  CZ        -4.0720    0.3210   14.5810 C.ar  116  PHE116     -0.0000
     64  N        -10.6270   -5.4190   12.2570 N.3   119  ASP119     -0.1239
     65  CA        -9.7450   -6.1410   11.3590 C.3   119  ASP119      0.1674
     66  C         -9.2210   -7.4050   12.0210 C.2   119  ASP119      0.2266
     67  O         -8.1950   -7.3910   12.6960 O.2   119  ASP119     -0.2867
     68  CB        -8.5820   -5.2850   10.9070 C.3   119  ASP119      0.1410
     69  CG        -7.8420   -5.9190    9.7600 C.2   119  ASP119      0.3668
     70  OD1       -8.0550   -7.1300    9.5170 O.co2 119  ASP119     -0.2456
     71  OD2       -7.0760   -5.2180    9.0780 O.co2 119  ASP119     -0.2456
     72  N         -5.3100   -8.7860   11.6020 N.3   122  ILE122     -0.1245
     73  CA        -4.1110   -8.0980   12.0830 C.3   122  ILE122      0.1561
     74  C         -4.0350   -8.1940   13.6030 C.2   122  ILE122      0.2260
     75  O         -4.9060   -7.6840   14.3150 O.2   122  ILE122     -0.2867
     76  CB        -4.0770   -6.6440   11.5910 C.3   122  ILE122      0.0252
     77  CG1       -3.8600   -6.6300   10.0770 C.3   122  ILE122      0.0019
     78  CG2       -2.9770   -5.8500   12.3040 C.3   122  ILE122      0.0019
     79  CD1       -3.9320   -5.2590    9.4370 C.3   122  ILE122      0.0001
     80  N          1.0520   -4.5370   15.3590 N.3   125  LEU125     -0.1245
     81  CA         1.9750   -3.8490   14.4630 C.3   125  LEU125      0.1561
     82  C          3.4160   -4.0960   14.9000 C.2   125  LEU125      0.2260
     83  O          3.6920   -4.2460   16.0900 O.2   125  LEU125     -0.2867
     84  CB         1.7050   -2.3230   14.4340 C.3   125  LEU125      0.0270
     85  CG         0.7610   -1.8750   13.2960 C.3   125  LEU125      0.0019
     86  CD1       -0.6410   -2.4500   13.4760 C.3   125  LEU125      0.0001
     87  CD2        0.7030   -0.3700   13.1570 C.3   125  LEU125      0.0001
     88  N          6.4460    4.2160    3.5380 N.3   219  ASP219     -0.1239
     89  CA         5.5990    3.7450    4.6340 C.3   219  ASP219      0.1674
     90  C          4.8250    2.4830    4.2590 C.2   219  ASP219      0.2266
     91  O          3.7490    2.5470    3.6600 O.2   219  ASP219     -0.2867
     92  CB         4.6330    4.8520    5.0650 C.3   219  ASP219      0.1410
     93  CG         3.8450    4.4840    6.2990 C.2   219  ASP219      0.3668
     94  OD1        4.0450    3.3650    6.8180 O.co2 219  ASP219     -0.2456
     95  OD2        3.0380    5.3110    6.7690 O.co2 219  ASP219     -0.2456
     96  N          3.1310    0.6840    6.1530 N.3   221  GLY221     -0.1210
     97  CA         1.8980    0.6080    6.9120 C.3   221  GLY221      0.1956
     98  C          0.7650    1.4970    6.4090 C.2   221  GLY221      0.2612
     99  O         -0.3030    1.5290    7.0320 O.2   221  GLY221     -0.2717
    100  N          0.9760    2.2140    5.3030 N.am  222  THR222     -0.1952
    101  CA        -0.0800    3.0020    4.6580 C.3   222  THR222      0.1897
    102  C         -0.4250    2.3090    3.3400 C.2   222  THR222      0.2313
    103  O          0.4770    1.9160    2.5960 O.2   222  THR222     -0.2863
    104  CB         0.3990    4.4480    4.3900 C.3   222  THR222      0.1794
    105  OG1        0.5330    5.1230    5.6370 O.3   222  THR222     -0.2208
    106  CG2       -0.6010    5.2220    3.5490 C.3   222  THR222      0.0378
@<TRIPOS>BOND
     1   103   102    2
     2   102   101    1
     3    88    89    1
     4   106   104    1
     5    91    90    2
     6    90    89    1
     7   104   101    1
     8   104   105    1
     9    89    92    1
    10   101   100    1
    11    92    93    1
    12   100    98   am
    13    96    97    1
    14    93    95   ar
    15    93    94   ar
    16    98    97    1
    17    98    99    2
    18     7     6   ar
    19     8     6   ar
    20    71    69   ar
    21     6     5    1
    22    15    14   ar
    23    37    34    1
    24    37    38    1
    25    79    77    1
    26    10    11    1
    27    10     9    1
    28    10    13    1
    29    70    69   ar
    30    11    12    2
    31    32    31    2
    32    69    68    1
    33    34    33    1
    34    34    35    1
    35    77    76    1
    36    31    33   am
    37    31    30    1
    38    40    38   ar
    39     2     5    1
    40     2     3    1
    41     2     1    1
    42    38    39   ar
    43     3     4    2
    44    14    13    1
    45    14    16   ar
    46    30    29    1
    47    36    35    2
    48    68    65    1
    49    65    66    1
    50    65    64    1
    51    29    19   am
    52    76    73    1
    53    76    78    1
    54    72    73    1
    55    66    67    2
    56    73    74    1
    57    51    48    1
    58    51    52    1
    59    19    20    2
    60    19    18    1
    61    50    49    2
    62    21    18    1
    63    21    22    1
    64    87    85    1
    65    48    49    1
    66    48    47    1
    67    85    86    1
    68    85    84    1
    69    49    53   am
    70    18    17    1
    71    46    45    1
    72    23    22   ar
    73    23    25   ar
    74    74    75    2
    75    22    24   ar
    76    41    42    1
    77    45    42    1
    78    61    59   ar
    79    61    63   ar
    80    25    27   ar
    81    84    81    1
    82    81    82    1
    83    81    80    1
    84    59    58   ar
    85    53    54    1
    86    63    62   ar
    87    24    26   ar
    88    56    55    2
    89    42    43    1
    90    54    55    1
    91    54    57    1
    92    82    83    2
    93    27    26   ar
    94    27    28    1
    95    58    60   ar
    96    58    57    1
    97    62    60   ar
    98    44    43    2
