@<TRIPOS>MOLECULE
tmp/4y4dA00.pdb
 91 87 0 0 0
SMALL
GASTEIGER

@<TRIPOS>ATOM
      1  N         -7.6710   -5.8130   -1.8350 N.3    13  LEU13      -0.1245
      2  CA        -7.2810   -4.4750   -2.2720 C.3    13  LEU13       0.1561
      3  C         -5.8640   -4.0870   -1.8620 C.2    13  LEU13       0.2260
      4  O         -5.4110   -2.9920   -2.1790 O.2    13  LEU13      -0.2867
      5  CB        -8.2490   -3.4320   -1.7010 C.3    13  LEU13       0.0270
      6  CG        -9.7220   -3.5620   -2.0890 C.3    13  LEU13       0.0019
      7  CD1      -10.5210   -2.4690   -1.4120 C.3    13  LEU13       0.0001
      8  CD2       -9.8970   -3.5000   -3.5960 C.3    13  LEU13       0.0001
      9  N         -5.0240   -3.4670    1.2380 N.3    15  ASP15      -0.1239
     10  CA        -5.2010   -2.3560    2.1800 C.3    15  ASP15       0.1674
     11  C         -4.0520   -2.2520    3.1880 C.2    15  ASP15       0.2266
     12  O         -3.6960   -1.1620    3.6380 O.2    15  ASP15      -0.2867
     13  CB        -6.5550   -2.4650    2.8820 C.3    15  ASP15       0.1410
     14  CG        -7.6930   -1.9530    2.0210 C.2    15  ASP15       0.3668
     15  OD1       -7.5410   -0.8740    1.4100 O.co2  15  ASP15      -0.2456
     16  OD2       -8.7350   -2.6380    1.9300 O.co2  15  ASP15      -0.2456
     17  N         -1.7220    2.9510    3.0430 N.3   223  THR223     -0.1203
     18  CA        -2.1660    2.2240    1.8650 C.3   223  THR223      0.1994
     19  C         -1.8580    2.9460    0.5520 C.2   223  THR223      0.2617
     20  O         -1.3880    2.3470   -0.4150 O.2   223  THR223     -0.2717
     21  CB        -3.6910    1.9780    1.9320 C.3   223  THR223      0.1784
     22  OG1       -4.0580    1.4780    3.2230 O.3   223  THR223     -0.2211
     23  CG2       -4.1310    1.0030    0.8350 C.3   223  THR223      0.0376
     24  N         -2.1900    4.2310    0.5130 N.am  224  LEU224     -0.1979
     25  CA        -2.2390    4.9930   -0.7280 C.3   224  LEU224      0.1596
     26  C         -1.0340    5.9050   -0.9120 C.2   224  LEU224      0.2287
     27  O         -0.1540    6.0010   -0.0550 O.2   224  LEU224     -0.2864
     28  CB        -3.5350    5.8020   -0.7950 C.3   224  LEU224      0.0297
     29  CG        -4.8260    4.9850   -0.6190 C.3   224  LEU224      0.0022
     30  CD1       -6.0410    5.8720   -0.8380 C.3   224  LEU224      0.0001
     31  CD2       -4.8590    3.7560   -1.5660 C.3   224  LEU224      0.0001
     32  N         -0.0270    9.6990   -1.3950 N.3   226  TYR226     -0.1241
     33  CA        -0.5370   11.0340   -1.1060 C.3   226  TYR226      0.1605
     34  C          0.4780   12.0700   -1.5650 C.2   226  TYR226      0.2264
     35  O          1.6090   12.1090   -1.0700 O.2   226  TYR226     -0.2867
     36  CB        -0.8240   11.2180    0.3870 C.3   226  TYR226      0.0534
     37  CG        -1.9540   10.3480    0.8840 C.ar  226  TYR226     -0.0201
     38  CD1       -1.7050    9.0590    1.3660 C.ar  226  TYR226     -0.0009
     39  CD2       -3.2660   10.7990    0.8720 C.ar  226  TYR226     -0.0009
     40  CE1       -2.7270    8.2640    1.8070 C.ar  226  TYR226      0.0417
     41  CE2       -4.2960   10.0120    1.3130 C.ar  226  TYR226      0.0417
     42  CZ        -4.0250    8.7420    1.7830 C.ar  226  TYR226      0.1957
     43  OH        -5.0490    7.9310    2.2280 O.3   226  TYR226     -0.2866
     44  N        -17.1910   11.4680   -0.3490 N.3   248  VAL248     -0.1231
     45  CA       -16.5080   10.1820   -0.2780 C.3   248  VAL248      0.1692
     46  C        -15.1650   10.3210    0.4520 C.2   248  VAL248      0.2592
     47  O        -14.7610    9.4260    1.1990 O.2   248  VAL248     -0.2718
     48  CB       -16.3470    9.5620   -1.6750 C.3   248  VAL248      0.0266
     49  CG1      -15.5350    8.2600   -1.6050 C.3   248  VAL248      0.0020
     50  CG2      -17.7320    9.3350   -2.3160 C.3   248  VAL248      0.0020
     51  N        -14.4990   11.4540    0.2660 N.am  249  GLY249     -0.1957
     52  CA       -13.2360   11.7130    0.9320 C.3   249  GLY249      0.1869
     53  C        -12.0200   11.6210    0.0370 C.2   249  GLY249      0.2309
     54  O        -10.9280   11.3180    0.5070 O.2   249  GLY249     -0.2863
     55  N         -8.7230    1.1430   -6.3290 N.3   280  PHE280     -0.1241
     56  CA        -9.1330    0.6100   -5.0320 C.3   280  PHE280      0.1605
     57  C        -10.5930    0.2100   -4.9790 C.2   280  PHE280      0.2264
     58  O        -11.1380   -0.0320   -3.9070 O.2   280  PHE280     -0.2867
     59  CB        -8.6720    1.5160   -3.8930 C.3   280  PHE280      0.0534
     60  CG        -7.2400    1.2740   -3.5680 C.ar  280  PHE280     -0.0203
     61  CD1       -6.2460    1.7300   -4.4200 C.ar  280  PHE280     -0.0042
     62  CD2       -6.8860    0.4560   -2.5030 C.ar  280  PHE280     -0.0042
     63  CE1       -4.9270    1.4270   -4.1900 C.ar  280  PHE280     -0.0003
     64  CE2       -5.5720    0.1560   -2.2630 C.ar  280  PHE280     -0.0003
     65  CZ        -4.5850    0.6390   -3.1120 C.ar  280  PHE280     -0.0000
     66  N        -14.8400   -0.3760   -5.9170 N.3   282  PRO282     -0.2102
     67  CA       -16.0690    0.3660   -5.6280 C.3   282  PRO282      0.1504
     68  C        -16.0590    1.0220   -4.2500 C.2   282  PRO282      0.2575
     69  O        -15.5990    0.4280   -3.2750 O.2   282  PRO282     -0.2718
     70  CB       -17.1480   -0.7150   -5.7290 C.3   282  PRO282      0.0282
     71  CG       -16.5870   -1.6530   -6.7500 C.3   282  PRO282      0.0208
     72  CD       -15.1170   -1.7230   -6.4370 C.3   282  PRO282      0.0893
     73  N        -16.5940    2.2370   -4.1690 N.am  283  ILE283     -0.1980
     74  CA       -16.6160    2.9680   -2.9020 C.3   283  ILE283      0.1595
     75  C        -17.5170    2.2910   -1.8670 C.2   283  ILE283      0.2287
     76  O        -17.2850    2.4140   -0.6720 O.2   283  ILE283     -0.2864
     77  CB       -17.0180    4.4520   -3.1000 C.3   283  ILE283      0.0276
     78  CG1      -18.4270    4.5670   -3.7080 C.3   283  ILE283      0.0022
     79  CG2      -15.9700    5.1730   -3.9500 C.3   283  ILE283      0.0022
     80  CD1      -18.9560    5.9810   -3.7300 C.3   283  ILE283      0.0001
     81  N        -12.6920    4.0550   -5.9830 N.3   291  PHE291     -0.1241
     82  CA       -11.8310    4.9400   -5.2120 C.3   291  PHE291      0.1605
     83  C        -10.4070    4.9400   -5.7450 C.2   291  PHE291      0.2264
     84  O         -9.8290    3.8940   -6.0160 O.2   291  PHE291     -0.2867
     85  CB       -11.8120    4.5390   -3.7390 C.3   291  PHE291      0.0534
     86  CG       -11.2870    5.6280   -2.8400 C.ar  291  PHE291     -0.0203
     87  CD1      -12.0290    6.7810   -2.6460 C.ar  291  PHE291     -0.0042
     88  CD2      -10.0490    5.5330   -2.2330 C.ar  291  PHE291     -0.0042
     89  CE1      -11.5600    7.8030   -1.8530 C.ar  291  PHE291     -0.0003
     90  CE2       -9.5890    6.5500   -1.4230 C.ar  291  PHE291     -0.0003
     91  CZ       -10.3470    7.6850   -1.2420 C.ar  291  PHE291     -0.0000
@<TRIPOS>BOND
     1    71    72    1
     2    71    70    1
     3    72    66    1
     4    55    56    1
     5    84    83    2
     6    81    82    1
     7    66    67    1
     8    83    82    1
     9    70    67    1
    10    67    68    1
    11    82    85    1
    12    56    57    1
    13    56    59    1
    14    57    58    2
    15    61    63   ar
    16    61    60   ar
    17    68    73   am
    18    68    69    2
    19    63    65   ar
    20    73    74    1
    21    79    77    1
    22    59    60    1
    23    85    86    1
    24    80    78    1
    25    78    77    1
    26     8     6    1
    27    60    62   ar
    28    65    64   ar
    29    77    74    1
    30    74    75    1
    31    86    87   ar
    32    86    88   ar
    33    87    89   ar
    34    62    64   ar
    35    50    48    1
    36     2     3    1
    37     2     1    1
    38     2     5    1
    39    88    90   ar
    40     4     3    2
    41     6     5    1
    42     6     7    1
    43    75    76    2
    44    89    91   ar
    45    48    49    1
    46    48    45    1
    47    31    29    1
    48    34    33    1
    49    34    35    2
    50    90    91   ar
    51    32    33    1
    52    33    36    1
    53    26    25    1
    54    26    27    2
    55    30    29    1
    56    28    25    1
    57    28    29    1
    58    25    24    1
    59    20    19    2
    60    44    45    1
    61    45    46    1
    62    53    54    2
    63    53    52    1
    64    51    46   am
    65    51    52    1
    66    36    37    1
    67    46    47    2
    68    24    19   am
    69    19    18    1
    70    23    21    1
    71    39    37   ar
    72    39    41   ar
    73    37    38   ar
    74     9    10    1
    75    41    42   ar
    76    38    40   ar
    77    15    14   ar
    78    42    40   ar
    79    42    43    1
    80    18    21    1
    81    18    17    1
    82    16    14   ar
    83    21    22    1
    84    14    13    1
    85    10    13    1
    86    10    11    1
    87    11    12    2
