@<TRIPOS>MOLECULE
tmp/4y4eA00.pdb
 127 117 0 0 0
SMALL
GASTEIGER

@<TRIPOS>ATOM
      1  N         18.6620    1.5170  114.6500 N.3    35  ASP35      -0.1239
      2  CA        18.9990    2.9090  114.9180 C.3    35  ASP35       0.1674
      3  C         17.7650    3.8050  114.8650 C.2    35  ASP35       0.2266
      4  O         17.3420    4.1940  113.7800 O.2    35  ASP35      -0.2867
      5  CB        20.0340    3.3720  113.8850 C.3    35  ASP35       0.1410
      6  CG        20.4760    4.7990  114.0960 C.2    35  ASP35       0.3668
      7  OD1       20.1770    5.3430  115.1740 O.co2  35  ASP35      -0.2456
      8  OD2       21.1420    5.3570  113.1830 O.co2  35  ASP35      -0.2456
      9  N         17.6110    6.7920  115.5060 N.3    37  GLY37      -0.1210
     10  CA        18.0230    8.1100  115.0850 C.3    37  GLY37       0.1956
     11  C         18.3070    8.2920  113.5980 C.2    37  GLY37       0.2613
     12  O         18.8000    9.3500  113.2000 O.2    37  GLY37      -0.2717
     13  N         18.0110    7.2880  112.7740 N.am   38  SER38      -0.1938
     14  CA        18.1300    7.4310  111.3240 C.3    38  SER38       0.2055
     15  C         17.1080    6.5420  110.6460 C.2    38  SER38       0.2643
     16  O         16.4130    5.7850  111.3180 O.2    38  SER38      -0.2714
     17  CB        19.5500    7.1180  110.8380 C.3    38  SER38       0.2130
     18  OG        19.8500    5.7400  110.9390 O.3    38  SER38      -0.2179
     19  N         17.0280    6.6210  109.3170 N.am   39  SER39      -0.1949
     20  CA        15.8930    6.0620  108.6000 C.3    39  SER39       0.1924
     21  C         16.2530    5.3230  107.3250 C.2    39  SER39       0.2314
     22  O         15.3980    5.1590  106.4500 O.2    39  SER39      -0.2863
     23  CB        14.8890    7.1720  108.3130 C.3    39  SER39       0.2116
     24  OG        14.5790    7.8040  109.5370 O.3    39  SER39      -0.2180
     25  N         24.5430    8.8220  103.1400 N.3    77  ILE77      -0.1231
     26  CA        24.2110    9.2570  104.4850 C.3    77  ILE77       0.1692
     27  C         25.4690    9.6240  105.2380 C.2    77  ILE77       0.2593
     28  O         26.5240    9.0190  105.0480 O.2    77  ILE77      -0.2718
     29  CB        23.3720    8.1720  105.2230 C.3    77  ILE77       0.0266
     30  CG1       22.7750    8.7150  106.5210 C.3    77  ILE77       0.0019
     31  CG2       24.1900    6.9210  105.4670 C.3    77  ILE77       0.0020
     32  CD1       21.5930    7.9120  107.0230 C.3    77  ILE77       0.0001
     33  N         25.3420   10.6640  106.0560 N.am   78  SER78      -0.1938
     34  CA        26.3910   11.0870  106.9710 C.3    78  SER78       0.2055
     35  C         25.7920   11.1370  108.3600 C.2    78  SER78       0.2643
     36  O         24.7500   11.7640  108.5720 O.2    78  SER78      -0.2714
     37  CB        26.9150   12.4740  106.5930 C.3    78  SER78       0.2130
     38  OG        27.3980   12.4970  105.2590 O.3    78  SER78      -0.2179
     39  N         26.4540   10.4820  109.3040 N.am   79  TYR79      -0.1959
     40  CA        25.9600   10.3740  110.6670 C.3    79  TYR79       0.1771
     41  C         26.6170   11.4060  111.5810 C.2    79  TYR79       0.2620
     42  O         27.6500   11.9910  111.2410 O.2    79  TYR79      -0.2715
     43  CB        26.2020    8.9600  111.1920 C.3    79  TYR79       0.0574
     44  CG        25.4280    7.8920  110.4430 C.ar   79  TYR79      -0.0198
     45  CD1       26.0460    7.0900  109.4870 C.ar   79  TYR79      -0.0009
     46  CD2       24.0780    7.6920  110.6910 C.ar   79  TYR79      -0.0009
     47  CE1       25.3350    6.1010  108.8030 C.ar   79  TYR79       0.0417
     48  CE2       23.3580    6.7160  110.0150 C.ar   79  TYR79       0.0417
     49  CZ        23.9920    5.9310  109.0710 C.ar   79  TYR79       0.1957
     50  OH        23.2970    4.9530  108.3940 O.3    79  TYR79      -0.2866
     51  N         26.0090   11.6180  112.7470 N.am   80  GLY80      -0.1954
     52  CA        26.4520   12.6380  113.6810 C.3    80  GLY80       0.1869
     53  C         27.8620   12.4270  114.1840 C.2    80  GLY80       0.2309
     54  O         28.5010   13.3710  114.6540 O.2    80  GLY80      -0.2863
     55  N         13.3710   11.2070  107.0020 N.3   133  LEU133     -0.1245
     56  CA        14.8370   11.3190  107.0000 C.3   133  LEU133      0.1561
     57  C         15.5270   10.3630  106.0210 C.2   133  LEU133      0.2260
     58  O         16.7450   10.4180  105.8580 O.2   133  LEU133     -0.2867
     59  CB        15.4080   11.0850  108.4010 C.3   133  LEU133      0.0270
     60  CG        15.1210   12.1360  109.4610 C.3   133  LEU133      0.0019
     61  CD1       15.7800   11.7070  110.7620 C.3   133  LEU133      0.0001
     62  CD2       15.6120   13.5110  109.0450 C.3   133  LEU133      0.0001
     63  N         17.3260    8.7460  103.0190 N.3   135  THR135     -0.1218
     64  CA        18.1560    9.4650  102.0460 C.3   135  THR135      0.1862
     65  C         18.0320    8.9950  100.5960 C.2   135  THR135      0.2287
     66  O         18.7020    9.5290   99.7290 O.2   135  THR135     -0.2866
     67  CB        19.6620    9.4520  102.4180 C.3   135  THR135      0.1770
     68  OG1       20.2590    8.1850  102.0960 O.3   135  THR135     -0.2211
     69  CG2       19.8730    9.8300  103.8800 C.3   135  THR135      0.0375
     70  N         12.9550   12.8620  114.0350 N.3   194  PHE194     -0.1241
     71  CA        13.4300   12.0320  115.1370 C.3   194  PHE194      0.1605
     72  C         12.3060   11.7320  116.1300 C.2   194  PHE194      0.2264
     73  O         11.2480   12.3810  116.1210 O.2   194  PHE194     -0.2867
     74  CB        14.5280   12.7540  115.9220 C.3   194  PHE194      0.0534
     75  CG        15.7520   13.1010  115.1170 C.ar  194  PHE194     -0.0203
     76  CD1       16.1720   14.4150  115.0180 C.ar  194  PHE194     -0.0042
     77  CD2       16.5110   12.1160  114.5110 C.ar  194  PHE194     -0.0042
     78  CE1       17.3030   14.7440  114.2900 C.ar  194  PHE194     -0.0003
     79  CE2       17.6400   12.4420  113.7790 C.ar  194  PHE194     -0.0003
     80  CZ        18.0350   13.7550  113.6740 C.ar  194  PHE194     -0.0000
     81  N         16.4610   13.5480  121.7170 N.3   217  ILE217     -0.1245
     82  CA        15.9720   12.4430  120.8990 C.3   217  ILE217      0.1561
     83  C         16.2790   11.1050  121.5430 C.2   217  ILE217      0.2260
     84  O         17.3180   10.9280  122.1710 O.2   217  ILE217     -0.2867
     85  CB        16.5020   12.5050  119.4560 C.3   217  ILE217      0.0252
     86  CG1       18.0180   12.2930  119.3800 C.3   217  ILE217      0.0019
     87  CG2       16.0940   13.8310  118.8330 C.3   217  ILE217      0.0019
     88  CD1       18.5360   12.0890  117.9680 C.3   217  ILE217      0.0001
     89  N         17.5710    7.7490  120.8830 N.3   219  ASP219     -0.1239
     90  CA        18.4210    7.2880  119.7890 C.3   219  ASP219      0.1674
     91  C         19.2080    6.0180  120.1440 C.2   219  ASP219      0.2266
     92  O         20.2670    6.0780  120.7590 O.2   219  ASP219     -0.2867
     93  CB        19.3850    8.3940  119.3700 C.3   219  ASP219      0.1410
     94  CG        20.2030    8.0230  118.1510 C.2   219  ASP219      0.3668
     95  OD1       21.0250    8.8520  117.7210 O.co2 219  ASP219     -0.2456
     96  OD2       20.0330    6.9030  117.6210 O.co2 219  ASP219     -0.2456
     97  N         23.0460    5.7480  119.1100 N.3   222  THR222     -0.1218
     98  CA        24.0910    6.5460  119.7620 C.3   222  THR222      0.1862
     99  C         24.4300    5.8590  121.0800 C.2   222  THR222      0.2287
    100  O         23.5410    5.4790  121.8330 O.2   222  THR222     -0.2866
    101  CB        23.6170    7.9950  120.0110 C.3   222  THR222      0.1770
    102  OG1       23.5260    8.6730  118.7560 O.3   222  THR222     -0.2211
    103  CG2       24.6060    8.7440  120.8700 C.3   222  THR222      0.0375
    104  N         26.9320   19.5180  119.3230 N.3   300  ILE300     -0.1245
    105  CA        26.0740   18.6740  118.4710 C.3   300  ILE300      0.1561
    106  C         24.8420   19.3760  117.9130 C.2   300  ILE300      0.2260
    107  O         24.3920   19.0680  116.8070 O.2   300  ILE300     -0.2867
    108  CB        25.5480   17.4410  119.2640 C.3   300  ILE300      0.0252
    109  CG1       26.7140   16.6070  119.7870 C.3   300  ILE300      0.0019
    110  CG2       24.6060   16.5630  118.3970 C.3   300  ILE300      0.0019
    111  CD1       26.2950   15.4330  120.6350 C.3   300  ILE300      0.0001
    112  N         21.8790   19.1410  119.3810 N.3   302  ILE302     -0.1245
    113  CA        20.7090   18.4420  119.8940 C.3   302  ILE302      0.1561
    114  C         21.1260   17.5620  121.0690 C.2   302  ILE302      0.2260
    115  O         22.2400   17.0540  121.0980 O.2   302  ILE302     -0.2867
    116  CB        20.0260   17.6170  118.7640 C.3   302  ILE302      0.0252
    117  CG1       18.5880   17.2480  119.1320 C.3   302  ILE302      0.0019
    118  CG2       20.8450   16.3920  118.4040 C.3   302  ILE302      0.0019
    119  CD1       17.7260   16.8860  117.9170 C.3   302  ILE302      0.0001
    120  N         20.8800   14.0820  123.1200 N.3   304  ILE304     -0.1245
    121  CA        20.6770   12.7080  122.6560 C.3   304  ILE304      0.1561
    122  C         20.5940   11.7450  123.8320 C.2   304  ILE304      0.2260
    123  O         21.5850   11.5210  124.5510 O.2   304  ILE304     -0.2867
    124  CB        21.7880   12.2350  121.7000 C.3   304  ILE304      0.0252
    125  CG1       21.9690   13.2110  120.5370 C.3   304  ILE304      0.0019
    126  CG2       21.4600   10.8430  121.1730 C.3   304  ILE304      0.0019
    127  CD1       23.1400   12.8590  119.6220 C.3   304  ILE304      0.0001
@<TRIPOS>BOND
     1    66    65    2
     2    65    64    1
     3    64    67    1
     4    64    63    1
     5    68    67    1
     6    67    69    1
     7    25    26    1
     8    26    29    1
     9    26    27    1
    10    28    27    2
    11    29    31    1
    12    29    30    1
    13    27    33   am
    14    38    37    1
    15    58    57    2
    16    57    56    1
    17    33    34    1
    18    22    21    2
    19    30    32    1
    20    37    34    1
    21    34    35    1
    22    56    55    1
    23    56    59    1
    24    21    20    1
    25    23    20    1
    26    23    24    1
    27    35    36    2
    28    35    39   am
    29    50    49    1
    30    59    60    1
    31    20    19    1
    32    47    49   ar
    33    47    45   ar
    34    62    60    1
    35    49    48   ar
    36    39    40    1
    37    19    15   am
    38    60    61    1
    39    45    44   ar
    40    48    46   ar
    41    44    46   ar
    42    44    43    1
    43    15    16    2
    44    15    14    1
    45    40    43    1
    46    40    41    1
    47    17    18    1
    48    17    14    1
    49    42    41    2
    50    14    13    1
    51    41    51   am
    52    51    52    1
    53    13    11   am
    54     8     6   ar
    55    12    11    2
    56    11    10    1
    57    80    79   ar
    58    80    78   ar
    59    52    53    1
    60    79    77   ar
    61     4     3    2
    62     5     6    1
    63     5     2    1
    64    70    71    1
    65     6     7   ar
    66    53    54    2
    67    78    76   ar
    68    77    75   ar
    69     1     2    1
    70     3     2    1
    71    76    75   ar
    72    10     9    1
    73    75    74    1
    74    71    74    1
    75    71    72    1
    76    73    72    2
    77   107   106    2
    78    96    94   ar
    79    95    94   ar
    80   106   105    1
    81   119   117    1
    82    88    86    1
    83    94    93    1
    84   110   108    1
    85   118   116    1
    86   105   108    1
    87   105   104    1
    88   102   101    1
    89   116   117    1
    90   116   113    1
    91    87    85    1
    92    97    98    1
    93   108   109    1
    94    93    90    1
    95    86    85    1
    96   112   113    1
    97    85    82    1
    98   127   125    1
    99    98   101    1
   100    98    99    1
   101   109   111    1
   102    90    91    1
   103    90    89    1
   104   113   114    1
   105   101   103    1
   106    91    92    2
   107   125   124    1
   108    82    83    1
   109    82    81    1
   110   114   115    2
   111    99   100    2
   112   126   124    1
   113    83    84    2
   114   124   121    1
   115   121   120    1
   116   121   122    1
   117   122   123    2
