@<TRIPOS>MOLECULE
tmp/4y4gA00.pdb
 107 100 0 0 0
SMALL
GASTEIGER

@<TRIPOS>ATOM
      1  N          1.4080   -5.5940   11.3210 N.3    33  ASP33      -0.1239
      2  CA         1.5050   -4.6460   10.2250 C.3    33  ASP33       0.1674
      3  C          2.8410   -3.9060   10.3760 C.2    33  ASP33       0.2266
      4  O          2.9940   -3.0540   11.2630 O.2    33  ASP33      -0.2867
      5  CB         0.3170   -3.6800   10.3490 C.3    33  ASP33       0.1410
      6  CG         0.1990   -2.7080    9.2050 C.2    33  ASP33       0.3668
      7  OD1        1.1170   -2.6220    8.3430 O.co2  33  ASP33      -0.2456
      8  OD2       -0.8490   -2.0000    9.1890 O.co2  33  ASP33      -0.2456
      9  N          5.3960   -1.2060    9.8250 N.3    35  ASP35      -0.1239
     10  CA         5.0290    0.1840    9.5790 C.3    35  ASP35       0.1674
     11  C          6.2580    1.0860    9.6280 C.2    35  ASP35       0.2266
     12  O          6.6940    1.4870   10.7020 O.2    35  ASP35      -0.2867
     13  CB         4.0030    0.6130   10.6340 C.3    35  ASP35       0.1410
     14  CG         3.5430    2.0500   10.4740 C.2    35  ASP35       0.3668
     15  OD1        3.8360    2.6670    9.4220 O.co2  35  ASP35      -0.2456
     16  OD2        2.8540    2.5350   11.4040 O.co2  35  ASP35      -0.2456
     17  N          6.3060    4.0420    9.0310 N.3    37  GLY37      -0.1210
     18  CA         5.8360    5.3610    9.4170 C.3    37  GLY37       0.1956
     19  C          5.5880    5.5500   10.9080 C.2    37  GLY37       0.2612
     20  O          5.0510    6.5940   11.3200 O.2    37  GLY37      -0.2717
     21  N          5.9390    4.5570   11.7220 N.am   38  SER38      -0.1952
     22  CA         5.8430    4.6990   13.1690 C.3    38  SER38       0.1924
     23  C          6.8960    3.8380   13.8430 C.2    38  SER38       0.2314
     24  O          7.6070    3.0990   13.1590 O.2    38  SER38      -0.2863
     25  CB         4.4380    4.3460   13.6630 C.3    38  SER38       0.2116
     26  OG         4.1610    2.9570   13.5100 O.3    38  SER38      -0.2180
     27  N         -2.4770    7.7320   15.1410 N.3    79  TYR79      -0.1227
     28  CA        -1.9960    7.6490   13.7770 C.3    79  TYR79       0.1736
     29  C         -2.7070    8.6440   12.8770 C.2    79  TYR79       0.2596
     30  O         -3.7180    9.2280   13.2550 O.2    79  TYR79      -0.2718
     31  CB        -2.2090    6.2360   13.2600 C.3    79  TYR79       0.0548
     32  CG        -1.4200    5.1980   14.0370 C.ar   79  TYR79      -0.0200
     33  CD1       -0.0740    4.9900   13.7810 C.ar   79  TYR79      -0.0009
     34  CD2       -2.0220    4.4300   15.0240 C.ar   79  TYR79      -0.0009
     35  CE1        0.6510    4.0280   14.4730 C.ar   79  TYR79       0.0417
     36  CE2       -1.3090    3.4680   15.7280 C.ar   79  TYR79       0.0417
     37  CZ         0.0270    3.2710   15.4490 C.ar   79  TYR79       0.1957
     38  OH         0.7400    2.3230   16.1510 O.3    79  TYR79      -0.2866
     39  N         -2.1800    8.8060   11.6690 N.am   80  GLY80      -0.1942
     40  CA        -2.6630    9.8070   10.7330 C.3    80  GLY80       0.2014
     41  C         -4.1030    9.6450   10.2900 C.2    80  GLY80       0.2638
     42  O         -4.6930   10.5800    9.7530 O.2    80  GLY80      -0.2714
     43  N         -4.6720    8.4620   10.4910 N.am   81  ASP81      -0.1971
     44  CA        -6.0680    8.2280   10.1180 C.3    81  ASP81       0.1709
     45  C         -7.0180    8.4910   11.2820 C.2    81  ASP81       0.2293
     46  O         -8.2230    8.3060   11.1450 O.2    81  ASP81      -0.2864
     47  CB        -6.2600    6.8000    9.6020 C.3    81  ASP81       0.1436
     48  CG        -5.9940    5.7560   10.6570 C.2    81  ASP81       0.3671
     49  OD1       -5.3850    6.0990   11.6960 O.co2  81  ASP81      -0.2456
     50  OD2       -6.3820    4.5880   10.4370 O.co2  81  ASP81      -0.2456
     51  N         -6.8350    6.9050   14.1750 N.3    83  SER83      -0.1217
     52  CA        -6.8610    5.7310   15.0410 C.3    83  SER83       0.1889
     53  C         -5.8460    5.8450   16.1710 C.2    83  SER83       0.2288
     54  O         -4.9330    6.6600   16.1200 O.2    83  SER83      -0.2866
     55  CB        -6.6190    4.4560   14.2230 C.3    83  SER83       0.2089
     56  OG        -5.2960    4.3810   13.7040 O.3    83  SER83      -0.2183
     57  N        -11.1920    1.2460   14.6140 N.3   115  SER115     -0.1202
     58  CA       -10.6690    0.7290   13.3530 C.3   115  SER115      0.2020
     59  C         -9.7390   -0.4590   13.5870 C.2   115  SER115      0.2618
     60  O         -9.6370   -1.3350   12.7360 O.2   115  SER115     -0.2717
     61  CB        -9.9530    1.8160   12.5590 C.3   115  SER115      0.2103
     62  OG        -8.8570    2.3230   13.2880 O.3   115  SER115     -0.2182
     63  N         -9.0810   -0.5010   14.7410 N.am  116  PHE116     -0.1975
     64  CA        -8.2080   -1.6370   15.0440 C.3   116  PHE116      0.1639
     65  C         -9.0750   -2.8530   15.3820 C.2   116  PHE116      0.2290
     66  O         -8.8680   -3.9500   14.8580 O.2   116  PHE116     -0.2864
     67  CB        -7.2230   -1.2950   16.1610 C.3   116  PHE116      0.0560
     68  CG        -6.1060   -0.3860   15.7170 C.ar  116  PHE116     -0.0200
     69  CD1       -5.2250   -0.7910   14.7380 C.ar  116  PHE116     -0.0042
     70  CD2       -5.9540    0.8810   16.2590 C.ar  116  PHE116     -0.0042
     71  CE1       -4.2110    0.0400   14.3110 C.ar  116  PHE116     -0.0003
     72  CE2       -4.9260    1.7130   15.8420 C.ar  116  PHE116     -0.0003
     73  CZ        -4.0640    1.2980   14.8650 C.ar  116  PHE116     -0.0000
     74  N          1.0480   -3.6970   15.4120 N.3   125  LEU125     -0.1245
     75  CA         1.9590   -3.0180   14.4980 C.3   125  LEU125      0.1561
     76  C          3.3880   -3.2290   14.9510 C.2   125  LEU125      0.2260
     77  O          3.6600   -3.3350   16.1460 O.2   125  LEU125     -0.2867
     78  CB         1.6590   -1.5180   14.4530 C.3   125  LEU125      0.0270
     79  CG         0.6730   -1.0600   13.3650 C.3   125  LEU125      0.0019
     80  CD1       -0.7110   -1.6770   13.5670 C.3   125  LEU125      0.0001
     81  CD2        0.5950    0.4490   13.3120 C.3   125  LEU125      0.0001
     82  N          6.4640    5.0590    3.5560 N.3   219  ASP219     -0.1239
     83  CA         5.6160    4.6100    4.6630 C.3   219  ASP219      0.1674
     84  C          4.8180    3.3500    4.3230 C.2   219  ASP219      0.2266
     85  O          3.7510    3.4100    3.6950 O.2   219  ASP219     -0.2867
     86  CB         4.6600    5.7290    5.0640 C.3   219  ASP219      0.1410
     87  CG         3.8260    5.3740    6.2710 C.2   219  ASP219      0.3668
     88  OD1        4.0360    4.2800    6.8520 O.co2 219  ASP219     -0.2456
     89  OD2        2.9610    6.1920    6.6370 O.co2 219  ASP219     -0.2456
     90  N          3.0950    1.6470    6.2090 N.3   221  GLY221     -0.1210
     91  CA         1.8820    1.5700    7.0050 C.3   221  GLY221      0.1956
     92  C          0.7290    2.3950    6.4630 C.2   221  GLY221      0.2613
     93  O         -0.3720    2.3510    7.0160 O.2   221  GLY221     -0.2717
     94  N          0.9800    3.1260    5.3850 N.am  222  THR222     -0.1938
     95  CA        -0.0550    3.8830    4.6980 C.3   222  THR222      0.2028
     96  C         -0.3790    3.1850    3.3830 C.2   222  THR222      0.2642
     97  O          0.5190    2.8340    2.6220 O.2   222  THR222     -0.2714
     98  CB         0.3980    5.3350    4.4660 C.3   222  THR222      0.1808
     99  OG1        0.5000    6.0060    5.7230 O.3   222  THR222     -0.2208
    100  CG2       -0.6060    6.0980    3.5820 C.3   222  THR222      0.0379
    101  N         -1.6640    2.9960    3.1120 N.am  223  THR223     -0.1950
    102  CA        -2.0810    2.2700    1.9190 C.3   223  THR223      0.1897
    103  C         -1.7950    3.0070    0.6210 C.2   223  THR223      0.2313
    104  O         -1.3080    2.4230   -0.3490 O.2   223  THR223     -0.2863
    105  CB        -3.6040    1.9760    1.9850 C.3   223  THR223      0.1794
    106  OG1       -3.9390    1.4460    3.2780 O.3   223  THR223     -0.2208
    107  CG2       -4.0490    0.9970    0.9000 C.3   223  THR223      0.0378
@<TRIPOS>BOND
     1   104   103    2
     2   103   102    1
     3   107   105    1
     4   102   105    1
     5   102   101    1
     6   105   106    1
     7    97    96    2
     8   101    96   am
     9    96    95    1
    10    82    83    1
    11   100    98    1
    12    85    84    2
    13    84    83    1
    14    98    95    1
    15    98    99    1
    16    83    86    1
    17    95    94    1
    18    86    87    1
    19    94    92   am
    20    90    91    1
    21    87    89   ar
    22    87    88   ar
    23    92    91    1
    24    92    93    2
    25     7     6   ar
    26    17    18    1
    27     8     6   ar
    28     6     5    1
    29    18    19    1
    30    15    14   ar
    31    10    11    1
    32    10     9    1
    33    10    13    1
    34    47    44    1
    35    47    48    1
    36    11    12    2
    37    42    41    2
    38    44    43    1
    39    44    45    1
    40     2     5    1
    41     2     3    1
    42     2     1    1
    43    41    43   am
    44    41    40    1
    45     3     4    2
    46    50    48   ar
    47    14    13    1
    48    14    16   ar
    49    48    49   ar
    50    40    39    1
    51    19    20    2
    52    19    21   am
    53    46    45    2
    54    39    29   am
    55    21    22    1
    56    61    62    1
    57    61    58    1
    58    60    59    2
    59    29    30    2
    60    29    28    1
    61    24    23    2
    62    22    25    1
    63    22    23    1
    64    31    28    1
    65    31    32    1
    66    81    79    1
    67    58    59    1
    68    58    57    1
    69    79    80    1
    70    79    78    1
    71    26    25    1
    72    59    63   am
    73    56    55    1
    74    28    27    1
    75    33    32   ar
    76    33    35   ar
    77    32    34   ar
    78    51    52    1
    79    55    52    1
    80    71    69   ar
    81    71    73   ar
    82    78    75    1
    83    35    37   ar
    84    75    76    1
    85    75    74    1
    86    69    68   ar
    87    63    64    1
    88    66    65    2
    89    73    72   ar
    90    76    77    2
    91    34    36   ar
    92    52    53    1
    93    64    65    1
    94    64    67    1
    95    37    36   ar
    96    37    38    1
    97    68    67    1
    98    68    70   ar
    99    72    70   ar
   100    54    53    2
