@<TRIPOS>MOLECULE
tmp/4y4jA00.pdb
 116 107 0 0 0
SMALL
GASTEIGER

@<TRIPOS>ATOM
      1  N          1.4450   -5.5770   11.3440 N.3    33  ASP33      -0.1239
      2  CA         1.5420   -4.6440   10.2300 C.3    33  ASP33       0.1674
      3  C          2.8570   -3.8750   10.3840 C.2    33  ASP33       0.2266
      4  O          3.0060   -3.0320   11.2770 O.2    33  ASP33      -0.2867
      5  CB         0.3280   -3.7160   10.3010 C.3    33  ASP33       0.1410
      6  CG         0.2320   -2.7340    9.1590 C.2    33  ASP33       0.3668
      7  OD1        1.1600   -2.6160    8.3380 O.co2  33  ASP33      -0.2456
      8  OD2       -0.8300   -2.0590    9.1230 O.co2  33  ASP33      -0.2456
      9  N          5.3660   -1.1470    9.7950 N.3    35  ASP35      -0.1239
     10  CA         5.0130    0.2430    9.5250 C.3    35  ASP35       0.1674
     11  C          6.2530    1.1220    9.5650 C.2    35  ASP35       0.2266
     12  O          6.6920    1.5270   10.6430 O.2    35  ASP35      -0.2867
     13  CB         3.9930    0.7090   10.5620 C.3    35  ASP35       0.1410
     14  CG         3.5420    2.1380   10.3500 C.2    35  ASP35       0.3668
     15  OD1        3.8480    2.6970    9.2780 O.co2  35  ASP35      -0.2456
     16  OD2        2.8680    2.6840   11.2590 O.co2  35  ASP35      -0.2456
     17  N          6.3660    4.0870    8.9140 N.3    37  GLY37      -0.1210
     18  CA         5.9490    5.4060    9.3440 C.3    37  GLY37       0.1956
     19  C          5.6960    5.5670   10.8350 C.2    37  GLY37       0.2612
     20  O          5.2240    6.6250   11.2410 O.2    37  GLY37      -0.2717
     21  N          6.0130    4.5630   11.6530 N.am   38  SER38      -0.1952
     22  CA         5.9050    4.7110   13.1060 C.3    38  SER38       0.1924
     23  C          6.9480    3.8480   13.7820 C.2    38  SER38       0.2314
     24  O          7.6560    3.0940   13.1130 O.2    38  SER38      -0.2863
     25  CB         4.5020    4.3670   13.5990 C.3    38  SER38       0.2116
     26  OG         4.2280    2.9920   13.4790 O.3    38  SER38      -0.2180
     27  N         -2.2570    7.8650   15.2010 N.3    79  TYR79      -0.1227
     28  CA        -1.7490    7.7720   13.8440 C.3    79  TYR79       0.1736
     29  C         -2.3740    8.8200   12.9280 C.2    79  TYR79       0.2596
     30  O         -3.3600    9.4660   13.2820 O.2    79  TYR79      -0.2718
     31  CB        -2.0030    6.3640   13.3160 C.3    79  TYR79       0.0548
     32  CG        -1.2370    5.2900   14.0690 C.ar   79  TYR79      -0.0200
     33  CD1        0.1320    5.1370   13.8950 C.ar   79  TYR79      -0.0009
     34  CD2       -1.8840    4.4200   14.9360 C.ar   79  TYR79      -0.0009
     35  CE1        0.8360    4.1470   14.5580 C.ar   79  TYR79       0.0417
     36  CE2       -1.1860    3.4400   15.6160 C.ar   79  TYR79       0.0417
     37  CZ         0.1670    3.3100   15.4220 C.ar   79  TYR79       0.1957
     38  OH         0.8200    2.3170   16.1010 O.3    79  TYR79      -0.2866
     39  N         -1.7840    8.9760   11.7450 N.am   80  GLY80      -0.1942
     40  CA        -2.1990    9.9850   10.7870 C.3    80  GLY80       0.2014
     41  C         -3.6470    9.8610   10.3650 C.2    80  GLY80       0.2638
     42  O         -4.2740   10.8520    9.9860 O.2    80  GLY80      -0.2714
     43  N         -4.1850    8.6490   10.4220 N.am   81  ASP81      -0.1971
     44  CA        -5.5590    8.4090    9.9970 C.3    81  ASP81       0.1709
     45  C         -6.5720    8.5980   11.1260 C.2    81  ASP81       0.2293
     46  O         -7.7640    8.3710   10.9300 O.2    81  ASP81      -0.2864
     47  CB        -5.6980    7.0050    9.4120 C.3    81  ASP81       0.1436
     48  CG        -5.5790    5.9190   10.4590 C.2    81  ASP81       0.3671
     49  OD1       -5.0280    6.1830   11.5460 O.co2  81  ASP81      -0.2456
     50  OD2       -6.0340    4.7910   10.1910 O.co2  81  ASP81      -0.2456
     51  N         -6.5910    6.9230   14.0200 N.3    83  SER83      -0.1217
     52  CA        -6.6710    5.7590   14.8960 C.3    83  SER83       0.1889
     53  C         -5.6780    5.9020   16.0430 C.2    83  SER83       0.2288
     54  O         -4.7810    6.7400   15.9920 O.2    83  SER83      -0.2866
     55  CB        -6.3980    4.4730   14.1220 C.3    83  SER83       0.2089
     56  OG        -5.0720    4.4390   13.6210 O.3    83  SER83      -0.2183
     57  N        -11.0730    1.3150   14.5250 N.3   115  SER115     -0.1202
     58  CA       -10.5470    0.7900   13.2700 C.3   115  SER115      0.2020
     59  C         -9.6610   -0.4310   13.5150 C.2   115  SER115      0.2618
     60  O         -9.6210   -1.3290   12.6820 O.2   115  SER115     -0.2717
     61  CB        -9.7900    1.8540   12.4810 C.3   115  SER115      0.2103
     62  OG        -8.6440    2.2910   13.1740 O.3   115  SER115     -0.2182
     63  N         -8.9710   -0.4780   14.6540 N.am  116  PHE116     -0.1975
     64  CA        -8.1850   -1.6600   14.9840 C.3   116  PHE116      0.1639
     65  C         -9.0990   -2.8270   15.3620 C.2   116  PHE116      0.2290
     66  O         -8.9370   -3.9350   14.8520 O.2   116  PHE116     -0.2864
     67  CB        -7.1600   -1.3470   16.0830 C.3   116  PHE116      0.0560
     68  CG        -6.0510   -0.4510   15.6130 C.ar  116  PHE116     -0.0200
     69  CD1       -5.1740   -0.8830   14.6370 C.ar  116  PHE116     -0.0042
     70  CD2       -5.9020    0.8290   16.1180 C.ar  116  PHE116     -0.0042
     71  CE1       -4.1770   -0.0640   14.1800 C.ar  116  PHE116     -0.0003
     72  CE2       -4.8970    1.6530   15.6660 C.ar  116  PHE116     -0.0003
     73  CZ        -4.0370    1.2100   14.6930 C.ar  116  PHE116     -0.0000
     74  N        -10.7200   -4.5760   12.3890 N.3   119  ASP119     -0.1239
     75  CA        -9.8600   -5.3160   11.4860 C.3   119  ASP119      0.1674
     76  C         -9.2840   -6.5470   12.1820 C.2   119  ASP119      0.2266
     77  O         -8.2870   -6.4860   12.8920 O.2   119  ASP119     -0.2867
     78  CB        -8.7610   -4.4200   10.9640 C.3   119  ASP119      0.1410
     79  CG        -7.8750   -5.1170    9.9920 C.2   119  ASP119      0.3668
     80  OD1       -8.1820   -6.2710    9.6120 O.co2 119  ASP119     -0.2456
     81  OD2       -6.8550   -4.5140    9.6180 O.co2 119  ASP119     -0.2456
     82  N         -5.2730   -7.8890   11.6720 N.3   122  ILE122     -0.1245
     83  CA        -4.0620   -7.2190   12.1520 C.3   122  ILE122      0.1561
     84  C         -4.0030   -7.3200   13.6720 C.2   122  ILE122      0.2260
     85  O         -4.8660   -6.7900   14.3800 O.2   122  ILE122     -0.2867
     86  CB        -4.0130   -5.7670   11.6460 C.3   122  ILE122      0.0252
     87  CG1       -3.7450   -5.7580   10.1330 C.3   122  ILE122      0.0019
     88  CG2       -2.9490   -4.9640   12.3870 C.3   122  ILE122      0.0019
     89  CD1       -3.7330   -4.4000    9.4770 C.3   122  ILE122      0.0001
     90  N          1.0780   -3.6590   15.4020 N.3   125  LEU125     -0.1245
     91  CA         1.9780   -2.9740   14.4860 C.3   125  LEU125      0.1561
     92  C          3.4140   -3.2160   14.9290 C.2   125  LEU125      0.2260
     93  O          3.6960   -3.3220   16.1310 O.2   125  LEU125     -0.2867
     94  CB         1.6970   -1.4600   14.4390 C.3   125  LEU125      0.0270
     95  CG         0.7080   -1.0320   13.3340 C.3   125  LEU125      0.0019
     96  CD1       -0.6730   -1.6240   13.5330 C.3   125  LEU125      0.0001
     97  CD2        0.6380    0.4760   13.2100 C.3   125  LEU125      0.0001
     98  N          6.4490    5.0090    3.5150 N.3   219  ASP219     -0.1239
     99  CA         5.5940    4.5770    4.6160 C.3   219  ASP219      0.1674
    100  C          4.8060    3.3110    4.2620 C.2   219  ASP219      0.2266
    101  O          3.7370    3.3680    3.6510 O.2   219  ASP219     -0.2867
    102  CB         4.6490    5.7060    5.0050 C.3   219  ASP219      0.1410
    103  CG         3.7900    5.3580    6.1990 C.2   219  ASP219      0.3668
    104  OD1        3.9860    4.2640    6.7870 O.co2 219  ASP219     -0.2456
    105  OD2        2.9190    6.1820    6.5590 O.co2 219  ASP219     -0.2456
    106  N          3.1180    1.5440    6.1680 N.3   221  GLY221     -0.1210
    107  CA         1.8930    1.4930    6.9320 C.3   221  GLY221      0.1956
    108  C          0.7490    2.3440    6.3960 C.2   221  GLY221      0.2612
    109  O         -0.3160    2.3520    7.0060 O.2   221  GLY221     -0.2717
    110  N          0.9640    3.0390    5.2870 N.am  222  THR222     -0.1952
    111  CA        -0.0830    3.8220    4.6270 C.3   222  THR222      0.1897
    112  C         -0.4350    3.1350    3.3110 C.2   222  THR222      0.2313
    113  O          0.4630    2.7550    2.5670 O.2   222  THR222     -0.2863
    114  CB         0.3870    5.2650    4.4000 C.3   222  THR222      0.1794
    115  OG1        0.4690    5.9210    5.6650 O.3   222  THR222     -0.2208
    116  CG2       -0.5850    6.0450    3.5160 C.3   222  THR222      0.0378
@<TRIPOS>BOND
     1   113   112    2
     2   112   111    1
     3    98    99    1
     4   116   114    1
     5   101   100    2
     6   100    99    1
     7   114   111    1
     8   114   115    1
     9    99   102    1
    10   111   110    1
    11   102   103    1
    12   110   108   am
    13   106   107    1
    14   103   105   ar
    15   103   104   ar
    16   108   107    1
    17   108   109    2
    18     7     6   ar
    19    17    18    1
    20     8     6   ar
    21     6     5    1
    22    15    14   ar
    23    18    19    1
    24    47    44    1
    25    47    48    1
    26    89    87    1
    27    10    11    1
    28    10     9    1
    29    10    13    1
    30    11    12    2
    31    80    79   ar
    32    81    79   ar
    33    42    41    2
    34    79    78    1
    35    44    43    1
    36    44    45    1
    37    87    86    1
    38    50    48   ar
    39     2     5    1
    40     2     3    1
    41     2     1    1
    42    14    13    1
    43    14    16   ar
    44    41    43   am
    45    41    40    1
    46     3     4    2
    47    48    49   ar
    48    40    39    1
    49    19    20    2
    50    19    21   am
    51    46    45    2
    52    78    75    1
    53    75    76    1
    54    75    74    1
    55    86    83    1
    56    86    88    1
    57    21    22    1
    58    82    83    1
    59    39    29   am
    60    83    84    1
    61    76    77    2
    62    61    62    1
    63    61    58    1
    64    60    59    2
    65    29    30    2
    66    29    28    1
    67    22    25    1
    68    22    23    1
    69    24    23    2
    70    97    95    1
    71    58    59    1
    72    58    57    1
    73    31    28    1
    74    31    32    1
    75    95    96    1
    76    95    94    1
    77    26    25    1
    78    59    63   am
    79    56    55    1
    80    84    85    2
    81    28    27    1
    82    33    32   ar
    83    33    35   ar
    84    51    52    1
    85    32    34   ar
    86    55    52    1
    87    71    69   ar
    88    71    73   ar
    89    94    91    1
    90    91    92    1
    91    91    90    1
    92    35    37   ar
    93    69    68   ar
    94    63    64    1
    95    73    72   ar
    96    66    65    2
    97    52    53    1
    98    92    93    2
    99    34    36   ar
   100    64    65    1
   101    64    67    1
   102    37    36   ar
   103    37    38    1
   104    68    67    1
   105    68    70   ar
   106    72    70   ar
   107    54    53    2
