@<TRIPOS>MOLECULE
tmp/4y4mF01.pdb
 107 103 0 0 0
SMALL
GASTEIGER

@<TRIPOS>ATOM
      1  N         33.6660  -35.6080  -35.1210 N.3   183  VAL183     -0.1245
      2  CA        34.0950  -35.4800  -36.5190 C.3   183  VAL183      0.1561
      3  C         35.5850  -35.1320  -36.5710 C.2   183  VAL183      0.2260
      4  O         36.3360  -35.7180  -37.3610 O.2   183  VAL183     -0.2867
      5  CB        33.2850  -34.3950  -37.2800 C.3   183  VAL183      0.0252
      6  CG1       33.8380  -34.1740  -38.6770 C.3   183  VAL183      0.0019
      7  CG2       31.8220  -34.7840  -37.3870 C.3   183  VAL183      0.0019
      8  N         37.7400  -38.1870  -35.8590 N.3   186  LEU186     -0.1231
      9  CA        37.7550  -39.0660  -37.0170 C.3   186  LEU186      0.1693
     10  C         38.7920  -38.6170  -38.0340 C.2   186  LEU186      0.2591
     11  O         39.6340  -39.3970  -38.4590 O.2   186  LEU186     -0.2718
     12  CB        36.3860  -39.0790  -37.6660 C.3   186  LEU186      0.0284
     13  CG        36.2630  -39.9750  -38.8970 C.3   186  LEU186      0.0019
     14  CD1       36.2560  -41.4420  -38.5120 C.3   186  LEU186      0.0001
     15  CD2       34.9860  -39.6350  -39.6420 C.3   186  LEU186      0.0001
     16  N         38.7330  -37.3450  -38.3910 N.am  187  VAL187     -0.1980
     17  CA        39.6260  -36.7820  -39.3760 C.3   187  VAL187      0.1595
     18  C         41.0940  -36.7520  -38.9170 C.2   187  VAL187      0.2287
     19  O         41.9810  -37.1970  -39.6490 O.2   187  VAL187     -0.2864
     20  CB        39.1600  -35.3640  -39.7590 C.3   187  VAL187      0.0276
     21  CG1       40.2350  -34.6210  -40.5350 C.3   187  VAL187      0.0022
     22  CG2       37.8690  -35.4540  -40.5660 C.3   187  VAL187      0.0022
     23  N         42.4080  -38.6050  -42.4590 N.3   192  LEU192     -0.1245
     24  CA        41.5710  -38.4380  -43.6500 C.3   192  LEU192      0.1561
     25  C         41.9210  -37.1350  -44.3310 C.2   192  LEU192      0.2260
     26  O         42.1950  -36.1500  -43.6730 O.2   192  LEU192     -0.2867
     27  CB        40.0890  -38.4000  -43.3160 C.3   192  LEU192      0.0270
     28  CG        39.5040  -39.5600  -42.5300 C.3   192  LEU192      0.0019
     29  CD1       37.9910  -39.4190  -42.5240 C.3   192  LEU192      0.0001
     30  CD2       39.9100  -40.9200  -43.0850 C.3   192  LEU192      0.0001
     31  N         40.6790  -34.3310  -45.4830 N.3   194  ALA194     -0.1231
     32  CA        39.4990  -33.4730  -45.4210 C.3   194  ALA194      0.1694
     33  C         39.7070  -32.5460  -44.2650 C.2   194  ALA194      0.2592
     34  O         40.3210  -32.9420  -43.2870 O.2   194  ALA194     -0.2718
     35  CB        38.2340  -34.2820  -45.2160 C.3   194  ALA194      0.0304
     36  N         39.2270  -31.3140  -44.3900 N.am  195  ASP195     -0.1960
     37  CA        39.3430  -30.3190  -43.3240 C.3   195  ASP195      0.1840
     38  C         37.9770  -30.1690  -42.6650 C.2   195  ASP195      0.2622
     39  O         36.9640  -30.1370  -43.3550 O.2   195  ASP195     -0.2715
     40  CB        39.8110  -28.9630  -43.8890 C.3   195  ASP195      0.1450
     41  CG        40.3310  -28.0020  -42.8460 C.2   195  ASP195      0.3671
     42  OD1       40.4380  -28.3180  -41.6710 O.co2 195  ASP195     -0.2456
     43  OD2       40.7800  -26.9160  -43.2200 O.co2 195  ASP195     -0.2456
     44  N         37.9530  -30.1250  -41.3340 N.am  196  VAL196     -0.1964
     45  CA        36.7870  -29.6460  -40.5930 C.3   196  VAL196      0.1712
     46  C         37.0070  -28.1550  -40.4340 C.2   196  VAL196      0.2458
     47  O         37.7890  -27.7490  -39.6020 O.2   196  VAL196     -0.2730
     48  CB        36.6740  -30.2810  -39.2060 C.3   196  VAL196      0.0289
     49  CG1       35.4210  -29.7850  -38.4990 C.3   196  VAL196      0.0023
     50  CG2       36.6340  -31.7920  -39.3200 C.3   196  VAL196      0.0023
     51  N         36.3340  -27.3310  -41.2470 N.am  197  PRO197     -0.2727
     52  CA        36.6650  -25.9000  -41.2670 C.3   197  PRO197      0.1402
     53  C         36.3070  -25.1500  -39.9830 C.2   197  PRO197      0.2269
     54  O         37.0070  -24.2190  -39.6260 O.2   197  PRO197     -0.2865
     55  CB        35.8450  -25.3580  -42.4380 C.3   197  PRO197      0.0296
     56  CG        34.7430  -26.3260  -42.6350 C.3   197  PRO197      0.0237
     57  CD        35.1820  -27.6560  -42.1060 C.3   197  PRO197      0.0939
     58  N         23.4530  -34.1930  -41.8050 N.3   216  ARG216     -0.1245
     59  CA        23.5150  -35.3580  -42.6750 C.3   216  ARG216      0.1563
     60  C         24.5300  -36.3840  -42.2120 C.2   216  ARG216      0.2260
     61  O         25.2100  -36.1860  -41.2140 O.2   216  ARG216     -0.2867
     62  CB        23.8610  -34.9070  -44.0830 C.3   216  ARG216      0.0307
     63  CG        25.2310  -34.2780  -44.2080 C.3   216  ARG216      0.0489
     64  CD        25.4180  -33.6280  -45.5670 C.3   216  ARG216      0.2205
     65  NE        26.8350  -33.4160  -45.8190 N.pl3 216  ARG216     -0.0865
     66  CZ        27.6900  -34.3460  -46.2620 C.cat 216  ARG216      0.5346
     67  NH1       28.9790  -34.0440  -46.4220 N.pl3 216  ARG216      0.1354
     68  NH2       27.2760  -35.5740  -46.5510 N.pl3 216  ARG216      0.1354
     69  N         27.9500  -37.7770  -42.6030 N.3   218  VAL218     -0.1231
     70  CA        29.1720  -37.2130  -43.1760 C.3   218  VAL218      0.1692
     71  C         30.2400  -38.2570  -43.4390 C.2   218  VAL218      0.2592
     72  O         31.2030  -37.9930  -44.1520 O.2   218  VAL218     -0.2718
     73  CB        29.7830  -36.1220  -42.2870 C.3   218  VAL218      0.0266
     74  CG1       28.8180  -34.9490  -42.1630 C.3   218  VAL218      0.0020
     75  CG2       30.1740  -36.6750  -40.9160 C.3   218  VAL218      0.0020
     76  N         30.0640  -39.4350  -42.8640 N.am  219  TYR219     -0.1976
     77  CA        30.9770  -40.5240  -43.0880 C.3   219  TYR219      0.1639
     78  C         30.1660  -41.7510  -42.7110 C.2   219  TYR219      0.2290
     79  O         29.2480  -41.6410  -41.9390 O.2   219  TYR219     -0.2864
     80  CB        32.2240  -40.3090  -42.2160 C.3   219  TYR219      0.0560
     81  CG        33.2760  -41.3980  -42.2810 C.ar  219  TYR219     -0.0198
     82  CD1       33.1540  -42.5560  -41.5080 C.ar  219  TYR219     -0.0009
     83  CD2       34.4090  -41.2670  -43.1030 C.ar  219  TYR219     -0.0009
     84  CE1       34.1080  -43.5570  -41.5650 C.ar  219  TYR219      0.0417
     85  CE2       35.3750  -42.2730  -43.1590 C.ar  219  TYR219      0.0417
     86  CZ        35.2090  -43.4110  -42.3870 C.ar  219  TYR219      0.1957
     87  OH        36.1210  -44.4280  -42.4180 O.3   219  TYR219     -0.2866
     88  N         31.0810  -28.4440  -39.0670 N.3   232  SER232     -0.1202
     89  CA        31.6150  -29.4020  -40.0270 C.3   232  SER232      0.2020
     90  C         31.5730  -28.9310  -41.4720 C.2   232  SER232      0.2619
     91  O         32.3560  -29.4100  -42.2890 O.2   232  SER232     -0.2717
     92  CB        30.8340  -30.7000  -39.9580 C.3   232  SER232      0.2103
     93  OG        31.0990  -31.3420  -38.7380 O.3   232  SER232     -0.2182
     94  N         30.6500  -28.0330  -41.8020 N.am  233  HIS233     -0.1961
     95  CA        30.4540  -27.6230  -43.1890 C.3   233  HIS233      0.1787
     96  C         30.7440  -26.1490  -43.4000 C.2   233  HIS233      0.2620
     97  O         30.3760  -25.5730  -44.4220 O.2   233  HIS233     -0.2715
     98  CB        29.0380  -27.9790  -43.6380 C.3   233  HIS233      0.0785
     99  CG        28.7330  -29.4380  -43.5350 C.ar  233  HIS233      0.0821
    100  ND1       29.2820  -30.3740  -44.3790 N.ar  233  HIS233     -0.2267
    101  CD2       27.9330  -30.1260  -42.6890 C.ar  233  HIS233      0.1154
    102  CE1       28.8300  -31.5740  -44.0620 C.ar  233  HIS233      0.1986
    103  NE2       28.0090  -31.4510  -43.0400 N.ar  233  HIS233     -0.2212
    104  N         31.4050  -25.5370  -42.4320 N.am  234  GLY234     -0.1954
    105  CA        31.7620  -24.1220  -42.5300 C.3   234  GLY234      0.1869
    106  C         30.5850  -23.1680  -42.6010 C.2   234  GLY234      0.2309
    107  O         30.6850  -22.1180  -43.2330 O.2   234  GLY234     -0.2863
@<TRIPOS>BOND
     1    68    66    1
     2    67    66    1
     3    66    65    2
     4    65    64    1
     5    64    63    1
     6    31    32    1
     7    32    35    1
     8    32    33    1
     9    97    96    2
    10    36    33   am
    11    36    37    1
    12   100   102   ar
    13   100    99   ar
    14    25    26    2
    15    25    24    1
    16    33    34    2
    17    63    62    1
    18    72    71    2
    19    62    59    1
    20   102   103   ar
    21    40    37    1
    22    40    41    1
    23    24    27    1
    24    24    23    1
    25    98    99    1
    26    98    95    1
    27    99   101   ar
    28    71    70    1
    29    71    76   am
    30    96    95    1
    31    96   104   am
    32    39    38    2
    33    37    38    1
    34    27    28    1
    35   107   106    2
    36    43    41   ar
    37    95    94    1
    38    70    69    1
    39    70    73    1
    40    85    83   ar
    41    85    86   ar
    42    83    81   ar
    43    77    76    1
    44    77    78    1
    45    77    80    1
    46    30    28    1
    47   103   101   ar
    48    41    42   ar
    49    78    79    2
    50    59    60    1
    51    59    58    1
    52    38    44   am
    53    56    55    1
    54    56    57    1
    55   106   105    1
    56   105   104    1
    57    28    29    1
    58    55    52    1
    59    87    86    1
    60    86    84   ar
    61    91    90    2
    62    73    74    1
    63    73    75    1
    64    81    80    1
    65    81    82   ar
    66    60    61    2
    67    57    51    1
    68    94    90   am
    69    84    82   ar
    70    90    89    1
    71    44    45    1
    72    52    51    1
    73    52    53    1
    74    51    46   am
    75    45    46    1
    76    45    48    1
    77    22    20    1
    78    21    20    1
    79    46    47    2
    80    89    92    1
    81    89    88    1
    82    53    54    2
    83    92    93    1
    84    20    17    1
    85    19    18    2
    86    15    13    1
    87    17    18    1
    88    17    16    1
    89    50    48    1
    90    48    49    1
    91    13    14    1
    92    13    12    1
    93     6     5    1
    94    11    10    2
    95    16    10   am
    96    10     9    1
    97    12     9    1
    98     7     5    1
    99     4     3    2
   100     5     2    1
   101     9     8    1
   102     3     2    1
   103     2     1    1
