@<TRIPOS>MOLECULE
tmp/4y4tA01.pdb
 115 106 0 0 0
SMALL
GASTEIGER

@<TRIPOS>ATOM
      1  N         29.2130   -6.2460   61.1770 N.3    33  ASP33      -0.1239
      2  CA        29.3430   -5.2750   60.0970 C.3    33  ASP33       0.1674
      3  C         30.6940   -4.5640   60.2410 C.2    33  ASP33       0.2266
      4  O         30.8780   -3.7410   61.1390 O.2    33  ASP33      -0.2867
      5  CB        28.1830   -4.2920   60.2480 C.3    33  ASP33       0.1410
      6  CG        28.0520   -3.3080   59.1190 C.2    33  ASP33       0.3668
      7  OD1       28.9410   -3.1970   58.2510 O.co2  33  ASP33      -0.2456
      8  OD2       27.0080   -2.5980   59.1200 O.co2  33  ASP33      -0.2456
      9  N         33.2190   -1.8790   59.6100 N.3    35  ASP35      -0.1239
     10  CA        32.9030   -0.4890   59.3340 C.3    35  ASP35       0.1674
     11  C         34.1400    0.4060   59.4030 C.2    35  ASP35       0.2266
     12  O         34.5640    0.7990   60.4860 O.2    35  ASP35      -0.2867
     13  CB        31.8650   -0.0120   60.3570 C.3    35  ASP35       0.1410
     14  CG        31.3980    1.4040   60.1010 C.2    35  ASP35       0.3668
     15  OD1       31.7480    1.9770   59.0480 O.co2  35  ASP35      -0.2456
     16  OD2       30.6670    1.9270   60.9710 O.co2  35  ASP35      -0.2456
     17  N         34.2080    3.3840   58.7580 N.3    37  GLY37      -0.1225
     18  CA        33.7290    4.6900   59.1820 C.3    37  GLY37       0.1811
     19  C         33.4610    4.8660   60.6680 C.2    37  GLY37       0.2280
     20  O         32.9470    5.9170   61.0710 O.2    37  GLY37      -0.2866
     21  N         25.4990    7.3660   65.4690 N.3    79  TYR79      -0.1227
     22  CA        25.9750    7.3800   64.0980 C.3    79  TYR79       0.1736
     23  C         25.3310    8.5390   63.3340 C.2    79  TYR79       0.2596
     24  O         24.2680    9.0450   63.7190 O.2    79  TYR79      -0.2718
     25  CB        25.6960    6.0360   63.4230 C.3    79  TYR79       0.0548
     26  CG        26.4420    4.8660   64.0470 C.ar   79  TYR79      -0.0200
     27  CD1       25.8380    4.0480   64.9810 C.ar   79  TYR79      -0.0009
     28  CD2       27.7550    4.5940   63.6960 C.ar   79  TYR79      -0.0009
     29  CE1       26.5170    2.9770   65.5490 C.ar   79  TYR79       0.0417
     30  CE2       28.4590    3.5260   64.2640 C.ar   79  TYR79       0.0417
     31  CZ        27.8240    2.7180   65.1890 C.ar   79  TYR79       0.1957
     32  OH        28.4740    1.6490   65.7870 O.3    79  TYR79      -0.2866
     33  N         25.9840    8.9660   62.2580 N.am   80  GLY80      -0.1942
     34  CA        25.4970   10.0800   61.4620 C.3    80  GLY80       0.2014
     35  C         24.0680    9.9250   60.9750 C.2    80  GLY80       0.2638
     36  O         23.3620   10.9170   60.8010 O.2    80  GLY80      -0.2714
     37  N         23.6320    8.6880   60.7580 N.am   81  ASP81      -0.1971
     38  CA        22.2930    8.4330   60.2280 C.3    81  ASP81       0.1709
     39  C         21.2130    8.3760   61.3070 C.2    81  ASP81       0.2293
     40  O         20.0420    8.1190   61.0230 O.2    81  ASP81      -0.2864
     41  CB        22.2700    7.1600   59.3750 C.3    81  ASP81       0.1436
     42  CG        22.4540    5.8830   60.1850 C.2    81  ASP81       0.3671
     43  OD1       22.5840    5.9250   61.4260 O.co2  81  ASP81      -0.2456
     44  OD2       22.4500    4.8050   59.5620 O.co2  81  ASP81      -0.2456
     45  N         21.1400    6.3590   64.0020 N.3    83  SER83      -0.1217
     46  CA        21.1790    5.1320   64.7910 C.3    83  SER83       0.1889
     47  C         22.0970    5.3040   65.9920 C.2    83  SER83       0.2288
     48  O         22.9880    6.1650   65.9850 O.2    83  SER83      -0.2866
     49  CB        21.6790    3.9620   63.9460 C.3    83  SER83       0.2089
     50  OG        20.8520    3.7550   62.8210 O.3    83  SER83      -0.2183
     51  N         18.8340   -1.0520   64.5010 N.3   116  PHE116     -0.1241
     52  CA        19.6570   -2.2110   64.8040 C.3   116  PHE116      0.1605
     53  C         18.7650   -3.4080   65.1490 C.2   116  PHE116      0.2264
     54  O         18.9640   -4.5080   64.6430 O.2   116  PHE116     -0.2867
     55  CB        20.6460   -1.9010   65.9240 C.3   116  PHE116      0.0534
     56  CG        21.7520   -0.9680   65.5090 C.ar  116  PHE116     -0.0203
     57  CD1       22.6050   -1.3090   64.4770 C.ar  116  PHE116     -0.0042
     58  CD2       21.9240    0.2520   66.1310 C.ar  116  PHE116     -0.0042
     59  CE1       23.6140   -0.4620   64.0780 C.ar  116  PHE116     -0.0003
     60  CE2       22.9450    1.1020   65.7410 C.ar  116  PHE116     -0.0003
     61  CZ        23.7900    0.7430   64.7130 C.ar  116  PHE116     -0.0000
     62  N         28.9130   -4.4460   65.2610 N.3   125  LEU125     -0.1245
     63  CA        29.8040   -3.6540   64.4310 C.3   125  LEU125      0.1561
     64  C         31.2430   -3.9610   64.8000 C.2   125  LEU125      0.2260
     65  O         31.5460   -4.1650   65.9740 O.2   125  LEU125     -0.2867
     66  CB        29.5650   -2.1640   64.6880 C.3   125  LEU125      0.0270
     67  CG        28.4960   -1.4720   63.8540 C.3   125  LEU125      0.0019
     68  CD1       29.0350   -1.2340   62.4830 C.3   125  LEU125      0.0001
     69  CD2       27.2010   -2.2630   63.7640 C.3   125  LEU125      0.0001
     70  N         38.9310    9.4510   60.2680 N.3   194  PHE194     -0.1241
     71  CA        38.4530    8.6290   59.1560 C.3   194  PHE194      0.1605
     72  C         39.5760    8.3510   58.1650 C.2   194  PHE194      0.2264
     73  O         40.6220    9.0040   58.1830 O.2   194  PHE194     -0.2867
     74  CB        37.3300    9.3520   58.3920 C.3   194  PHE194      0.0534
     75  CG        36.1270    9.6900   59.2160 C.ar  194  PHE194     -0.0203
     76  CD1       35.7120   11.0020   59.3340 C.ar  194  PHE194     -0.0042
     77  CD2       35.3650    8.7020   59.7980 C.ar  194  PHE194     -0.0042
     78  CE1       34.5760   11.3260   60.0620 C.ar  194  PHE194     -0.0003
     79  CE2       34.2380    9.0070   60.5320 C.ar  194  PHE194     -0.0003
     80  CZ        33.8410   10.3250   60.6660 C.ar  194  PHE194     -0.0000
     81  N         35.3830   10.1820   52.5810 N.3   217  ILE217     -0.1245
     82  CA        35.8620    9.0880   53.4070 C.3   217  ILE217      0.1561
     83  C         35.5500    7.7310   52.7870 C.2   217  ILE217      0.2260
     84  O         34.5070    7.5540   52.1710 O.2   217  ILE217     -0.2867
     85  CB        35.3570    9.1870   54.8520 C.3   217  ILE217      0.0252
     86  CG1       33.8420    9.0220   54.9530 C.3   217  ILE217      0.0019
     87  CG2       35.8060   10.5120   55.4510 C.3   217  ILE217      0.0019
     88  CD1       33.3540    8.8210   56.3750 C.3   217  ILE217      0.0001
     89  N         34.2720    4.3400   53.4880 N.3   219  ASP219     -0.1239
     90  CA        33.4000    3.9810   54.5990 C.3   219  ASP219      0.1674
     91  C         32.5800    2.7300   54.2620 C.2   219  ASP219      0.2266
     92  O         31.5110    2.8020   53.6520 O.2   219  ASP219     -0.2867
     93  CB        32.5010    5.1900   54.8860 C.3   219  ASP219      0.1410
     94  CG        31.5720    5.0060   56.0790 C.2   219  ASP219      0.3668
     95  OD1       30.8290    5.9800   56.3290 O.co2 219  ASP219     -0.2456
     96  OD2       31.5340    3.9360   56.7310 O.co2 219  ASP219     -0.2456
     97  N         30.8730    0.9600   56.1160 N.3   221  GLY221     -0.1210
     98  CA        29.6270    0.8790   56.8660 C.3   221  GLY221      0.1956
     99  C         28.4640    1.7020   56.3400 C.2   221  GLY221      0.2612
    100  O         27.3830    1.6860   56.9320 O.2   221  GLY221     -0.2717
    101  N         28.6940    2.4100   55.2330 N.am  222  THR222     -0.1952
    102  CA        27.6780    3.1860   54.5490 C.3   222  THR222      0.1897
    103  C         27.3670    2.4570   53.2340 C.2   222  THR222      0.2313
    104  O         28.2660    2.0690   52.5030 O.2   222  THR222     -0.2863
    105  CB        28.1670    4.6480   54.2770 C.3   222  THR222      0.1794
    106  OG1       28.2630    5.3630   55.5140 O.3   222  THR222     -0.2208
    107  CG2       27.2190    5.4010   53.3760 C.3   222  THR222      0.0378
    108  N         30.9790   10.7240   51.1620 N.3   304  ILE304     -0.1245
    109  CA        31.1700    9.3590   51.6450 C.3   304  ILE304      0.1561
    110  C         31.2510    8.3850   50.4800 C.2   304  ILE304      0.2260
    111  O         30.2610    8.1850   49.7500 O.2   304  ILE304     -0.2867
    112  CB        30.0430    8.9080   52.6100 C.3   304  ILE304      0.0252
    113  CG1       29.9150    9.8850   53.7820 C.3   304  ILE304      0.0019
    114  CG2       30.3530    7.5080   53.1320 C.3   304  ILE304      0.0019
    115  CD1       28.7840    9.5500   54.7450 C.3   304  ILE304      0.0001
@<TRIPOS>BOND
     1   111   110    2
     2   110   109    1
     3   108   109    1
     4   109   112    1
     5    84    83    2
     6   104   103    2
     7    81    82    1
     8   112   114    1
     9   112   113    1
    10    83    82    1
    11   103   102    1
    12   107   105    1
    13    82    85    1
    14    89    90    1
    15    92    91    2
    16   113   115    1
    17    91    90    1
    18   105   102    1
    19   105   106    1
    20   102   101    1
    21    90    93    1
    22    85    86    1
    23    85    87    1
    24    93    94    1
    25    86    88    1
    26   101    99   am
    27    94    95   ar
    28    94    96   ar
    29    97    98    1
    30    99    98    1
    31    99   100    2
    32    72    73    2
    33    72    71    1
    34     7     6   ar
    35    74    71    1
    36    74    75    1
    37    17    18    1
    38    15    14   ar
    39     6     8   ar
    40     6     5    1
    41    71    70    1
    42    18    19    1
    43    75    76   ar
    44    75    77   ar
    45    76    78   ar
    46    10    11    1
    47    10     9    1
    48    10    13    1
    49    41    42    1
    50    41    38    1
    51    11    12    2
    52    44    42   ar
    53    77    79   ar
    54    78    80   ar
    55     2     3    1
    56     2     5    1
    57     2     1    1
    58    14    13    1
    59    14    16   ar
    60    42    43   ar
    61    38    37    1
    62    38    39    1
    63     3     4    2
    64    79    80   ar
    65    19    20    2
    66    37    35   am
    67    36    35    2
    68    35    34    1
    69    40    39    2
    70    34    33    1
    71    33    23   am
    72    68    67    1
    73    50    49    1
    74    23    24    2
    75    23    22    1
    76    25    26    1
    77    25    22    1
    78    28    26   ar
    79    28    30   ar
    80    69    67    1
    81    67    66    1
    82    49    46    1
    83    45    46    1
    84    26    27   ar
    85    59    57   ar
    86    59    61   ar
    87    22    21    1
    88    30    31   ar
    89    63    66    1
    90    63    64    1
    91    63    62    1
    92    57    56   ar
    93    51    52    1
    94    54    53    2
    95    61    60   ar
    96    46    47    1
    97    64    65    2
    98    52    53    1
    99    52    55    1
   100    27    29   ar
   101    31    29   ar
   102    31    32    1
   103    56    55    1
   104    56    58   ar
   105    60    58   ar
   106    48    47    2
