@<TRIPOS>MOLECULE
tmp/4y4uA02.pdb
 97 89 0 0 0
SMALL
GASTEIGER

@<TRIPOS>ATOM
      1  N         24.7110   -8.4190   53.3500 N.3    10  ILE10      -0.1231
      2  CA        23.6370   -8.8400   54.2410 C.3    10  ILE10       0.1692
      3  C         22.3330   -9.0290   53.4880 C.2    10  ILE10       0.2592
      4  O         21.4160   -9.6830   53.9860 O.2    10  ILE10      -0.2718
      5  CB        23.4120   -7.8370   55.3870 C.3    10  ILE10       0.0266
      6  CG1       23.0190   -6.4590   54.8310 C.3    10  ILE10       0.0019
      7  CG2       24.6690   -7.7280   56.2230 C.3    10  ILE10       0.0020
      8  CD1       22.3610   -5.5430   55.8640 C.3    10  ILE10       0.0001
      9  N         22.2510   -8.4510   52.2960 N.am   11  ASP11      -0.1974
     10  CA        21.0610   -8.5940   51.4650 C.3    11  ASP11       0.1709
     11  C         21.3840   -8.4580   49.9880 C.2    11  ASP11       0.2293
     12  O         22.5460   -8.3100   49.6070 O.2    11  ASP11      -0.2864
     13  CB        19.9820   -7.5790   51.8800 C.3    11  ASP11       0.1436
     14  CG        20.4440   -6.1280   51.7870 C.2    11  ASP11       0.3671
     15  OD1       21.3330   -5.7930   50.9670 O.co2  11  ASP11      -0.2456
     16  OD2       19.8960   -5.3090   52.5540 O.co2  11  ASP11      -0.2456
     17  N         23.5260   -3.7180   51.0270 N.3    15  ASP15      -0.1225
     18  CA        23.3310   -2.5820   51.9350 C.3    15  ASP15       0.1805
     19  C         24.4740   -2.4850   52.9510 C.2    15  ASP15       0.2597
     20  O         24.8210   -1.3950   53.4090 O.2    15  ASP15      -0.2718
     21  CB        21.9810   -2.6840   52.6500 C.3    15  ASP15       0.1424
     22  CG        20.8300   -2.2340   51.7720 C.2    15  ASP15       0.3668
     23  OD1       21.0150   -1.2500   51.0260 O.co2  15  ASP15      -0.2456
     24  OD2       19.7410   -2.8560   51.8170 O.co2  15  ASP15      -0.2456
     25  N         25.0630   -3.6300   53.2750 N.am   16  ALA16      -0.1979
     26  CA        26.2090   -3.7010   54.1770 C.3    16  ALA16       0.1597
     27  C         26.8550   -5.0580   54.0160 C.2    16  ALA16       0.2287
     28  O         26.2970   -5.9390   53.3600 O.2    16  ALA16      -0.2864
     29  CB        25.7980   -3.4850   55.6200 C.3    16  ALA16       0.0319
     30  N         30.0330   -5.8080   61.2780 N.3    33  ASP33      -0.1239
     31  CA        30.1310   -4.8770   60.1640 C.3    33  ASP33       0.1674
     32  C         31.4600   -4.1310   60.2570 C.2    33  ASP33       0.2266
     33  O         31.5870   -3.2390   61.0880 O.2    33  ASP33      -0.2867
     34  CB        28.9330   -3.9110   60.2350 C.3    33  ASP33       0.1410
     35  CG        28.8500   -2.9500   59.0710 C.2    33  ASP33       0.3668
     36  OD1       29.7910   -2.8770   58.2600 O.co2  33  ASP33      -0.2456
     37  OD2       27.8130   -2.2420   58.9880 O.co2  33  ASP33      -0.2456
     38  N         24.1000    8.1720   60.2920 N.3    81  ASP81      -0.1239
     39  CA        22.7560    7.8510   59.8190 C.3    81  ASP81       0.1674
     40  C         21.6920    8.0810   60.8930 C.2    81  ASP81       0.2266
     41  O         20.5050    7.8600   60.6590 O.2    81  ASP81      -0.2867
     42  CB        22.6970    6.4050   59.3230 C.3    81  ASP81       0.1410
     43  CG        22.9410    5.3910   60.4270 C.2    81  ASP81       0.3668
     44  OD1       23.4460    5.7770   61.5050 O.co2  81  ASP81      -0.2456
     45  OD2       22.6340    4.2000   60.2090 O.co2  81  ASP81      -0.2456
     46  N         17.4530    1.0700   64.7010 N.3   115  SER115     -0.1217
     47  CA        17.9370    0.6150   63.3970 C.3   115  SER115      0.1889
     48  C         18.8250   -0.6190   63.5230 C.2   115  SER115      0.2288
     49  O         18.8540   -1.4670   62.6230 O.2   115  SER115     -0.2866
     50  CB        18.6980    1.7230   62.6750 C.3   115  SER115      0.2089
     51  OG        19.8920    2.0380   63.3570 O.3   115  SER115     -0.2183
     52  N         17.8920   -4.7820   62.2740 N.3   119  ASP119     -0.1239
     53  CA        18.7430   -5.5250   61.3600 C.3   119  ASP119      0.1674
     54  C         19.2880   -6.7730   62.0410 C.2   119  ASP119      0.2266
     55  O         20.3110   -6.7200   62.7240 O.2   119  ASP119     -0.2867
     56  CB        19.8910   -4.6670   60.8590 C.3   119  ASP119      0.1410
     57  CG        20.6140   -5.3010   59.6860 C.2   119  ASP119      0.3668
     58  OD1       20.3180   -6.4750   59.3570 O.co2 119  ASP119     -0.2456
     59  OD2       21.4770   -4.6270   59.0940 O.co2 119  ASP119     -0.2456
     60  N         23.2750   -8.0840   61.5490 N.3   122  ILE122     -0.1245
     61  CA        24.4920   -7.4380   62.0220 C.3   122  ILE122      0.1561
     62  C         24.5700   -7.5080   63.5470 C.2   122  ILE122      0.2260
     63  O         23.7370   -6.9340   64.2460 O.2   122  ILE122     -0.2867
     64  CB        24.5650   -5.9760   61.5190 C.3   122  ILE122      0.0252
     65  CG1       24.7340   -5.9770   59.9960 C.3   122  ILE122      0.0019
     66  CG2       25.7220   -5.2220   62.2110 C.3   122  ILE122      0.0019
     67  CD1       24.6380   -4.6180   59.3360 C.3   122  ILE122      0.0001
     68  N         31.6960    1.3340   56.0020 N.3   221  GLY221     -0.1210
     69  CA        30.4990    1.2590   56.8210 C.3   221  GLY221      0.1956
     70  C         29.3230    2.0630   56.2850 C.2   221  GLY221      0.2613
     71  O         28.2410    2.0660   56.8830 O.2   221  GLY221     -0.2717
     72  N         29.5380    2.7420   55.1680 N.am  222  THR222     -0.1938
     73  CA        28.4870    3.5350   54.5230 C.3   222  THR222      0.2028
     74  C         28.1460    2.8600   53.2010 C.2   222  THR222      0.2642
     75  O         29.0410    2.4940   52.4360 O.2   222  THR222     -0.2714
     76  CB        28.9360    4.9950   54.2850 C.3   222  THR222      0.1808
     77  OG1       29.0440    5.6700   55.5420 O.3   222  THR222     -0.2208
     78  CG2       27.9270    5.7580   53.4190 C.3   222  THR222      0.0379
     79  N         26.8580    2.6940   52.9320 N.am  223  THR223     -0.1950
     80  CA        26.4320    1.9720   51.7350 C.3   223  THR223      0.1897
     81  C         26.7270    2.6980   50.4250 C.2   223  THR223      0.2313
     82  O         27.2300    2.0890   49.4740 O.2   223  THR223     -0.2863
     83  CB        24.9240    1.6870   51.7630 C.3   223  THR223      0.1794
     84  OG1       24.5700    1.0810   53.0080 O.3   223  THR223     -0.2208
     85  CG2       24.5330    0.7540   50.6120 C.3   223  THR223      0.0378
     86  N         28.5350    9.4110   48.4660 N.3   226  TYR226     -0.1241
     87  CA        28.0280   10.7620   48.7290 C.3   226  TYR226      0.1605
     88  C         29.0350   11.8110   48.2850 C.2   226  TYR226      0.2264
     89  O         30.1480   11.8810   48.8090 O.2   226  TYR226     -0.2867
     90  CB        27.6990   10.9550   50.2090 C.3   226  TYR226      0.0534
     91  CG        26.5620   10.0800   50.6870 C.ar  226  TYR226     -0.0201
     92  CD1       25.2480   10.5130   50.6160 C.ar  226  TYR226     -0.0009
     93  CD2       26.8140    8.8140   51.1890 C.ar  226  TYR226     -0.0009
     94  CE1       24.2070    9.7040   51.0400 C.ar  226  TYR226      0.0417
     95  CE2       25.7890    7.9960   51.6080 C.ar  226  TYR226      0.0417
     96  CZ        24.4900    8.4460   51.5460 C.ar  226  TYR226      0.1957
     97  OH        23.4740    7.6150   51.9680 O.3   226  TYR226     -0.2866
@<TRIPOS>BOND
     1    88    87    1
     2    88    89    2
     3    86    87    1
     4    87    90    1
     5    82    81    2
     6    12    11    2
     7    11    10    1
     8    90    91    1
     9    81    80    1
    10    85    83    1
    11    92    91   ar
    12    92    94   ar
    13    91    93   ar
    14    15    14   ar
    15    23    22   ar
    16    17    18    1
    17    94    96   ar
    18    93    95   ar
    19    10    13    1
    20    10     9    1
    21    96    95   ar
    22    96    97    1
    23    80    83    1
    24    80    79    1
    25    83    84    1
    26    22    24   ar
    27    22    21    1
    28    14    13    1
    29    14    16   ar
    30    18    21    1
    31    18    19    1
    32     9     3   am
    33    75    74    2
    34    79    74   am
    35    19    25   am
    36    19    20    2
    37    74    73    1
    38    25    26    1
    39     1     2    1
    40    28    27    2
    41    78    76    1
    42     3     4    2
    43     3     2    1
    44    27    26    1
    45    26    29    1
    46     2     5    1
    47    76    73    1
    48    76    77    1
    49    73    72    1
    50     6     5    1
    51     6     8    1
    52    72    70   am
    53     5     7    1
    54    68    69    1
    55    70    69    1
    56    70    71    2
    57    36    35   ar
    58    37    35   ar
    59    35    34    1
    60    59    57   ar
    61    42    39    1
    62    42    43    1
    63    67    65    1
    64    58    57   ar
    65    57    56    1
    66    39    38    1
    67    39    40    1
    68    65    64    1
    69    31    34    1
    70    31    32    1
    71    31    30    1
    72    45    43   ar
    73    32    33    2
    74    43    44   ar
    75    41    40    2
    76    56    53    1
    77    53    54    1
    78    53    52    1
    79    64    61    1
    80    64    66    1
    81    60    61    1
    82    61    62    1
    83    54    55    2
    84    49    48    2
    85    50    51    1
    86    50    47    1
    87    47    48    1
    88    47    46    1
    89    62    63    2
