@<TRIPOS>MOLECULE
tmp/4y4wA02.pdb
 106 98 0 0 0
SMALL
GASTEIGER

@<TRIPOS>ATOM
      1  N        -16.0530   -6.2180   60.9570 N.3    33  ASP33      -0.1239
      2  CA       -15.9320   -5.2900   59.8440 C.3    33  ASP33       0.1674
      3  C        -14.6050   -4.5420   59.9960 C.2    33  ASP33       0.2266
      4  O        -14.4560   -3.7050   60.9020 O.2    33  ASP33      -0.2867
      5  CB       -17.1460   -4.3510   59.8990 C.3    33  ASP33       0.1410
      6  CG       -17.2240   -3.3770   58.7490 C.2    33  ASP33       0.3668
      7  OD1      -16.2710   -3.2700   57.9600 O.co2  33  ASP33      -0.2456
      8  OD2      -18.2630   -2.6630   58.6680 O.co2  33  ASP33      -0.2456
      9  N        -12.1410   -1.8120   59.3890 N.3    35  ASP35      -0.1239
     10  CA       -12.4920   -0.4210   59.1200 C.3    35  ASP35       0.1674
     11  C        -11.2490    0.4610   59.1650 C.2    35  ASP35       0.2266
     12  O        -10.7980    0.8320   60.2510 O.2    35  ASP35      -0.2867
     13  CB       -13.5110    0.0490   60.1660 C.3    35  ASP35       0.1410
     14  CG       -13.9310    1.4890   59.9860 C.2    35  ASP35       0.3668
     15  OD1      -13.6180    2.0970   58.9330 O.co2  35  ASP35      -0.2456
     16  OD2      -14.5800    2.0450   60.9090 O.co2  35  ASP35      -0.2456
     17  N        -20.1450    6.9040   64.5570 N.3    79  TYR79      -0.1227
     18  CA       -19.7180    6.7540   63.1740 C.3    79  TYR79       0.1736
     19  C        -20.4490    7.7420   62.2790 C.2    79  TYR79       0.2596
     20  O        -21.3380    8.4610   62.7340 O.2    79  TYR79      -0.2718
     21  CB       -19.9570    5.3200   62.7140 C.3    79  TYR79       0.0548
     22  CG       -19.1300    4.3230   63.4860 C.ar   79  TYR79      -0.0200
     23  CD1      -19.6700    3.6010   64.5390 C.ar   79  TYR79      -0.0009
     24  CD2      -17.7830    4.1300   63.1900 C.ar   79  TYR79      -0.0009
     25  CE1      -18.9090    2.7070   65.2650 C.ar   79  TYR79       0.0417
     26  CE2      -17.0130    3.2360   63.9020 C.ar   79  TYR79       0.0417
     27  CZ       -17.5760    2.5120   64.9430 C.ar   79  TYR79       0.1957
     28  OH       -16.8420    1.6350   65.6900 O.3    79  TYR79      -0.2866
     29  N        -20.0730    7.7550   61.0040 N.am   80  GLY80      -0.1942
     30  CA       -20.5480    8.7530   60.0580 C.3    80  GLY80       0.2014
     31  C        -22.0290    8.7080   59.7190 C.2    80  GLY80       0.2638
     32  O        -22.5780    9.6930   59.2120 O.2    80  GLY80      -0.2714
     33  N        -22.6780    7.5760   59.9840 N.am   81  ASP81      -0.1971
     34  CA       -24.1090    7.4380   59.7180 C.3    81  ASP81       0.1709
     35  C        -24.9440    7.6870   60.9760 C.2    81  ASP81       0.2293
     36  O        -26.1570    7.4800   60.9720 O.2    81  ASP81      -0.2864
     37  CB       -24.4170    6.0500   59.1510 C.3    81  ASP81       0.1436
     38  CG       -24.0430    4.9370   60.1070 C.2    81  ASP81       0.3671
     39  OD1      -23.2370    5.2010   61.0110 O.co2  81  ASP81      -0.2456
     40  OD2      -24.5540    3.8040   59.9600 O.co2  81  ASP81      -0.2456
     41  N        -24.5950    6.1110   63.7990 N.3    83  SER83      -0.1217
     42  CA       -24.6100    4.9100   64.6240 C.3    83  SER83       0.1889
     43  C        -23.5270    5.0470   65.6930 C.2    83  SER83       0.2288
     44  O        -22.6640    5.9110   65.5960 O.2    83  SER83      -0.2866
     45  CB       -24.3860    3.6700   63.7690 C.3    83  SER83       0.2089
     46  OG       -23.0760    3.6390   63.2260 O.3    83  SER83      -0.2183
     47  N        -28.8910    0.4550   64.3770 N.3   115  SER115     -0.1202
     48  CA       -28.3620    0.0060   63.0980 C.3   115  SER115      0.2020
     49  C        -27.5010   -1.2320   63.3040 C.2   115  SER115      0.2618
     50  O        -27.5430   -2.1630   62.5020 O.2   115  SER115     -0.2717
     51  CB       -27.5530    1.1160   62.4250 C.3   115  SER115      0.2103
     52  OG       -26.5250    1.5780   63.2750 O.3   115  SER115     -0.2182
     53  N        -26.7330   -1.2450   64.3910 N.am  116  PHE116     -0.1975
     54  CA       -25.8730   -2.3790   64.6940 C.3   116  PHE116      0.1639
     55  C        -26.7220   -3.5910   65.0710 C.2   116  PHE116      0.2290
     56  O        -26.5230   -4.6940   64.5460 O.2   116  PHE116     -0.2864
     57  CB       -24.8500   -2.0280   65.7810 C.3   116  PHE116      0.0560
     58  CG       -23.7190   -1.1750   65.2860 C.ar  116  PHE116     -0.0200
     59  CD1      -22.8140   -1.6720   64.3800 C.ar  116  PHE116     -0.0042
     60  CD2      -23.5720    0.1310   65.7110 C.ar  116  PHE116     -0.0042
     61  CE1      -21.7840   -0.8950   63.9070 C.ar  116  PHE116     -0.0003
     62  CE2      -22.5400    0.9180   65.2450 C.ar  116  PHE116     -0.0003
     63  CZ       -21.6410    0.4050   64.3390 C.ar  116  PHE116     -0.0000
     64  N        -28.3210   -5.3740   62.0760 N.3   119  ASP119     -0.1239
     65  CA       -27.4530   -6.0820   61.1530 C.3   119  ASP119      0.1674
     66  C        -26.8380   -7.2910   61.8400 C.2   119  ASP119      0.2266
     67  O        -25.8180   -7.1820   62.5060 O.2   119  ASP119     -0.2867
     68  CB       -26.3740   -5.1590   60.6550 C.3   119  ASP119      0.1410
     69  CG       -25.4490   -5.8370   59.6970 C.2   119  ASP119      0.3668
     70  OD1      -25.7410   -6.9850   59.2990 O.co2 119  ASP119     -0.2456
     71  OD2      -24.4400   -5.2150   59.3400 O.co2 119  ASP119     -0.2456
     72  N        -22.7780   -8.5510   61.3120 N.3   122  ILE122     -0.1245
     73  CA       -21.5790   -7.8750   61.7960 C.3   122  ILE122      0.1561
     74  C        -21.5020   -7.9880   63.3110 C.2   122  ILE122      0.2260
     75  O        -22.3860   -7.4860   64.0350 O.2   122  ILE122     -0.2867
     76  CB       -21.5740   -6.4180   61.3230 C.3   122  ILE122      0.0252
     77  CG1      -21.3170   -6.3820   59.8140 C.3   122  ILE122      0.0019
     78  CG2      -20.5020   -5.6010   62.0720 C.3   122  ILE122      0.0019
     79  CD1      -21.3360   -4.9920   59.1910 C.3   122  ILE122      0.0001
     80  N        -16.3850   -4.4000   65.0490 N.3   125  LEU125     -0.1245
     81  CA       -15.4850   -3.6790   64.1530 C.3   125  LEU125      0.1561
     82  C        -14.0440   -3.9190   64.5620 C.2   125  LEU125      0.2260
     83  O        -13.7450   -4.1170   65.7360 O.2   125  LEU125     -0.2867
     84  CB       -15.7620   -2.1640   64.1900 C.3   125  LEU125      0.0270
     85  CG       -16.6760   -1.7120   63.0390 C.3   125  LEU125      0.0019
     86  CD1      -18.1070   -2.2670   63.2010 C.3   125  LEU125      0.0001
     87  CD2      -16.6840   -0.2100   62.8700 C.3   125  LEU125      0.0001
     88  N        -10.9120    4.3020   53.0290 N.3   219  ASP219     -0.1239
     89  CA       -11.7840    3.8510   54.1100 C.3   219  ASP219      0.1674
     90  C        -12.5620    2.5880   53.7630 C.2   219  ASP219      0.2266
     91  O        -13.6140    2.6360   53.1290 O.2   219  ASP219     -0.2867
     92  CB       -12.7600    4.9580   54.4620 C.3   219  ASP219      0.1410
     93  CG       -13.6010    4.6310   55.6750 C.2   219  ASP219      0.3668
     94  OD1      -14.4530    5.4690   56.0260 O.co2 219  ASP219     -0.2456
     95  OD2      -13.4080    3.5500   56.2830 O.co2 219  ASP219     -0.2456
     96  N        -14.2930    0.9490   55.7210 N.3   221  GLY221     -0.1210
     97  CA       -15.4830    0.8830   56.5580 C.3   221  GLY221      0.1956
     98  C        -16.6340    1.7260   56.0500 C.2   221  GLY221      0.2612
     99  O        -17.6890    1.7460   56.6650 O.2   221  GLY221     -0.2717
    100  N        -16.4290    2.3980   54.9230 N.am  222  THR222     -0.1952
    101  CA       -17.4880    3.1510   54.2600 C.3   222  THR222      0.1897
    102  C        -17.8400    2.4590   52.9510 C.2   222  THR222      0.2313
    103  O        -16.9480    2.0660   52.1920 O.2   222  THR222     -0.2863
    104  CB       -17.0400    4.5840   53.9970 C.3   222  THR222      0.1794
    105  OG1      -16.9010    5.2730   55.2480 O.3   222  THR222     -0.2208
    106  CG2      -18.0420    5.3290   53.1260 C.3   222  THR222      0.0378
@<TRIPOS>BOND
     1   103   102    2
     2   102   101    1
     3    88    89    1
     4   106   104    1
     5    91    90    2
     6    90    89    1
     7   104   101    1
     8   104   105    1
     9    89    92    1
    10   101   100    1
    11    92    93    1
    12   100    98   am
    13    93    94   ar
    14    93    95   ar
    15    96    97    1
    16    98    97    1
    17    98    99    2
    18     7     6   ar
    19     8     6   ar
    20     6     5    1
    21    15    14   ar
    22    10    11    1
    23    10     9    1
    24    10    13    1
    25    37    34    1
    26    37    38    1
    27    11    12    2
    28    79    77    1
    29    32    31    2
    30    70    69   ar
    31    71    69   ar
    32    69    68    1
    33    34    33    1
    34    34    35    1
    35    31    33   am
    36    31    30    1
    37    77    76    1
    38     2     5    1
    39     2     3    1
    40     2     1    1
    41    40    38   ar
    42    14    13    1
    43    14    16   ar
    44     3     4    2
    45    30    29    1
    46    38    39   ar
    47    68    65    1
    48    36    35    2
    49    29    19   am
    50    65    66    1
    51    65    64    1
    52    72    73    1
    53    76    73    1
    54    76    78    1
    55    73    74    1
    56    66    67    2
    57    19    20    2
    58    19    18    1
    59    51    48    1
    60    51    52    1
    61    50    49    2
    62    21    18    1
    63    21    22    1
    64    87    85    1
    65    85    86    1
    66    85    84    1
    67    48    49    1
    68    48    47    1
    69    18    17    1
    70    24    22   ar
    71    24    26   ar
    72    46    45    1
    73    49    53   am
    74    74    75    2
    75    22    23   ar
    76    45    42    1
    77    41    42    1
    78    26    27   ar
    79    61    63   ar
    80    61    59   ar
    81    81    84    1
    82    81    82    1
    83    81    80    1
    84    63    62   ar
    85    59    58   ar
    86    53    54    1
    87    23    25   ar
    88    56    55    2
    89    82    83    2
    90    42    43    1
    91    54    55    1
    92    54    57    1
    93    27    25   ar
    94    27    28    1
    95    62    60   ar
    96    58    60   ar
    97    58    57    1
    98    44    43    2
