@<TRIPOS>MOLECULE
tmp/4y4wA01.pdb
 102 94 0 0 0
SMALL
GASTEIGER

@<TRIPOS>ATOM
      1  N        -12.1410   -1.8120   59.3890 N.3    35  ASP35      -0.1239
      2  CA       -12.4920   -0.4210   59.1200 C.3    35  ASP35       0.1674
      3  C        -11.2490    0.4610   59.1650 C.2    35  ASP35       0.2266
      4  O        -10.7980    0.8320   60.2510 O.2    35  ASP35      -0.2867
      5  CB       -13.5110    0.0490   60.1660 C.3    35  ASP35       0.1410
      6  CG       -13.9310    1.4890   59.9860 C.2    35  ASP35       0.3668
      7  OD1      -13.6180    2.0970   58.9330 O.co2  35  ASP35      -0.2456
      8  OD2      -14.5800    2.0450   60.9090 O.co2  35  ASP35      -0.2456
      9  N        -11.0390    3.4360   58.5650 N.3    37  GLY37      -0.1210
     10  CA       -11.4410    4.7600   58.9840 C.3    37  GLY37       0.1956
     11  C        -11.7580    4.9400   60.4690 C.2    37  GLY37       0.2612
     12  O        -12.2280    6.0150   60.8750 O.2    37  GLY37      -0.2717
     13  N        -11.5030    3.9170   61.2760 N.am   38  SER38      -0.1952
     14  CA       -11.5900    4.0480   62.7250 C.3    38  SER38       0.1924
     15  C        -10.5420    3.1730   63.3890 C.2    38  SER38       0.2314
     16  O         -9.8410    2.4280   62.7200 O.2    38  SER38      -0.2863
     17  CB       -12.9820    3.6910   63.2470 C.3    38  SER38       0.2116
     18  OG       -13.2840    2.3170   63.1310 O.3    38  SER38      -0.2180
     19  N        -18.8510    7.1310   67.8250 N.3    78  SER78      -0.1202
     20  CA       -19.9270    7.4480   66.8980 C.3    78  SER78       0.2020
     21  C        -19.3450    7.3790   65.5010 C.2    78  SER78       0.2619
     22  O        -18.1840    7.7400   65.2880 O.2    78  SER78      -0.2717
     23  CB       -20.4600    8.8500   67.1550 C.3    78  SER78       0.2103
     24  OG       -20.8570    8.9910   68.5060 O.3    78  SER78      -0.2182
     25  N        -20.1450    6.9040   64.5570 N.am   79  TYR79      -0.1961
     26  CA       -19.7180    6.7540   63.1740 C.3    79  TYR79       0.1771
     27  C        -20.4490    7.7420   62.2790 C.2    79  TYR79       0.2620
     28  O        -21.3380    8.4610   62.7340 O.2    79  TYR79      -0.2715
     29  CB       -19.9570    5.3200   62.7140 C.3    79  TYR79       0.0574
     30  CG       -19.1300    4.3230   63.4860 C.ar   79  TYR79      -0.0198
     31  CD1      -19.6700    3.6010   64.5390 C.ar   79  TYR79      -0.0009
     32  CD2      -17.7830    4.1300   63.1900 C.ar   79  TYR79      -0.0009
     33  CE1      -18.9090    2.7070   65.2650 C.ar   79  TYR79       0.0417
     34  CE2      -17.0130    3.2360   63.9020 C.ar   79  TYR79       0.0417
     35  CZ       -17.5760    2.5120   64.9430 C.ar   79  TYR79       0.1957
     36  OH       -16.8420    1.6350   65.6900 O.3    79  TYR79      -0.2866
     37  N        -20.0730    7.7550   61.0040 N.am   80  GLY80      -0.1954
     38  CA       -20.5480    8.7530   60.0580 C.3    80  GLY80       0.1869
     39  C        -22.0290    8.7080   59.7190 C.2    80  GLY80       0.2309
     40  O        -22.5780    9.6930   59.2120 O.2    80  GLY80      -0.2863
     41  N         -6.3830    9.4950   59.8900 N.3   194  PHE194     -0.1241
     42  CA        -6.8490    8.6500   58.8040 C.3   194  PHE194      0.1605
     43  C         -5.7300    8.3450   57.8230 C.2   194  PHE194      0.2264
     44  O         -4.6780    8.9940   57.8290 O.2   194  PHE194     -0.2867
     45  CB        -7.9590    9.3490   58.0060 C.3   194  PHE194      0.0534
     46  CG        -9.1920    9.6880   58.7900 C.ar  194  PHE194     -0.0203
     47  CD1       -9.6070   11.0060   58.8980 C.ar  194  PHE194     -0.0042
     48  CD2       -9.9590    8.7010   59.3780 C.ar  194  PHE194     -0.0042
     49  CE1      -10.7570   11.3360   59.5960 C.ar  194  PHE194     -0.0003
     50  CE2      -11.1010    9.0230   60.0770 C.ar  194  PHE194     -0.0003
     51  CZ       -11.4990   10.3420   60.1930 C.ar  194  PHE194     -0.0000
     52  N         -9.8540   10.0960   52.1990 N.3   217  ILE217     -0.1245
     53  CA        -9.3460    9.0000   52.9970 C.3   217  ILE217      0.1561
     54  C         -9.6570    7.6560   52.3620 C.2   217  ILE217      0.2260
     55  O        -10.6920    7.4880   51.7140 O.2   217  ILE217     -0.2867
     56  CB        -9.9110    9.0490   54.4340 C.3   217  ILE217      0.0252
     57  CG1      -11.4320    8.8300   54.4930 C.3   217  ILE217      0.0019
     58  CG2       -9.5050   10.3820   55.1020 C.3   217  ILE217      0.0019
     59  CD1      -11.9440    8.5510   55.9020 C.3   217  ILE217      0.0001
     60  N        -10.9120    4.3020   53.0290 N.3   219  ASP219     -0.1239
     61  CA       -11.7840    3.8510   54.1100 C.3   219  ASP219      0.1674
     62  C        -12.5620    2.5880   53.7630 C.2   219  ASP219      0.2266
     63  O        -13.6140    2.6360   53.1290 O.2   219  ASP219     -0.2867
     64  CB       -12.7600    4.9580   54.4620 C.3   219  ASP219      0.1410
     65  CG       -13.6010    4.6310   55.6750 C.2   219  ASP219      0.3668
     66  OD1      -14.4530    5.4690   56.0260 O.co2 219  ASP219     -0.2456
     67  OD2      -13.4080    3.5500   56.2830 O.co2 219  ASP219     -0.2456
     68  N        -14.2930    0.9490   55.7210 N.3   221  GLY221     -0.1210
     69  CA       -15.4830    0.8830   56.5580 C.3   221  GLY221      0.1956
     70  C        -16.6340    1.7260   56.0500 C.2   221  GLY221      0.2612
     71  O        -17.6890    1.7460   56.6650 O.2   221  GLY221     -0.2717
     72  N        -16.4290    2.3980   54.9230 N.am  222  THR222     -0.1952
     73  CA       -17.4880    3.1510   54.2600 C.3   222  THR222      0.1897
     74  C        -17.8400    2.4590   52.9510 C.2   222  THR222      0.2313
     75  O        -16.9480    2.0660   52.1920 O.2   222  THR222     -0.2863
     76  CB       -17.0400    4.5840   53.9970 C.3   222  THR222      0.1794
     77  OG1      -16.9010    5.2730   55.2480 O.3   222  THR222     -0.2208
     78  CG2      -18.0420    5.3290   53.1260 C.3   222  THR222      0.0378
     79  N        -20.2960   16.1120   54.8460 N.3   300  ILE300     -0.1245
     80  CA       -19.4520   15.2050   55.6400 C.3   300  ILE300      0.1561
     81  C        -18.2100   15.8950   56.1630 C.2   300  ILE300      0.2260
     82  O        -17.7610   15.6300   57.2820 O.2   300  ILE300     -0.2867
     83  CB       -18.9780   13.9770   54.8160 C.3   300  ILE300      0.0252
     84  CG1      -20.1680   13.1790   54.2950 C.3   300  ILE300      0.0019
     85  CG2      -18.0710   13.0700   55.6710 C.3   300  ILE300      0.0019
     86  CD1      -19.7790   11.9940   53.3810 C.3   300  ILE300      0.0001
     87  N        -15.2250   15.6490   54.6500 N.3   302  ILE302     -0.1245
     88  CA       -14.0580   14.9820   54.0920 C.3   302  ILE302      0.1561
     89  C        -14.5220   14.1130   52.9190 C.2   302  ILE302      0.2260
     90  O        -15.6390   13.5960   52.9190 O.2   302  ILE302     -0.2867
     91  CB       -13.3020   14.1500   55.1830 C.3   302  ILE302      0.0252
     92  CG1      -11.8900   13.7840   54.7350 C.3   302  ILE302      0.0019
     93  CG2      -14.0990   12.9330   55.5800 C.3   302  ILE302      0.0019
     94  CD1      -10.9360   13.5200   55.9120 C.3   302  ILE302      0.0001
     95  N        -14.2840   10.6320   50.8470 N.3   304  ILE304     -0.1245
     96  CA       -14.0640    9.2600   51.3040 C.3   304  ILE304      0.1561
     97  C        -13.9760    8.3090   50.1310 C.2   304  ILE304      0.2260
     98  O        -14.9690    8.0870   49.4120 O.2   304  ILE304     -0.2867
     99  CB       -15.1800    8.7940   52.2520 C.3   304  ILE304      0.0252
    100  CG1      -15.3910    9.7610   53.4090 C.3   304  ILE304      0.0019
    101  CG2      -14.8320    7.4030   52.8150 C.3   304  ILE304      0.0019
    102  CD1      -16.6110    9.4290   54.2850 C.3   304  ILE304      0.0001
@<TRIPOS>BOND
     1    98    97    2
     2    97    96    1
     3    95    96    1
     4    96    99    1
     5    55    54    2
     6    75    74    2
     7    52    53    1
     8    99   101    1
     9    99   100    1
    10    54    53    1
    11    90    89    2
    12    89    88    1
    13    74    73    1
    14    53    56    1
    15    60    61    1
    16    78    76    1
    17    63    62    2
    18    86    84    1
    19   100   102    1
    20    62    61    1
    21    76    73    1
    22    76    77    1
    23    88    87    1
    24    88    91    1
    25    61    64    1
    26    73    72    1
    27    84    83    1
    28    56    57    1
    29    56    58    1
    30    64    65    1
    31    57    59    1
    32    92    91    1
    33    92    94    1
    34    83    80    1
    35    83    85    1
    36    79    80    1
    37    72    70   am
    38    91    93    1
    39    80    81    1
    40    65    66   ar
    41    65    67   ar
    42    68    69    1
    43    70    69    1
    44    70    71    2
    45    81    82    2
    46    43    44    2
    47    43    42    1
    48    45    46    1
    49    45    42    1
    50     9    10    1
    51    46    47   ar
    52    46    48   ar
    53    42    41    1
    54    47    49   ar
    55     7     6   ar
    56    10    11    1
    57     2     3    1
    58     2     1    1
    59     2     5    1
    60     3     4    2
    61    40    39    2
    62    48    50   ar
    63    49    51   ar
    64    39    38    1
    65     6     5    1
    66     6     8   ar
    67    38    37    1
    68    50    51   ar
    69    11    12    2
    70    11    13   am
    71    37    27   am
    72    13    14    1
    73    27    28    2
    74    27    26    1
    75    29    26    1
    76    29    30    1
    77    16    15    2
    78    14    17    1
    79    14    15    1
    80    18    17    1
    81    26    25    1
    82    32    30   ar
    83    32    34   ar
    84    30    31   ar
    85    34    35   ar
    86    31    33   ar
    87    25    21   am
    88    35    33   ar
    89    35    36    1
    90    22    21    2
    91    21    20    1
    92    20    23    1
    93    20    19    1
    94    23    24    1
