@<TRIPOS>MOLECULE
tmp/4y4xA00.pdb
 114 106 0 0 0
SMALL
GASTEIGER

@<TRIPOS>ATOM
      1  N         -3.8240   -8.8450    3.5350 N.3    10  ILE10      -0.1245
      2  CA        -4.8870   -9.2570    4.4440 C.3    10  ILE10       0.1561
      3  C         -6.2170   -9.4370    3.7190 C.2    10  ILE10       0.2260
      4  O         -7.1390  -10.0690    4.2390 O.2    10  ILE10      -0.2867
      5  CB        -5.0720   -8.2460    5.5830 C.3    10  ILE10       0.0252
      6  CG1       -5.5250   -6.8830    5.0310 C.3    10  ILE10       0.0019
      7  CG2       -3.7910   -8.1140    6.3820 C.3    10  ILE10       0.0019
      8  CD1       -6.0580   -5.9440    6.0980 C.3    10  ILE10       0.0001
      9  N         -5.0690   -4.1500    1.3230 N.3    15  ASP15      -0.1225
     10  CA        -5.2520   -3.0130    2.2220 C.3    15  ASP15       0.1805
     11  C         -4.1040   -2.9290    3.2260 C.2    15  ASP15       0.2597
     12  O         -3.7270   -1.8490    3.6850 O.2    15  ASP15      -0.2718
     13  CB        -6.5980   -3.1000    2.9400 C.3    15  ASP15       0.1424
     14  CG        -7.7390   -2.6230    2.0730 C.2    15  ASP15       0.3668
     15  OD1       -7.5990   -1.5560    1.4390 O.co2  15  ASP15      -0.2456
     16  OD2       -8.7730   -3.3190    2.0000 O.co2  15  ASP15      -0.2456
     17  N         -3.5260   -4.0790    3.5400 N.am   16  ALA16      -0.1979
     18  CA        -2.3770   -4.1460    4.4310 C.3    16  ALA16       0.1597
     19  C         -1.7430   -5.5010    4.2590 C.2    16  ALA16       0.2287
     20  O         -2.2880   -6.3520    3.5610 O.2    16  ALA16      -0.2864
     21  CB        -2.7820   -3.9220    5.8820 C.3    16  ALA16       0.0319
     22  N          1.4760   -6.4000   11.4300 N.3    33  ASP33      -0.1239
     23  CA         1.5480   -5.4500   10.3350 C.3    33  ASP33       0.1674
     24  C          2.8820   -4.7150   10.4470 C.2    33  ASP33       0.2266
     25  O          3.0410   -3.8610   11.3160 O.2    33  ASP33      -0.2867
     26  CB         0.3500   -4.4920   10.4330 C.3    33  ASP33       0.1410
     27  CG         0.2310   -3.5430    9.2600 C.2    33  ASP33       0.3668
     28  OD1        1.1780   -3.4360    8.4570 O.co2  33  ASP33      -0.2456
     29  OD2       -0.8340   -2.8850    9.1550 O.co2  33  ASP33      -0.2456
     30  N         -4.8250    7.1150   10.1440 N.3    81  ASP81      -0.1239
     31  CA        -6.2070    6.8150    9.7840 C.3    81  ASP81       0.1674
     32  C         -7.1370    7.0900   10.9650 C.2    81  ASP81       0.2266
     33  O         -8.3460    6.8920   10.8770 O.2    81  ASP81      -0.2867
     34  CB        -6.3450    5.3630    9.3160 C.3    81  ASP81       0.1410
     35  CG        -6.0220    4.3560   10.4130 C.2    81  ASP81       0.3668
     36  OD1       -5.3750    4.7400   11.4060 O.co2  81  ASP81      -0.2456
     37  OD2       -6.4140    3.1770   10.2780 O.co2  81  ASP81      -0.2456
     38  N         -6.9150    5.5890   13.8840 N.3    83  SER83      -0.1217
     39  CA        -6.9500    4.4200   14.7640 C.3    83  SER83       0.1889
     40  C         -5.9480    4.5790   15.9020 C.2    83  SER83       0.2288
     41  O         -5.0430    5.4030   15.8290 O.2    83  SER83      -0.2866
     42  CB        -6.6640    3.1370   13.9780 C.3    83  SER83       0.2089
     43  OG        -5.3270    3.0870   13.5200 O.3    83  SER83      -0.2183
     44  N        -11.3830    0.1200   14.7140 N.3   115  SER115     -0.1202
     45  CA       -10.8830   -0.3640   13.4300 C.3   115  SER115      0.2020
     46  C         -9.8980   -1.5200   13.5940 C.2   115  SER115      0.2618
     47  O         -9.7480   -2.3470   12.6950 O.2   115  SER115     -0.2717
     48  CB       -10.2430    0.7810   12.6470 C.3   115  SER115      0.2103
     49  OG       -11.2420    1.6970   12.2220 O.3   115  SER115     -0.2182
     50  N         -9.2300   -1.5850   14.7390 N.am  116  PHE116     -0.1975
     51  CA        -8.3840   -2.7380   15.0290 C.3   116  PHE116      0.1639
     52  C         -9.2620   -3.9290   15.4020 C.2   116  PHE116      0.2290
     53  O         -9.0610   -5.0330   14.9010 O.2   116  PHE116     -0.2864
     54  CB        -7.3790   -2.4250   16.1300 C.3   116  PHE116      0.0560
     55  CG        -6.2300   -1.5900   15.6590 C.ar  116  PHE116     -0.0200
     56  CD1       -5.2920   -2.1190   14.7890 C.ar  116  PHE116     -0.0042
     57  CD2       -6.0910   -0.2780   16.0720 C.ar  116  PHE116     -0.0042
     58  CE1       -4.2320   -1.3540   14.3430 C.ar  116  PHE116     -0.0003
     59  CE2       -5.0230    0.4950   15.6330 C.ar  116  PHE116     -0.0003
     60  CZ        -4.0980   -0.0450   14.7620 C.ar  116  PHE116     -0.0000
     61  N        -10.9070   -5.6040   12.4340 N.3   119  ASP119     -0.1239
     62  CA       -10.0100   -6.3150   11.5310 C.3   119  ASP119      0.1674
     63  C         -9.4090   -7.5430   12.2060 C.2   119  ASP119      0.2266
     64  O         -8.3960   -7.4470   12.9070 O.2   119  ASP119     -0.2867
     65  CB        -8.8950   -5.3950   11.0490 C.3   119  ASP119      0.1410
     66  CG        -7.9650   -6.0730   10.0670 C.2   119  ASP119      0.3668
     67  OD1       -8.2140   -7.2420    9.7070 O.co2 119  ASP119     -0.2456
     68  OD2       -6.9840   -5.4350    9.6390 O.co2 119  ASP119     -0.2456
     69  N         -5.2960   -8.7060   11.6130 N.3   122  ILE122     -0.1245
     70  CA        -4.0900   -8.0500   12.1180 C.3   122  ILE122      0.1561
     71  C         -4.0200   -8.1870   13.6350 C.2   122  ILE122      0.2260
     72  O         -4.8790   -7.6740   14.3560 O.2   122  ILE122     -0.2867
     73  CB        -4.0490   -6.5670   11.6910 C.3   122  ILE122      0.0252
     74  CG1       -3.7690   -6.4810   10.1860 C.3   122  ILE122      0.0019
     75  CG2       -3.0010   -5.7790   12.5030 C.3   122  ILE122      0.0019
     76  CD1       -3.8250   -5.0770    9.6280 C.3   122  ILE122      0.0001
     77  N          2.9910    0.8600    6.2730 N.3   221  GLY221     -0.1210
     78  CA         1.7560    0.7850    7.0430 C.3   221  GLY221      0.1956
     79  C          0.6150    1.6110    6.4700 C.2   221  GLY221      0.2613
     80  O         -0.4940    1.6200    7.0050 O.2   221  GLY221     -0.2717
     81  N          0.8900    2.3230    5.3840 N.am  222  THR222     -0.1938
     82  CA        -0.1270    3.1150    4.7000 C.3   222  THR222      0.2028
     83  C         -0.4410    2.4260    3.3810 C.2   222  THR222      0.2643
     84  O          0.4620    2.0360    2.6510 O.2   222  THR222     -0.2714
     85  CB         0.3430    4.5680    4.4640 C.3   222  THR222      0.1808
     86  OG1        0.4130    5.2580    5.7220 O.3   222  THR222     -0.2208
     87  CG2       -0.6360    5.3190    3.5510 C.3   222  THR222      0.0379
     88  N         -1.7250    2.2620    3.0930 N.am  223  THR223     -0.1936
     89  CA        -2.1620    1.5030    1.9240 C.3   223  THR223      0.2028
     90  C         -1.8730    2.2160    0.6160 C.2   223  THR223      0.2642
     91  O         -1.3480    1.6210   -0.3280 O.2   223  THR223     -0.2714
     92  CB        -3.6640    1.2340    1.9750 C.3   223  THR223      0.1808
     93  OG1       -4.0240    0.7310    3.2640 O.3   223  THR223     -0.2208
     94  CG2       -4.0560    0.2210    0.9080 C.3   223  THR223      0.0379
     95  N         -2.2400    3.4900    0.5630 N.am  224  LEU224     -0.1977
     96  CA        -2.2430    4.2230   -0.6980 C.3   224  LEU224      0.1596
     97  C         -1.0390    5.1250   -0.8770 C.2   224  LEU224      0.2287
     98  O         -0.1690    5.2310   -0.0130 O.2   224  LEU224     -0.2864
     99  CB        -3.5130    5.0640   -0.8120 C.3   224  LEU224      0.0297
    100  CG        -4.7860    4.2550   -0.5690 C.3   224  LEU224      0.0022
    101  CD1       -6.0140    5.1370   -0.8200 C.3   224  LEU224      0.0001
    102  CD2       -4.8220    3.0180   -1.4690 C.3   224  LEU224      0.0001
    103  N         -0.0420    8.9140   -1.2490 N.3   226  TYR226     -0.1241
    104  CA        -0.5400   10.2660   -0.9830 C.3   226  TYR226      0.1605
    105  C          0.4760   11.2900   -1.4420 C.2   226  TYR226      0.2264
    106  O          1.6140   11.3090   -0.9700 O.2   226  TYR226     -0.2867
    107  CB        -0.8450   10.4690    0.4990 C.3   226  TYR226      0.0534
    108  CG        -1.9730    9.5990    0.9790 C.ar  226  TYR226     -0.0201
    109  CD1       -1.7260    8.3140    1.4510 C.ar  226  TYR226     -0.0009
    110  CD2       -3.2860   10.0530    0.9350 C.ar  226  TYR226     -0.0009
    111  CE1       -2.7530    7.4980    1.8700 C.ar  226  TYR226      0.0417
    112  CE2       -4.3260    9.2520    1.3660 C.ar  226  TYR226      0.0417
    113  CZ        -4.0460    7.9750    1.8350 C.ar  226  TYR226      0.1957
    114  OH        -5.0790    7.1730    2.2550 O.3   226  TYR226     -0.2866
@<TRIPOS>BOND
     1   102   100    1
     2   105   104    1
     3   105   106    2
     4   103   104    1
     5   104   107    1
     6    97    96    1
     7    97    98    2
     8   101   100    1
     9    99    96    1
    10    99   100    1
    11    96    95    1
    12    91    90    2
    13   107   108    1
    14    95    90   am
    15    90    89    1
    16    94    92    1
    17   110   108   ar
    18   110   112   ar
    19   108   109   ar
    20     9    10    1
    21   112   113   ar
    22    15    14   ar
    23   109   111   ar
    24   113   111   ar
    25   113   114    1
    26    89    92    1
    27    89    88    1
    28    92    93    1
    29    16    14   ar
    30    14    13    1
    31    10    13    1
    32    10    11    1
    33    84    83    2
    34    88    83   am
    35    11    17   am
    36    11    12    2
    37    83    82    1
    38     1     2    1
    39    17    18    1
    40    87    85    1
    41    20    19    2
    42     3     4    2
    43     3     2    1
    44    19    18    1
    45    18    21    1
    46     2     5    1
    47    85    82    1
    48    85    86    1
    49    82    81    1
    50     6     5    1
    51     6     8    1
    52    81    79   am
    53     5     7    1
    54    77    78    1
    55    79    80    2
    56    79    78    1
    57    28    27   ar
    58    29    27   ar
    59    27    26    1
    60    34    31    1
    61    34    35    1
    62    76    74    1
    63    68    66   ar
    64    67    66   ar
    65    31    30    1
    66    31    32    1
    67    66    65    1
    68    74    73    1
    69    37    35   ar
    70    23    26    1
    71    23    24    1
    72    23    22    1
    73    35    36   ar
    74    24    25    2
    75    33    32    2
    76    65    62    1
    77    62    63    1
    78    62    61    1
    79    69    70    1
    80    73    70    1
    81    73    75    1
    82    70    71    1
    83    63    64    2
    84    49    48    1
    85    48    45    1
    86    47    46    2
    87    45    46    1
    88    45    44    1
    89    43    42    1
    90    46    50   am
    91    71    72    2
    92    38    39    1
    93    42    39    1
    94    58    60   ar
    95    58    56   ar
    96    50    51    1
    97    60    59   ar
    98    39    40    1
    99    56    55   ar
   100    53    52    2
   101    51    52    1
   102    51    54    1
   103    59    57   ar
   104    55    57   ar
   105    55    54    1
   106    41    40    2
