@<TRIPOS>MOLECULE
tmp/4y4zA00.pdb
 115 104 0 0 0
SMALL
GASTEIGER

@<TRIPOS>ATOM
      1  N        -21.5490   -8.8220   53.2630 N.3    10  ILE10      -0.1245
      2  CA       -22.6380   -9.2320   54.1400 C.3    10  ILE10       0.1561
      3  C        -23.9440   -9.4420   53.3950 C.2    10  ILE10       0.2260
      4  O        -24.8510  -10.0720   53.9230 O.2    10  ILE10      -0.2867
      5  CB       -22.8800   -8.2330   55.2830 C.3    10  ILE10       0.0252
      6  CG1      -23.3120   -6.8600   54.7480 C.3    10  ILE10       0.0019
      7  CG2      -21.6300   -8.1260   56.1530 C.3    10  ILE10       0.0019
      8  CD1      -23.8770   -5.9540   55.8210 C.3    10  ILE10       0.0001
      9  N        -22.7890   -4.0700   51.0400 N.3    15  ASP15      -0.1225
     10  CA       -23.0110   -2.9600   51.9680 C.3    15  ASP15       0.1805
     11  C        -21.9000   -2.8670   53.0120 C.2    15  ASP15       0.2597
     12  O        -21.5950   -1.7840   53.5180 O.2    15  ASP15      -0.2718
     13  CB       -24.3800   -3.0760   52.6360 C.3    15  ASP15       0.1424
     14  CG       -25.5050   -2.5760   51.7460 C.2    15  ASP15       0.3668
     15  OD1      -25.3600   -1.4880   51.1450 O.co2  15  ASP15      -0.2456
     16  OD2      -26.5360   -3.2740   51.6330 O.co2  15  ASP15      -0.2456
     17  N        -21.3020   -4.0110   53.3230 N.am   16  ALA16      -0.1979
     18  CA       -20.1430   -4.0740   54.2030 C.3    16  ALA16       0.1597
     19  C        -19.5120   -5.4450   54.0220 C.2    16  ALA16       0.2287
     20  O        -20.0640   -6.2980   53.3200 O.2    16  ALA16      -0.2864
     21  CB       -20.5370   -3.8450   55.6630 C.3    16  ALA16       0.0319
     22  N        -16.2640   -6.2520   61.1660 N.3    33  ASP33      -0.1239
     23  CA       -16.1800   -5.3010   60.0680 C.3    33  ASP33       0.1674
     24  C        -14.8530   -4.5530   60.2110 C.2    33  ASP33       0.2266
     25  O        -14.7120   -3.7090   61.1000 O.2    33  ASP33      -0.2867
     26  CB       -17.3840   -4.3540   60.1860 C.3    33  ASP33       0.1410
     27  CG       -17.4710   -3.3250   59.0790 C.2    33  ASP33       0.3668
     28  OD1      -16.5350   -3.2060   58.2660 O.co2  33  ASP33      -0.2456
     29  OD2      -18.5020   -2.6040   59.0520 O.co2  33  ASP33      -0.2456
     30  N        -12.3240   -1.8330   59.6480 N.3    35  ASP35      -0.1239
     31  CA       -12.6690   -0.4460   59.3840 C.3    35  ASP35       0.1674
     32  C        -11.4410    0.4520   59.4500 C.2    35  ASP35       0.2266
     33  O        -11.0120    0.8410   60.5390 O.2    35  ASP35      -0.2867
     34  CB       -13.7090    0.0020   60.4170 C.3    35  ASP35       0.1410
     35  CG       -14.1220    1.4430   60.2600 C.2    35  ASP35       0.3668
     36  OD1      -13.8060    2.0410   59.2120 O.co2  35  ASP35      -0.2456
     37  OD2      -14.7830    1.9780   61.1900 O.co2  35  ASP35      -0.2456
     38  N        -20.2150    6.9450   64.8830 N.3    79  TYR79      -0.1241
     39  CA       -19.6980    6.8730   63.5250 C.3    79  TYR79       0.1605
     40  C        -20.3800    7.8980   62.6350 C.2    79  TYR79       0.2264
     41  O        -21.3650    8.5160   63.0340 O.2    79  TYR79      -0.2867
     42  CB       -19.8950    5.4590   62.9780 C.3    79  TYR79       0.0534
     43  CG       -19.1330    4.4130   63.7680 C.ar   79  TYR79      -0.0201
     44  CD1      -19.7700    3.6280   64.7200 C.ar   79  TYR79      -0.0009
     45  CD2      -17.7680    4.2260   63.5750 C.ar   79  TYR79      -0.0009
     46  CE1      -19.0700    2.6690   65.4490 C.ar   79  TYR79       0.0417
     47  CE2      -17.0610    3.2770   64.2960 C.ar   79  TYR79       0.0417
     48  CZ       -17.7170    2.5040   65.2370 C.ar   79  TYR79       0.1957
     49  OH       -17.0170    1.5550   65.9500 O.3    79  TYR79      -0.2866
     50  N        -22.3000    7.7190   60.2230 N.3    81  ASP81      -0.1239
     51  CA       -23.6790    7.4460   59.8260 C.3    81  ASP81       0.1674
     52  C        -24.6590    7.6440   60.9800 C.2    81  ASP81       0.2266
     53  O        -25.8480    7.3710   60.8420 O.2    81  ASP81      -0.2867
     54  CB       -23.8060    6.0250   59.2720 C.3    81  ASP81       0.1410
     55  CG       -23.5010    4.9610   60.3100 C.2    81  ASP81       0.3668
     56  OD1      -22.9790    5.3100   61.3880 O.co2  81  ASP81      -0.2456
     57  OD2      -23.7750    3.7720   60.0410 O.co2  81  ASP81      -0.2456
     58  N        -24.5490    6.0560   63.8950 N.3    83  SER83      -0.1217
     59  CA       -24.6100    4.8920   64.7790 C.3    83  SER83       0.1889
     60  C        -23.5970    5.0320   65.9090 C.2    83  SER83       0.2288
     61  O        -22.7130    5.8830   65.8530 O.2    83  SER83      -0.2866
     62  CB       -24.3720    3.5910   64.0080 C.3    83  SER83       0.2089
     63  OG       -23.0410    3.4870   63.5350 O.3    83  SER83      -0.2183
     64  N        -29.0060    0.4230   64.4220 N.3   115  SER115     -0.1202
     65  CA       -28.4990   -0.0980   63.1540 C.3   115  SER115      0.2020
     66  C        -27.5610   -1.2810   63.3700 C.2   115  SER115      0.2618
     67  O        -27.4590   -2.1520   62.5100 O.2   115  SER115     -0.2717
     68  CB       -27.8060    0.9870   62.3300 C.3   115  SER115      0.2103
     69  OG       -26.6380    1.4440   62.9750 O.3   115  SER115     -0.2182
     70  N        -26.8760   -1.3260   64.5110 N.am  116  PHE116     -0.1975
     71  CA       -26.0310   -2.4790   64.8070 C.3   116  PHE116      0.1639
     72  C        -26.9010   -3.6810   65.1770 C.2   116  PHE116      0.2290
     73  O        -26.7120   -4.7820   64.6550 O.2   116  PHE116     -0.2864
     74  CB       -25.0190   -2.1620   65.9090 C.3   116  PHE116      0.0560
     75  CG       -23.8950   -1.2700   65.4530 C.ar  116  PHE116     -0.0200
     76  CD1      -22.9940   -1.7130   64.5040 C.ar  116  PHE116     -0.0042
     77  CD2      -23.7440    0.0130   65.9660 C.ar  116  PHE116     -0.0042
     78  CE1      -21.9600   -0.9050   64.0730 C.ar  116  PHE116     -0.0003
     79  CE2      -22.7100    0.8290   65.5400 C.ar  116  PHE116     -0.0003
     80  CZ       -21.8160    0.3700   64.5900 C.ar  116  PHE116     -0.0000
     81  N        -28.4340   -5.3560   62.1910 N.3   119  ASP119     -0.1239
     82  CA       -27.5450   -6.0810   61.2890 C.3   119  ASP119      0.1674
     83  C        -26.9820   -7.3320   61.9570 C.2   119  ASP119      0.2266
     84  O        -25.9530   -7.2870   62.6340 O.2   119  ASP119     -0.2867
     85  CB       -26.3990   -5.2030   60.8190 C.3   119  ASP119      0.1410
     86  CG       -25.6260   -5.8420   59.6970 C.2   119  ASP119      0.3668
     87  OD1      -25.8660   -7.0430   59.4220 O.co2 119  ASP119     -0.2456
     88  OD2      -24.7910   -5.1530   59.0860 O.co2 119  ASP119     -0.2456
     89  N        -23.0180   -8.6450   61.4570 N.3   122  ILE122     -0.1245
     90  CA       -21.8210   -7.9760   61.9670 C.3   122  ILE122      0.1561
     91  C        -21.7550   -8.0970   63.4940 C.2   122  ILE122      0.2260
     92  O        -22.6210   -7.5850   64.2150 O.2   122  ILE122     -0.2867
     93  CB       -21.7740   -6.4970   61.5120 C.3   122  ILE122      0.0252
     94  CG1      -21.5220   -6.4320   59.9990 C.3   122  ILE122      0.0019
     95  CG2      -20.7000   -5.7120   62.2750 C.3   122  ILE122      0.0019
     96  CD1      -21.6070   -5.0380   59.4110 C.3   122  ILE122      0.0001
     97  N        -16.6490   -4.4360   65.2380 N.3   125  LEU125     -0.1245
     98  CA       -15.7350   -3.7410   64.3390 C.3   125  LEU125      0.1561
     99  C        -14.3020   -3.9670   64.7750 C.2   125  LEU125      0.2260
    100  O        -14.0300   -4.1280   65.9630 O.2   125  LEU125     -0.2867
    101  CB       -16.0240   -2.2330   64.3180 C.3   125  LEU125      0.0270
    102  CG       -16.9790   -1.7850   63.1990 C.3   125  LEU125      0.0019
    103  CD1      -18.3990   -2.3030   63.4380 C.3   125  LEU125      0.0001
    104  CD2      -16.9800   -0.2800   63.0380 C.3   125  LEU125      0.0001
    105  N        -14.5380    0.9350   56.0440 N.3   221  GLY221     -0.1225
    106  CA       -15.7640    0.8740   56.8190 C.3   221  GLY221      0.1811
    107  C        -16.9100    1.7080   56.2760 C.2   221  GLY221      0.2280
    108  O        -18.0030    1.6960   56.8390 O.2   221  GLY221     -0.2866
    109  N        -19.3340    2.3670   52.9360 N.3   223  THR223     -0.1218
    110  CA       -19.7880    1.6250   51.7650 C.3   223  THR223      0.1862
    111  C        -19.5140    2.3480   50.4540 C.2   223  THR223      0.2287
    112  O        -19.0460    1.7390   49.4890 O.2   223  THR223     -0.2866
    113  CB       -21.3000    1.3550   51.8360 C.3   223  THR223      0.1770
    114  OG1      -21.6370    0.8230   53.1230 O.3   223  THR223     -0.2211
    115  CG2      -21.7260    0.3730   50.7380 C.3   223  THR223      0.0375
@<TRIPOS>BOND
     1   112   111    2
     2   111   110    1
     3   115   113    1
     4     9    10    1
     5    15    14   ar
     6    16    14   ar
     7    14    13    1
     8   110   113    1
     9   110   109    1
    10   113   114    1
    11    10    13    1
    12    10    11    1
    13    11    17   am
    14    11    12    2
    15     1     2    1
    16    20    19    2
    17    17    18    1
    18     3     4    2
    19     3     2    1
    20    19    18    1
    21     2     5    1
    22    18    21    1
    23     6     5    1
    24     6     8    1
    25     5     7    1
    26   105   106    1
    27   107   106    1
    28   107   108    2
    29    28    27   ar
    30    29    27   ar
    31    27    26    1
    32    88    86   ar
    33    36    35   ar
    34    54    51    1
    35    54    55    1
    36    31    32    1
    37    31    30    1
    38    31    34    1
    39    96    94    1
    40    87    86   ar
    41    32    33    2
    42    86    85    1
    43    51    50    1
    44    51    52    1
    45    94    93    1
    46    57    55   ar
    47    23    26    1
    48    23    24    1
    49    23    22    1
    50    24    25    2
    51    35    34    1
    52    35    37   ar
    53    55    56   ar
    54    85    82    1
    55    53    52    2
    56    82    83    1
    57    82    81    1
    58    89    90    1
    59    93    90    1
    60    93    95    1
    61    83    84    2
    62    90    91    1
    63    68    69    1
    64    68    65    1
    65    67    66    2
    66    40    41    2
    67    40    39    1
    68    42    39    1
    69    42    43    1
    70   104   102    1
    71    65    66    1
    72    65    64    1
    73   102   103    1
    74   102   101    1
    75    66    70   am
    76    91    92    2
    77    39    38    1
    78    63    62    1
    79    45    43   ar
    80    45    47   ar
    81    43    44   ar
    82    58    59    1
    83    62    59    1
    84    78    76   ar
    85    78    80   ar
    86    47    48   ar
    87   101    98    1
    88    98    99    1
    89    98    97    1
    90    76    75   ar
    91    70    71    1
    92    80    79   ar
    93    73    72    2
    94    44    46   ar
    95    99   100    2
    96    59    60    1
    97    71    72    1
    98    71    74    1
    99    48    46   ar
   100    48    49    1
   101    75    74    1
   102    75    77   ar
   103    79    77   ar
   104    61    60    2
