@<TRIPOS>MOLECULE
tmp/4y50A00.pdb
 102 94 0 0 0
SMALL
GASTEIGER

@<TRIPOS>ATOM
      1  N        -12.1700   -1.8500   59.5720 N.3    35  ASP35      -0.1239
      2  CA       -12.4970   -0.4550   59.2980 C.3    35  ASP35       0.1674
      3  C        -11.2510    0.4200   59.3390 C.2    35  ASP35       0.2266
      4  O        -10.7970    0.8030   60.4130 O.2    35  ASP35      -0.2867
      5  CB       -13.5150    0.0510   60.3210 C.3    35  ASP35       0.1410
      6  CG       -13.9410    1.4790   60.0620 C.2    35  ASP35       0.3668
      7  OD1      -13.6260    1.9950   58.9700 O.co2  35  ASP35      -0.2456
      8  OD2      -14.5840    2.0800   60.9670 O.co2  35  ASP35      -0.2456
      9  N        -11.1320    3.3950   58.7260 N.3    37  GLY37      -0.1210
     10  CA       -11.5740    4.7100   59.1480 C.3    37  GLY37       0.1956
     11  C        -11.8740    4.8460   60.6330 C.2    37  GLY37       0.2612
     12  O        -12.3910    5.8750   61.0560 O.2    37  GLY37      -0.2717
     13  N        -11.5170    3.8550   61.4360 N.am   38  SER38      -0.1952
     14  CA       -11.6370    3.9860   62.8890 C.3    38  SER38       0.1924
     15  C        -10.5940    3.1180   63.5710 C.2    38  SER38       0.2314
     16  O         -9.8890    2.3710   62.8980 O.2    38  SER38      -0.2863
     17  CB       -13.0500    3.6390   63.3730 C.3    38  SER38       0.2116
     18  OG       -13.3270    2.2650   63.2330 O.3    38  SER38      -0.2180
     19  N        -18.8050    7.0240   68.0550 N.3    78  SER78      -0.1202
     20  CA       -19.8940    7.3030   67.1390 C.3    78  SER78       0.2020
     21  C        -19.2960    7.4550   65.7580 C.2    78  SER78       0.2619
     22  O        -18.2610    8.0950   65.5790 O.2    78  SER78      -0.2717
     23  CB       -20.6390    8.5610   67.5450 C.3    78  SER78       0.2103
     24  OG       -19.7810    9.6660   67.4610 O.3    78  SER78      -0.2182
     25  N        -19.9550    6.8420   64.7900 N.am   79  TYR79      -0.1961
     26  CA       -19.4400    6.7440   63.4340 C.3    79  TYR79       0.1771
     27  C        -20.1060    7.7610   62.5170 C.2    79  TYR79       0.2620
     28  O        -21.0890    8.4160   62.8950 O.2    79  TYR79      -0.2715
     29  CB       -19.6520    5.3220   62.9200 C.3    79  TYR79       0.0574
     30  CG       -18.8740    4.2910   63.7070 C.ar   79  TYR79      -0.0198
     31  CD1      -19.4880    3.5250   64.6870 C.ar   79  TYR79      -0.0009
     32  CD2      -17.5240    4.0930   63.4690 C.ar   79  TYR79      -0.0009
     33  CE1      -18.7760    2.5770   65.4120 C.ar   79  TYR79       0.0417
     34  CE2      -16.7960    3.1580   64.1870 C.ar   79  TYR79       0.0417
     35  CZ       -17.4390    2.4000   65.1580 C.ar   79  TYR79       0.1957
     36  OH       -16.7370    1.4670   65.8710 O.3    79  TYR79      -0.2866
     37  N        -19.5540    7.8810   61.3110 N.am   80  GLY80      -0.1954
     38  CA       -19.9900    8.8760   60.3470 C.3    80  GLY80       0.1869
     39  C        -21.4380    8.7180   59.9310 C.2    80  GLY80       0.2309
     40  O        -22.0700    9.6770   59.4880 O.2    80  GLY80      -0.2863
     41  N         -6.4590    9.4880   60.2160 N.3   194  PHE194     -0.1241
     42  CA        -6.9310    8.6560   59.1170 C.3   194  PHE194      0.1605
     43  C         -5.8220    8.3520   58.1140 C.2   194  PHE194      0.2264
     44  O         -4.7750    8.9900   58.1260 O.2   194  PHE194     -0.2867
     45  CB        -8.0370    9.3590   58.3310 C.3   194  PHE194      0.0534
     46  CG        -9.2750    9.6730   59.1190 C.ar  194  PHE194     -0.0203
     47  CD1       -9.6950   10.9810   59.2610 C.ar  194  PHE194     -0.0042
     48  CD2      -10.0640    8.6620   59.6300 C.ar  194  PHE194     -0.0042
     49  CE1      -10.8550   11.2720   59.9540 C.ar  194  PHE194     -0.0003
     50  CE2      -11.2170    8.9420   60.3350 C.ar  194  PHE194     -0.0003
     51  CZ       -11.6100   10.2480   60.4970 C.ar  194  PHE194     -0.0000
     52  N         -9.9890   10.1990   52.4960 N.3   217  ILE217     -0.1245
     53  CA        -9.4970    9.1100   53.3300 C.3   217  ILE217      0.1561
     54  C         -9.8070    7.7750   52.6820 C.2   217  ILE217      0.2260
     55  O        -10.8510    7.6070   52.0580 O.2   217  ILE217     -0.2867
     56  CB       -10.0470    9.1750   54.7740 C.3   217  ILE217      0.0252
     57  CG1      -11.5740    9.0070   54.8410 C.3   217  ILE217      0.0019
     58  CG2       -9.6010   10.4760   55.4310 C.3   217  ILE217      0.0019
     59  CD1      -12.0830    8.7650   56.2490 C.3   217  ILE217      0.0001
     60  N        -11.1050    4.4300   53.3770 N.3   219  ASP219     -0.1239
     61  CA       -11.9890    3.9890   54.4620 C.3   219  ASP219      0.1674
     62  C        -12.7730    2.7380   54.0970 C.2   219  ASP219      0.2266
     63  O        -13.8410    2.7950   53.4770 O.2   219  ASP219     -0.2867
     64  CB       -12.9260    5.1370   54.8370 C.3   219  ASP219      0.1410
     65  CG       -13.7890    4.8410   56.0420 C.2   219  ASP219      0.3668
     66  OD1      -14.6240    5.7220   56.3700 O.co2 219  ASP219     -0.2456
     67  OD2      -13.6640    3.7470   56.6320 O.co2 219  ASP219     -0.2456
     68  N        -14.4820    0.9780   55.9710 N.3   221  GLY221     -0.1210
     69  CA       -15.7290    0.9150   56.7080 C.3   221  GLY221      0.1956
     70  C        -16.8570    1.7870   56.1870 C.2   221  GLY221      0.2612
     71  O        -17.9460    1.8100   56.7680 O.2   221  GLY221     -0.2717
     72  N        -16.6090    2.5060   55.1060 N.am  222  THR222     -0.1952
     73  CA       -17.6440    3.2770   54.4250 C.3   222  THR222      0.1897
     74  C        -17.9730    2.5840   53.1020 C.2   222  THR222      0.2313
     75  O        -17.0730    2.2020   52.3490 O.2   222  THR222     -0.2863
     76  CB       -17.1750    4.7260   54.1960 C.3   222  THR222      0.1794
     77  OG1      -17.1020    5.3780   55.4650 O.3   222  THR222     -0.2208
     78  CG2      -18.1380    5.5080   53.3170 C.3   222  THR222      0.0378
     79  N        -20.4530   16.2910   54.9430 N.3   300  ILE300     -0.1245
     80  CA       -19.6440   15.3380   55.7190 C.3   300  ILE300      0.1561
     81  C        -18.3800   15.9900   56.2430 C.2   300  ILE300      0.2260
     82  O        -17.8890   15.6390   57.3230 O.2   300  ILE300     -0.2867
     83  CB       -19.1790   14.1280   54.8700 C.3   300  ILE300      0.0252
     84  CG1      -20.3740   13.3270   54.3680 C.3   300  ILE300      0.0019
     85  CG2      -18.2370   13.2230   55.6910 C.3   300  ILE300      0.0019
     86  CD1      -19.9910   12.1620   53.4950 C.3   300  ILE300      0.0001
     87  N        -15.4720   15.7800   54.7900 N.3   302  ILE302     -0.1245
     88  CA       -14.3020   15.0660   54.2980 C.3   302  ILE302      0.1561
     89  C        -14.6970   14.1990   53.0980 C.2   302  ILE302      0.2260
     90  O        -15.8050   13.6610   53.0510 O.2   302  ILE302     -0.2867
     91  CB       -13.6670   14.2320   55.4470 C.3   302  ILE302      0.0252
     92  CG1      -12.2750   13.7230   55.0790 C.3   302  ILE302      0.0019
     93  CG2      -14.5640   13.0840   55.8440 C.3   302  ILE302      0.0019
     94  CD1      -11.3630   13.5280   56.3030 C.3   302  ILE302      0.0001
     95  N        -14.3980   10.7470   51.0530 N.3   304  ILE304     -0.1245
     96  CA       -14.1940    9.3820   51.5400 C.3   304  ILE304      0.1561
     97  C        -14.0940    8.4170   50.3740 C.2   304  ILE304      0.2260
     98  O        -15.0630    8.2070   49.6370 O.2   304  ILE304     -0.2867
     99  CB       -15.3170    8.9160   52.4960 C.3   304  ILE304      0.0252
    100  CG1      -15.5070    9.8800   53.6800 C.3   304  ILE304      0.0019
    101  CG2      -14.9790    7.5140   53.0280 C.3   304  ILE304      0.0019
    102  CD1      -16.6910    9.5410   54.5780 C.3   304  ILE304      0.0001
@<TRIPOS>BOND
     1    98    97    2
     2    97    96    1
     3    95    96    1
     4    96    99    1
     5    55    54    2
     6    75    74    2
     7    52    53    1
     8    99   101    1
     9    99   100    1
    10    54    53    1
    11    90    89    2
    12    89    88    1
    13    74    73    1
    14    78    76    1
    15    53    56    1
    16    60    61    1
    17    63    62    2
    18    86    84    1
    19   100   102    1
    20    62    61    1
    21    76    73    1
    22    76    77    1
    23    88    87    1
    24    88    91    1
    25    84    83    1
    26    73    72    1
    27    61    64    1
    28    56    57    1
    29    56    58    1
    30    64    65    1
    31    57    59    1
    32    83    85    1
    33    83    80    1
    34    79    80    1
    35    92    91    1
    36    92    94    1
    37    72    70   am
    38    91    93    1
    39    80    81    1
    40    68    69    1
    41    65    66   ar
    42    65    67   ar
    43    70    69    1
    44    70    71    2
    45    81    82    2
    46    43    44    2
    47    43    42    1
    48    45    42    1
    49    45    46    1
    50     9    10    1
    51     7     6   ar
    52    42    41    1
    53    46    47   ar
    54    46    48   ar
    55    10    11    1
    56    47    49   ar
    57     2     3    1
    58     2     1    1
    59     2     5    1
    60     3     4    2
    61    40    39    2
    62    48    50   ar
    63    39    38    1
    64    49    51   ar
    65     6     5    1
    66     6     8   ar
    67    50    51   ar
    68    38    37    1
    69    11    12    2
    70    11    13   am
    71    37    27   am
    72    13    14    1
    73    27    28    2
    74    27    26    1
    75    14    17    1
    76    14    15    1
    77    16    15    2
    78    29    26    1
    79    29    30    1
    80    18    17    1
    81    26    25    1
    82    32    30   ar
    83    32    34   ar
    84    30    31   ar
    85    34    35   ar
    86    31    33   ar
    87    25    21   am
    88    35    33   ar
    89    35    36    1
    90    22    21    2
    91    21    20    1
    92    20    23    1
    93    20    19    1
    94    24    23    1
