@<TRIPOS>MOLECULE
tmp/4y53A00.pdb
 125 116 0 0 0
SMALL
GASTEIGER

@<TRIPOS>ATOM
      1  N         -3.8580   -8.9110    3.3240 N.3    10  ILE10      -0.1245
      2  CA        -4.9430   -9.3860    4.1900 C.3    10  ILE10       0.1561
      3  C         -6.2410   -9.6420    3.4390 C.2    10  ILE10       0.2260
      4  O         -7.1490  -10.2840    3.9740 O.2    10  ILE10      -0.2867
      5  CB        -5.2470   -8.4110    5.3330 C.3    10  ILE10       0.0252
      6  CG1       -5.7360   -7.0560    4.7970 C.3    10  ILE10       0.0019
      7  CG2       -4.0210   -8.2300    6.1890 C.3    10  ILE10       0.0019
      8  CD1       -6.3380   -6.1470    5.8710 C.3    10  ILE10       0.0001
      9  N         -5.2540   -4.4020    1.0410 N.3    15  ASP15      -0.1225
     10  CA        -5.5630   -3.2670    1.9130 C.3    15  ASP15       0.1805
     11  C         -4.5250   -3.1220    3.0270 C.2    15  ASP15       0.2597
     12  O         -4.3450   -2.0390    3.5910 O.2    15  ASP15      -0.2718
     13  CB        -6.9780   -3.3950    2.4820 C.3    15  ASP15       0.1424
     14  CG        -8.0440   -3.0320    1.4660 C.2    15  ASP15       0.3668
     15  OD1       -7.8730   -2.0330    0.7290 O.co2  15  ASP15      -0.2456
     16  OD2       -9.0590   -3.7530    1.3820 O.co2  15  ASP15      -0.2456
     17  N         -3.8320   -4.2190    3.3270 N.am   16  ALA16      -0.1979
     18  CA        -2.7040   -4.2220    4.2530 C.3    16  ALA16       0.1597
     19  C         -1.9410   -5.5150    4.0840 C.2    16  ALA16       0.2287
     20  O         -2.3860   -6.4020    3.3620 O.2    16  ALA16      -0.2864
     21  CB        -3.1700   -4.0610    5.7010 C.3    16  ALA16       0.0319
     22  N          1.3060   -6.2600   11.2990 N.3    33  ASP33      -0.1239
     23  CA         1.4370   -5.2970   10.2230 C.3    33  ASP33       0.1674
     24  C          2.7860   -4.5790   10.3610 C.2    33  ASP33       0.2266
     25  O          2.9470   -3.7300   11.2490 O.2    33  ASP33      -0.2867
     26  CB         0.2700   -4.3140   10.2980 C.3    33  ASP33       0.1410
     27  CG         0.2130   -3.3610    9.1320 C.2    33  ASP33       0.3668
     28  OD1        1.1810   -3.2730    8.3530 O.co2  33  ASP33      -0.2456
     29  OD2       -0.8270   -2.6740    9.0120 O.co2  33  ASP33      -0.2456
     30  N         -4.2970    7.8260   10.3910 N.3    81  ASP81      -0.1239
     31  CA        -5.6230    7.5060    9.8700 C.3    81  ASP81       0.1674
     32  C         -6.6930    7.5490   10.9530 C.2    81  ASP81       0.2266
     33  O         -7.8370    7.1850   10.7090 O.2    81  ASP81      -0.2867
     34  CB        -5.6230    6.1320    9.1930 C.3    81  ASP81       0.1410
     35  CG        -5.1980    5.0090   10.1280 C.2    81  ASP81       0.3668
     36  OD1       -5.0020    5.2580   11.3390 O.co2  81  ASP81      -0.2456
     37  OD2       -5.0600    3.8660    9.6410 O.co2  81  ASP81      -0.2456
     38  N         -9.1240   -1.3110   14.5990 N.3   116  PHE116     -0.1241
     39  CA        -8.2760   -2.4730   14.8940 C.3   116  PHE116      0.1605
     40  C         -9.1400   -3.6860   15.2310 C.2   116  PHE116      0.2264
     41  O         -8.9240   -4.7830   14.7050 O.2   116  PHE116     -0.2867
     42  CB        -7.2900   -2.1690   16.0270 C.3   116  PHE116      0.0534
     43  CG        -6.1510   -1.2840   15.6030 C.ar  116  PHE116     -0.0203
     44  CD1       -5.2500   -1.7150   14.6390 C.ar  116  PHE116     -0.0042
     45  CD2       -5.9860   -0.0180   16.1500 C.ar  116  PHE116     -0.0042
     46  CE1       -4.2030   -0.9010   14.2320 C.ar  116  PHE116     -0.0003
     47  CE2       -4.9300    0.7990   15.7520 C.ar  116  PHE116     -0.0003
     48  CZ        -4.0430    0.3600   14.7950 C.ar  116  PHE116     -0.0000
     49  N        -10.6410   -5.3450   12.2520 N.3   119  ASP119     -0.1239
     50  CA        -9.6590   -5.9870   11.3810 C.3   119  ASP119      0.1674
     51  C         -9.2030   -7.3140   11.9750 C.2   119  ASP119      0.2266
     52  O         -8.1750   -7.3580   12.6430 O.2   119  ASP119     -0.2867
     53  CB        -8.4460   -5.0800   11.1880 C.3   119  ASP119      0.1410
     54  CG        -8.1650   -4.7750    9.7440 C.2   119  ASP119      0.3668
     55  OD1       -8.5990   -5.5570    8.8770 O.co2 119  ASP119     -0.2456
     56  OD2       -7.5100   -3.7420    9.4760 O.co2 119  ASP119     -0.2456
     57  N         -5.3540   -8.6440   11.5270 N.3   122  ILE122     -0.1245
     58  CA        -4.1320   -7.9870   11.9860 C.3   122  ILE122      0.1561
     59  C         -4.0610   -8.0880   13.5020 C.2   122  ILE122      0.2260
     60  O         -4.9330   -7.5810   14.2250 O.2   122  ILE122     -0.2867
     61  CB        -4.0670   -6.5180   11.5050 C.3   122  ILE122      0.0252
     62  CG1       -3.8340   -6.4820    9.9870 C.3   122  ILE122      0.0019
     63  CG2       -2.9670   -5.7360   12.2420 C.3   122  ILE122      0.0019
     64  CD1       -4.0820   -5.1340    9.3480 C.3   122  ILE122      0.0001
     65  N          0.9520   -4.4590   15.3190 N.3   125  LEU125     -0.1245
     66  CA         1.8950   -3.7620   14.4450 C.3   125  LEU125      0.1561
     67  C          3.3350   -4.0370   14.8840 C.2   125  LEU125      0.2260
     68  O          3.6060   -4.2320   16.0750 O.2   125  LEU125     -0.2867
     69  CB         1.6100   -2.2520   14.4500 C.3   125  LEU125      0.0270
     70  CG         0.7200   -1.7370   13.3020 C.3   125  LEU125      0.0019
     71  CD1       -0.6960   -2.2830   13.4170 C.3   125  LEU125      0.0001
     72  CD2        0.7080   -0.2150   13.2200 C.3   125  LEU125      0.0001
     73  N          3.2580    0.8470    6.2280 N.3   221  GLY221     -0.1225
     74  CA         2.0640    0.7720    7.0540 C.3   221  GLY221      0.1811
     75  C          0.9130    1.6110    6.5410 C.2   221  GLY221      0.2280
     76  O         -0.1730    1.6040    7.1240 O.2   221  GLY221     -0.2866
     77  N         -1.4900    2.2160    3.1810 N.3   223  THR223     -0.1203
     78  CA        -1.9170    1.4310    2.0330 C.3   223  THR223      0.1994
     79  C         -1.7250    2.1670    0.7140 C.2   223  THR223      0.2617
     80  O         -1.2560    1.5950   -0.2600 O.2   223  THR223     -0.2717
     81  CB        -3.3920    1.0260    2.1880 C.3   223  THR223      0.1784
     82  OG1       -3.5490    0.3430    3.4380 O.3   223  THR223     -0.2211
     83  CG2       -3.8250    0.1160    1.0560 C.3   223  THR223      0.0376
     84  N         -2.0650    3.4480    0.6910 N.am  224  LEU224     -0.1979
     85  CA        -2.0920    4.1830   -0.5660 C.3   224  LEU224      0.1596
     86  C         -0.8810    5.0780   -0.7810 C.2   224  LEU224      0.2287
     87  O          0.0040    5.1680    0.0610 O.2   224  LEU224     -0.2864
     88  CB        -3.3590    5.0260   -0.6460 C.3   224  LEU224      0.0297
     89  CG        -4.6510    4.2340   -0.4090 C.3   224  LEU224      0.0022
     90  CD1       -5.8850    5.1330   -0.6300 C.3   224  LEU224      0.0001
     91  CD2       -4.7400    2.9920   -1.3070 C.3   224  LEU224      0.0001
     92  N          0.0810    8.8720   -1.1820 N.3   226  TYR226     -0.1241
     93  CA        -0.4130   10.2280   -0.9260 C.3   226  TYR226      0.1605
     94  C          0.6060   11.2520   -1.3820 C.2   226  TYR226      0.2264
     95  O          1.7380   11.2780   -0.8990 O.2   226  TYR226     -0.2867
     96  CB        -0.7340   10.4330    0.5600 C.3   226  TYR226      0.0534
     97  CG        -1.8520    9.5390    1.0560 C.ar  226  TYR226     -0.0201
     98  CD1       -3.1690    9.9700    1.0220 C.ar  226  TYR226     -0.0009
     99  CD2       -1.5860    8.2560    1.5410 C.ar  226  TYR226     -0.0009
    100  CE1       -4.1860    9.1660    1.4640 C.ar  226  TYR226      0.0417
    101  CE2       -2.5940    7.4410    1.9940 C.ar  226  TYR226      0.0417
    102  CZ        -3.8960    7.8950    1.9490 C.ar  226  TYR226      0.1957
    103  OH        -4.9370    7.0980    2.3840 O.3   226  TYR226     -0.2866
    104  N         -8.5950    0.3130   -6.0220 N.3   280  PHE280     -0.1241
    105  CA        -8.9370   -0.3160   -4.7540 C.3   280  PHE280      0.1605
    106  C        -10.4070   -0.6640   -4.6770 C.2   280  PHE280      0.2264
    107  O        -10.9760   -0.8120   -3.5960 O.2   280  PHE280     -0.2867
    108  CB        -8.4690    0.5620   -3.5920 C.3   280  PHE280      0.0534
    109  CG        -7.0220    0.3560   -3.3050 C.ar  280  PHE280     -0.0203
    110  CD1       -6.0830    0.8580   -4.1720 C.ar  280  PHE280     -0.0042
    111  CD2       -6.6120   -0.4510   -2.2600 C.ar  280  PHE280     -0.0042
    112  CE1       -4.7500    0.6280   -3.9700 C.ar  280  PHE280     -0.0003
    113  CE2       -5.2740   -0.6850   -2.0450 C.ar  280  PHE280     -0.0003
    114  CZ        -4.3430   -0.1460   -2.9070 C.ar  280  PHE280     -0.0000
    115  N        -12.4770    3.1710   -5.7380 N.3   291  PHE291     -0.1241
    116  CA       -11.6520    4.1010   -4.9920 C.3   291  PHE291      0.1605
    117  C        -10.2290    4.1070   -5.5130 C.2   291  PHE291      0.2264
    118  O         -9.6430    3.0560   -5.7280 O.2   291  PHE291     -0.2867
    119  CB       -11.6520    3.7630   -3.5040 C.3   291  PHE291      0.0534
    120  CG       -11.1520    4.8890   -2.6450 C.ar  291  PHE291     -0.0203
    121  CD1      -11.9130    6.0240   -2.4710 C.ar  291  PHE291     -0.0042
    122  CD2       -9.9160    4.8130   -2.0210 C.ar  291  PHE291     -0.0042
    123  CE1      -11.4570    7.0700   -1.6750 C.ar  291  PHE291     -0.0003
    124  CE2       -9.4620    5.8420   -1.2330 C.ar  291  PHE291     -0.0003
    125  CZ       -10.2330    6.9670   -1.0550 C.ar  291  PHE291     -0.0000
@<TRIPOS>BOND
     1   104   105    1
     2   115   116    1
     3   118   117    2
     4   117   116    1
     5   116   119    1
     6   105   106    1
     7   105   108    1
     8   106   107    2
     9   110   112   ar
    10   110   109   ar
    11   112   114   ar
    12   108   109    1
    13   119   120    1
    14   109   111   ar
    15   114   113   ar
    16   120   121   ar
    17   120   122   ar
    18   121   123   ar
    19   111   113   ar
    20   122   124   ar
    21   123   125   ar
    22    94    93    1
    23    94    95    2
    24    91    89    1
    25   124   125   ar
    26    92    93    1
    27    93    96    1
    28    86    85    1
    29    86    87    2
    30    88    85    1
    31    88    89    1
    32    90    89    1
    33    85    84    1
    34    80    79    2
    35    96    97    1
    36    84    79   am
    37    79    78    1
    38    15    14   ar
    39    98    97   ar
    40    98   100   ar
    41     9    10    1
    42    97    99   ar
    43    83    81    1
    44    16    14   ar
    45   100   102   ar
    46    14    13    1
    47    99   101   ar
    48    10    13    1
    49    10    11    1
    50   102   101   ar
    51   102   103    1
    52    78    81    1
    53    78    77    1
    54    81    82    1
    55    11    17   am
    56    11    12    2
    57     1     2    1
    58    17    18    1
    59    20    19    2
    60     3     4    2
    61     3     2    1
    62    19    18    1
    63     2     5    1
    64    18    21    1
    65     6     5    1
    66     6     8    1
    67     5     7    1
    68    73    74    1
    69    75    74    1
    70    75    76    2
    71    28    27   ar
    72    55    54   ar
    73    29    27   ar
    74    27    26    1
    75    34    31    1
    76    34    35    1
    77    64    62    1
    78    56    54   ar
    79    37    35   ar
    80    54    53    1
    81    31    30    1
    82    31    32    1
    83    62    61    1
    84    35    36   ar
    85    23    26    1
    86    23    24    1
    87    23    22    1
    88    24    25    2
    89    33    32    2
    90    53    50    1
    91    50    51    1
    92    50    49    1
    93    61    58    1
    94    61    63    1
    95    57    58    1
    96    51    52    2
    97    58    59    1
    98    72    70    1
    99    70    71    1
   100    70    69    1
   101    59    60    2
   102    46    44   ar
   103    46    48   ar
   104    66    69    1
   105    66    67    1
   106    66    65    1
   107    38    39    1
   108    44    43   ar
   109    41    40    2
   110    48    47   ar
   111    67    68    2
   112    39    40    1
   113    39    42    1
   114    43    42    1
   115    43    45   ar
   116    47    45   ar
