@<TRIPOS>MOLECULE
tmp/4y53A01.pdb
 98 91 0 0 0
SMALL
GASTEIGER

@<TRIPOS>ATOM
      1  N          6.3870    3.2240    9.1030 N.3    37  GLY37      -0.1225
      2  CA         5.9090    4.5470    9.4420 C.3    37  GLY37       0.1811
      3  C          5.6950    4.7530   10.9330 C.2    37  GLY37       0.2280
      4  O          5.3140    5.8500   11.3650 O.2    37  GLY37      -0.2866
      5  N         -2.4200    6.8640   15.2040 N.3    79  TYR79      -0.1227
      6  CA        -1.9150    6.8700   13.8380 C.3    79  TYR79       0.1736
      7  C         -2.5920    7.9350   12.9870 C.2    79  TYR79       0.2596
      8  O         -3.6300    8.4740   13.3590 O.2    79  TYR79      -0.2718
      9  CB        -2.0830    5.4890   13.2060 C.3    79  TYR79       0.0548
     10  CG        -1.3270    4.4120   13.9490 C.ar   79  TYR79      -0.0200
     11  CD1        0.0500    4.2710   13.7990 C.ar   79  TYR79      -0.0009
     12  CD2       -1.9820    3.5500   14.8150 C.ar   79  TYR79      -0.0009
     13  CE1        0.7460    3.2940   14.4760 C.ar   79  TYR79       0.0417
     14  CE2       -1.2960    2.5780   15.5040 C.ar   79  TYR79       0.0417
     15  CZ         0.0660    2.4470   15.3290 C.ar   79  TYR79       0.1957
     16  OH         0.7510    1.4670   16.0110 O.3    79  TYR79      -0.2866
     17  N         -1.9900    8.2190   11.8360 N.am   80  GLY80      -0.1942
     18  CA        -2.4510    9.2760   10.9580 C.3    80  GLY80       0.2014
     19  C         -3.8640    9.0820   10.4650 C.2    80  GLY80       0.2638
     20  O         -4.5530   10.0560   10.1480 O.2    80  GLY80      -0.2714
     21  N         -4.2970    7.8260   10.3910 N.am   81  ASP81      -0.1971
     22  CA        -5.6230    7.5060    9.8700 C.3    81  ASP81       0.1709
     23  C         -6.6930    7.5490   10.9530 C.2    81  ASP81       0.2293
     24  O         -7.8370    7.1850   10.7090 O.2    81  ASP81      -0.2864
     25  CB        -5.6230    6.1320    9.1930 C.3    81  ASP81       0.1436
     26  CG        -5.1980    5.0090   10.1280 C.2    81  ASP81       0.3671
     27  OD1       -5.0020    5.2580   11.3390 O.co2  81  ASP81      -0.2456
     28  OD2       -5.0600    3.8660    9.6410 O.co2  81  ASP81      -0.2456
     29  N         11.1230    9.3200   10.5250 N.3   194  PHE194     -0.1241
     30  CA        10.6680    8.4750    9.4180 C.3   194  PHE194      0.1605
     31  C         11.7660    8.1780    8.4160 C.2   194  PHE194      0.2264
     32  O         12.8410    8.7870    8.4370 O.2   194  PHE194     -0.2867
     33  CB         9.5020    9.1210    8.6490 C.3   194  PHE194      0.0534
     34  CG         8.3530    9.5390    9.5100 C.ar  194  PHE194     -0.0203
     35  CD1        7.6640    8.6110   10.2720 C.ar  194  PHE194     -0.0042
     36  CD2        7.9410   10.8590    9.5280 C.ar  194  PHE194     -0.0042
     37  CE1        6.6060    8.9990   11.0560 C.ar  194  PHE194     -0.0003
     38  CE2        6.8860   11.2480   10.3090 C.ar  194  PHE194     -0.0003
     39  CZ         6.2290   10.3180   11.0880 C.ar  194  PHE194     -0.0000
     40  N          7.6980   10.0480    2.7880 N.3   217  ILE217     -0.1245
     41  CA         8.2200    8.9370    3.5750 C.3   217  ILE217      0.1561
     42  C          7.8810    7.6010    2.9180 C.2   217  ILE217      0.2260
     43  O          6.8400    7.4480    2.2780 O.2   217  ILE217     -0.2867
     44  CB         7.6930    8.9890    5.0230 C.3   217  ILE217      0.0252
     45  CG1        6.1670    8.8380    5.0610 C.3   217  ILE217      0.0019
     46  CG2        8.1180   10.3060    5.6490 C.3   217  ILE217      0.0019
     47  CD1        5.6030    8.6160    6.4650 C.3   217  ILE217      0.0001
     48  N          6.5670    4.2840    3.5830 N.3   219  ASP219     -0.1239
     49  CA         5.7470    3.7880    4.6850 C.3   219  ASP219      0.1674
     50  C          4.9710    2.5260    4.3250 C.2   219  ASP219      0.2266
     51  O          3.9100    2.5800    3.6870 O.2   219  ASP219     -0.2867
     52  CB         4.7740    4.8850    5.1450 C.3   219  ASP219      0.1410
     53  CG         3.9770    4.4780    6.3760 C.2   219  ASP219      0.3668
     54  OD1        4.2350    3.3890    6.9250 O.co2 219  ASP219     -0.2456
     55  OD2        3.1180    5.2620    6.8210 O.co2 219  ASP219     -0.2456
     56  N          1.1550    2.3390    5.4600 N.3   222  THR222     -0.1218
     57  CA         0.1080    3.0830    4.7810 C.3   222  THR222      0.1862
     58  C         -0.2080    2.4050    3.4490 C.2   222  THR222      0.2287
     59  O          0.6870    2.0750    2.6780 O.2   222  THR222     -0.2866
     60  CB         0.5190    4.5470    4.5580 C.3   222  THR222      0.1770
     61  OG1        0.6010    5.2230    5.8300 O.3   222  THR222     -0.2211
     62  CG2       -0.5060    5.2780    3.6550 C.3   222  THR222      0.0375
     63  N          0.0810    8.8720   -1.1820 N.3   226  TYR226     -0.1241
     64  CA        -0.4130   10.2280   -0.9260 C.3   226  TYR226      0.1605
     65  C          0.6060   11.2520   -1.3820 C.2   226  TYR226      0.2264
     66  O          1.7380   11.2780   -0.8990 O.2   226  TYR226     -0.2867
     67  CB        -0.7340   10.4330    0.5600 C.3   226  TYR226      0.0534
     68  CG        -1.8520    9.5390    1.0560 C.ar  226  TYR226     -0.0201
     69  CD1       -3.1690    9.9700    1.0220 C.ar  226  TYR226     -0.0009
     70  CD2       -1.5860    8.2560    1.5410 C.ar  226  TYR226     -0.0009
     71  CE1       -4.1860    9.1660    1.4640 C.ar  226  TYR226      0.0417
     72  CE2       -2.5940    7.4410    1.9940 C.ar  226  TYR226      0.0417
     73  CZ        -3.8960    7.8950    1.9490 C.ar  226  TYR226      0.1957
     74  OH        -4.9370    7.0980    2.3840 O.3   226  TYR226     -0.2866
     75  N         -2.8430   15.9940    5.3040 N.3   300  ILE300     -0.1245
     76  CA        -2.0420   15.0430    6.0810 C.3   300  ILE300      0.1561
     77  C         -0.8210   15.7560    6.6280 C.2   300  ILE300      0.2260
     78  O         -0.4370   15.5730    7.7840 O.2   300  ILE300     -0.2867
     79  CB        -1.5720   13.8320    5.2510 C.3   300  ILE300      0.0252
     80  CG1       -2.7600   12.9840    4.8130 C.3   300  ILE300      0.0019
     81  CG2       -0.5970   12.9730    6.0570 C.3   300  ILE300      0.0019
     82  CD1       -2.3630   11.7960    3.9490 C.3   300  ILE300      0.0001
     83  N          2.1550   15.5230    5.1450 N.3   302  ILE302     -0.1245
     84  CA         3.3440   14.8480    4.6620 C.3   302  ILE302      0.1561
     85  C          2.9610   13.9740    3.4820 C.2   302  ILE302      0.2260
     86  O          1.8400   13.4490    3.4200 O.2   302  ILE302     -0.2867
     87  CB         4.0190   14.0130    5.7820 C.3   302  ILE302      0.0252
     88  CG1        5.4540   13.6490    5.3970 C.3   302  ILE302      0.0019
     89  CG2        3.1960   12.7780    6.1130 C.3   302  ILE302      0.0019
     90  CD1        6.3560   13.3730    6.5770 C.3   302  ILE302      0.0001
     91  N          3.2590   10.5610    1.4010 N.3   304  ILE304     -0.1245
     92  CA         3.4720    9.1900    1.8440 C.3   304  ILE304      0.1561
     93  C          3.5420    8.2260    0.6750 C.2   304  ILE304      0.2260
     94  O          2.5500    8.0010   -0.0300 O.2   304  ILE304     -0.2867
     95  CB         2.3580    8.7280    2.8100 C.3   304  ILE304      0.0252
     96  CG1        2.2360    9.6960    3.9920 C.3   304  ILE304      0.0019
     97  CG2        2.6630    7.3270    3.3300 C.3   304  ILE304      0.0019
     98  CD1        0.9910    9.4510    4.8580 C.3   304  ILE304      0.0001
@<TRIPOS>BOND
     1    65    64    1
     2    65    66    2
     3    63    64    1
     4    64    67    1
     5    94    93    2
     6    67    68    1
     7    93    92    1
     8    69    68   ar
     9    69    71   ar
    10    68    70   ar
    11    91    92    1
    12    71    73   ar
    13    70    72   ar
    14    92    95    1
    15    73    72   ar
    16    73    74    1
    17    43    42    2
    18    59    58    2
    19    40    41    1
    20    95    97    1
    21    95    96    1
    22    42    41    1
    23    86    85    2
    24    58    57    1
    25    85    84    1
    26    41    44    1
    27    48    49    1
    28    62    60    1
    29    51    50    2
    30    82    80    1
    31    96    98    1
    32    50    49    1
    33    60    57    1
    34    60    61    1
    35    84    83    1
    36    84    87    1
    37    49    52    1
    38    57    56    1
    39    80    79    1
    40    44    45    1
    41    44    46    1
    42    45    47    1
    43    52    53    1
    44    79    81    1
    45    79    76    1
    46    75    76    1
    47    88    87    1
    48    88    90    1
    49    87    89    1
    50    76    77    1
    51    53    55   ar
    52    53    54   ar
    53    77    78    2
    54    31    32    2
    55    31    30    1
    56    33    30    1
    57    33    34    1
    58     1     2    1
    59    25    22    1
    60    25    26    1
    61    30    29    1
    62     2     3    1
    63    34    36   ar
    64    34    35   ar
    65    36    38   ar
    66    28    26   ar
    67    22    21    1
    68    22    23    1
    69    26    27   ar
    70    20    19    2
    71    35    37   ar
    72    38    39   ar
    73    21    19   am
    74    19    18    1
    75    24    23    2
    76     3     4    2
    77    18    17    1
    78    37    39   ar
    79    17     7   am
    80     7     8    2
    81     7     6    1
    82     9     6    1
    83     9    10    1
    84    11    10   ar
    85    11    13   ar
    86     6     5    1
    87    10    12   ar
    88    13    15   ar
    89    12    14   ar
    90    15    14   ar
    91    15    16    1
