@<TRIPOS>MOLECULE
tmp/4y56A00.pdb
 115 105 0 0 0
SMALL
GASTEIGER

@<TRIPOS>ATOM
      1  N         -3.5660   -4.1590    3.4400 N.3    16  ALA16      -0.1245
      2  CA        -2.3970   -4.2250    4.3160 C.3    16  ALA16       0.1562
      3  C         -1.7670   -5.5840    4.1470 C.2    16  ALA16       0.2260
      4  O         -2.3090   -6.4410    3.4420 O.2    16  ALA16      -0.2867
      5  CB        -2.7700   -3.9710    5.8040 C.3    16  ALA16       0.0290
      6  N          1.4420   -6.3890   11.2510 N.3    33  ASP33      -0.1239
      7  CA         1.5490   -5.4530   10.1460 C.3    33  ASP33       0.1674
      8  C          2.8670   -4.7120   10.3040 C.2    33  ASP33       0.2266
      9  O          2.9740   -3.8510   11.1860 O.2    33  ASP33      -0.2867
     10  CB         0.3530   -4.4950   10.2140 C.3    33  ASP33       0.1410
     11  CG         0.2610   -3.5500    9.0590 C.2    33  ASP33       0.3668
     12  OD1        1.2500   -3.4090    8.3070 O.co2  33  ASP33      -0.2456
     13  OD2       -0.8280   -2.9300    8.9050 O.co2  33  ASP33      -0.2456
     14  N          5.3670   -2.0330    9.7780 N.3    35  ASP35      -0.1239
     15  CA         4.9900   -0.6650    9.5030 C.3    35  ASP35       0.1674
     16  C          6.2120    0.2460    9.5500 C.2    35  ASP35       0.2266
     17  O          6.6510    0.6410   10.6400 O.2    35  ASP35      -0.2867
     18  CB         3.9340   -0.2080   10.5310 C.3    35  ASP35       0.1410
     19  CG         3.5060    1.2280   10.3400 C.2    35  ASP35       0.3668
     20  OD1        3.8440    1.8440    9.3120 O.co2  35  ASP35      -0.2456
     21  OD2        2.8170    1.7610   11.2480 O.co2  35  ASP35      -0.2456
     22  N          6.3600    3.2280    8.9630 N.3    37  GLY37      -0.1225
     23  CA         5.9070    4.5380    9.3700 C.3    37  GLY37       0.1811
     24  C          5.6360    4.7120   10.8620 C.2    37  GLY37       0.2280
     25  O          5.2200    5.8020   11.2690 O.2    37  GLY37      -0.2866
     26  N         -2.6270    6.9480   15.1380 N.3    79  TYR79      -0.1227
     27  CA        -2.1160    6.8920   13.7810 C.3    79  TYR79       0.1736
     28  C         -2.7960    7.9090   12.8810 C.2    79  TYR79       0.2596
     29  O         -3.7650    8.5380   13.2790 O.2    79  TYR79      -0.2718
     30  CB        -2.2920    5.4960   13.2250 C.3    79  TYR79       0.0548
     31  CG        -1.5280    4.4250   13.9830 C.ar   79  TYR79      -0.0200
     32  CD1       -0.1690    4.2360   13.7610 C.ar   79  TYR79      -0.0009
     33  CD2       -2.1590    3.6040   14.9100 C.ar   79  TYR79      -0.0009
     34  CE1        0.5390    3.2710   14.4250 C.ar   79  TYR79       0.0417
     35  CE2       -1.4500    2.6190   15.5900 C.ar   79  TYR79       0.0417
     36  CZ        -0.0990    2.4580   15.3400 C.ar   79  TYR79       0.1957
     37  OH         0.6200    1.4890   16.0050 O.3    79  TYR79      -0.2866
     38  N         -2.2880    8.0300   11.6570 N.am   80  GLY80      -0.1942
     39  CA        -2.7680    9.0090   10.6930 C.3    80  GLY80       0.2014
     40  C         -4.2180    8.8980   10.2710 C.2    80  GLY80       0.2638
     41  O         -4.7950    9.8830    9.7920 O.2    80  GLY80      -0.2714
     42  N         -4.8040    7.7090   10.4080 N.am   81  ASP81      -0.1971
     43  CA        -6.2030    7.5080   10.0300 C.3    81  ASP81       0.1709
     44  C         -7.1340    7.7030   11.2240 C.2    81  ASP81       0.2293
     45  O         -8.3390    7.4900   11.1270 O.2    81  ASP81      -0.2864
     46  CB        -6.3960    6.1220    9.4320 C.3    81  ASP81       0.1436
     47  CG        -6.1250    5.0210   10.4300 C.2    81  ASP81       0.3671
     48  OD1       -5.5110    5.3120   11.4710 O.co2  81  ASP81      -0.2456
     49  OD2       -6.5080    3.8620   10.1740 O.co2  81  ASP81      -0.2456
     50  N         -6.9270    6.0530   14.0510 N.3    83  SER83      -0.1217
     51  CA        -6.9880    4.8650   14.8940 C.3    83  SER83       0.1889
     52  C         -5.9440    4.9800   15.9980 C.2    83  SER83       0.2288
     53  O         -5.0620    5.8350   15.9510 O.2    83  SER83      -0.2866
     54  CB        -6.7790    3.5960   14.0760 C.3    83  SER83       0.2089
     55  OG        -5.4680    3.5180   13.5590 O.3    83  SER83      -0.2183
     56  N        -11.2190    0.3940   14.4670 N.3   115  SER115     -0.1202
     57  CA       -10.7400   -0.1370   13.1930 C.3   115  SER115      0.2020
     58  C         -9.7950   -1.3170   13.3970 C.2   115  SER115      0.2618
     59  O         -9.7000   -2.1830   12.5300 O.2   115  SER115     -0.2717
     60  CB       -10.0750    0.9460   12.3370 C.3   115  SER115      0.2103
     61  OG        -8.8550    1.3950   12.8770 O.3   115  SER115     -0.2182
     62  N         -9.0990   -1.3650   14.5310 N.am  116  PHE116     -0.1975
     63  CA        -8.2780   -2.5420   14.8120 C.3   116  PHE116      0.1639
     64  C         -9.1590   -3.7300   15.1950 C.2   116  PHE116      0.2290
     65  O         -8.9570   -4.8470   14.7290 O.2   116  PHE116     -0.2864
     66  CB        -7.2610   -2.2260   15.9080 C.3   116  PHE116      0.0560
     67  CG        -6.1560   -1.3170   15.4490 C.ar  116  PHE116     -0.0200
     68  CD1       -5.2560   -1.7400   14.4970 C.ar  116  PHE116     -0.0042
     69  CD2       -6.0150   -0.0320   15.9860 C.ar  116  PHE116     -0.0042
     70  CE1       -4.2370   -0.9190   14.0610 C.ar  116  PHE116     -0.0003
     71  CE2       -4.9780    0.8030   15.5680 C.ar  116  PHE116     -0.0003
     72  CZ        -4.0980    0.3740   14.5940 C.ar  116  PHE116     -0.0000
     73  N        -10.7340   -5.4260   12.2190 N.3   119  ASP119     -0.1239
     74  CA        -9.8610   -6.1410   11.3200 C.3   119  ASP119      0.1674
     75  C         -9.2850   -7.3860   11.9850 C.2   119  ASP119      0.2266
     76  O         -8.2510   -7.3150   12.6520 O.2   119  ASP119     -0.2867
     77  CB        -8.7340   -5.2700   10.8440 C.3   119  ASP119      0.1410
     78  CG        -7.8900   -5.9750    9.8310 C.2   119  ASP119      0.3668
     79  OD1       -8.3010   -7.0730    9.3680 O.co2 119  ASP119     -0.2456
     80  OD2       -6.8280   -5.4370    9.5050 O.co2 119  ASP119     -0.2456
     81  N         -5.3280   -8.6850   11.4910 N.3   122  ILE122     -0.1245
     82  CA        -4.1080   -8.0420   11.9780 C.3   122  ILE122      0.1561
     83  C         -4.0270   -8.1590   13.5030 C.2   122  ILE122      0.2260
     84  O         -4.8950   -7.6580   14.2280 O.2   122  ILE122     -0.2867
     85  CB        -4.0650   -6.5870   11.5070 C.3   122  ILE122      0.0252
     86  CG1       -3.8770   -6.5730    9.9820 C.3   122  ILE122      0.0019
     87  CG2       -2.9320   -5.7810   12.2330 C.3   122  ILE122      0.0019
     88  CD1       -3.8120   -5.1660    9.3790 C.3   122  ILE122      0.0001
     89  N          0.9930   -4.5200   15.2760 N.3   125  LEU125     -0.1245
     90  CA         1.9050   -3.8190   14.3670 C.3   125  LEU125      0.1561
     91  C          3.3350   -4.0740   14.8230 C.2   125  LEU125      0.2260
     92  O          3.6110   -4.2360   16.0230 O.2   125  LEU125     -0.2867
     93  CB         1.6210   -2.3090   14.3450 C.3   125  LEU125      0.0270
     94  CG         0.6810   -1.8580   13.2030 C.3   125  LEU125      0.0019
     95  CD1       -0.7130   -2.5040   13.3800 C.3   125  LEU125      0.0001
     96  CD2        0.5940   -0.3330   13.2050 C.3   125  LEU125      0.0001
     97  N          6.4700    4.2260    3.5880 N.3   219  ASP219     -0.1239
     98  CA         5.6210    3.7520    4.6820 C.3   219  ASP219      0.1674
     99  C          4.8450    2.4880    4.3070 C.2   219  ASP219      0.2266
    100  O          3.7970    2.5350    3.6600 O.2   219  ASP219     -0.2867
    101  CB         4.6590    4.8690    5.1140 C.3   219  ASP219      0.1410
    102  CG         3.8090    4.4760    6.2920 C.2   219  ASP219      0.3668
    103  OD1        3.9930    3.3630    6.8350 O.co2 219  ASP219     -0.2456
    104  OD2        2.9940    5.3070    6.7120 O.co2 219  ASP219     -0.2456
    105  N          3.1820    0.7190    6.1950 N.3   221  GLY221     -0.1210
    106  CA         1.9510    0.6230    6.9560 C.3   221  GLY221      0.1956
    107  C          0.8160    1.4920    6.4460 C.2   221  GLY221      0.2612
    108  O         -0.2490    1.5190    7.0540 O.2   221  GLY221     -0.2717
    109  N          1.0340    2.2060    5.3480 N.am  222  THR222     -0.1952
    110  CA        -0.0230    2.9880    4.7180 C.3   222  THR222      0.1897
    111  C         -0.3770    2.3220    3.3930 C.2   222  THR222      0.2313
    112  O          0.5050    1.9440    2.6450 O.2   222  THR222     -0.2863
    113  CB         0.4100    4.4490    4.5090 C.3   222  THR222      0.1794
    114  OG1        0.4800    5.0850    5.7920 O.3   222  THR222     -0.2208
    115  CG2       -0.6270    5.2360    3.6450 C.3   222  THR222      0.0378
@<TRIPOS>BOND
     1   112   111    2
     2   111   110    1
     3     1     2    1
     4     4     3    2
     5    97    98    1
     6   115   113    1
     7   100    99    2
     8     3     2    1
     9    99    98    1
    10     2     5    1
    11   113   110    1
    12   113   114    1
    13    98   101    1
    14   110   109    1
    15   101   102    1
    16   109   107   am
    17   105   106    1
    18   102   104   ar
    19   102   103   ar
    20   107   106    1
    21   107   108    2
    22    12    11   ar
    23    13    11   ar
    24    22    23    1
    25    11    10    1
    26    20    19   ar
    27    79    78   ar
    28    23    24    1
    29    88    86    1
    30    46    43    1
    31    46    47    1
    32    15    16    1
    33    15    14    1
    34    15    18    1
    35    80    78   ar
    36    16    17    2
    37    41    40    2
    38    78    77    1
    39    86    85    1
    40    43    42    1
    41    43    44    1
    42     7    10    1
    43     7     8    1
    44     7     6    1
    45    49    47   ar
    46    40    42   am
    47    40    39    1
    48     8     9    2
    49    19    18    1
    50    19    21   ar
    51    47    48   ar
    52    39    38    1
    53    77    74    1
    54    24    25    2
    55    45    44    2
    56    74    75    1
    57    74    73    1
    58    81    82    1
    59    85    82    1
    60    85    87    1
    61    38    28   am
    62    82    83    1
    63    75    76    2
    64    60    61    1
    65    60    57    1
    66    59    58    2
    67    28    29    2
    68    28    27    1
    69    57    58    1
    70    57    56    1
    71    94    96    1
    72    94    95    1
    73    94    93    1
    74    30    27    1
    75    30    31    1
    76    58    62   am
    77    83    84    2
    78    55    54    1
    79    32    31   ar
    80    32    34   ar
    81    27    26    1
    82    31    33   ar
    83    50    51    1
    84    70    68   ar
    85    70    72   ar
    86    54    51    1
    87    93    90    1
    88    90    91    1
    89    90    89    1
    90    34    36   ar
    91    68    67   ar
    92    62    63    1
    93    72    71   ar
    94    65    64    2
    95    63    64    1
    96    63    66    1
    97    91    92    2
    98    51    52    1
    99    33    35   ar
   100    36    35   ar
   101    36    37    1
   102    67    66    1
   103    67    69   ar
   104    71    69   ar
   105    53    52    2
