@<TRIPOS>MOLECULE
tmp/4y57A00.pdb
 110 101 0 0 0
SMALL
GASTEIGER

@<TRIPOS>ATOM
      1  N         46.9730   -4.9550   11.3080 N.3    33  ASP33      -0.1239
      2  CA        47.1060   -4.0110   10.2010 C.3    33  ASP33       0.1674
      3  C         48.4440   -3.2820   10.3490 C.2    33  ASP33       0.2266
      4  O         48.6100   -2.4470   11.2450 O.2    33  ASP33      -0.2867
      5  CB        45.9220   -3.0340   10.2870 C.3    33  ASP33       0.1410
      6  CG        45.8250   -2.0870    9.1210 C.2    33  ASP33       0.3668
      7  OD1       46.7960   -1.9490    8.3480 O.co2  33  ASP33      -0.2456
      8  OD2       44.7420   -1.4570    9.0000 O.co2  33  ASP33      -0.2456
      9  N         50.9730   -0.5830    9.7980 N.3    35  ASP35      -0.1239
     10  CA        50.6340    0.8210    9.5440 C.3    35  ASP35       0.1674
     11  C         51.8580    1.7280    9.6040 C.2    35  ASP35       0.2266
     12  O         52.2980    2.1090   10.6930 O.2    35  ASP35      -0.2867
     13  CB        49.5920    1.2750   10.5870 C.3    35  ASP35       0.1410
     14  CG        49.1620    2.7170   10.4080 C.2    35  ASP35       0.3668
     15  OD1       49.5620    3.3240    9.3850 O.co2  35  ASP35      -0.2456
     16  OD2       48.4200    3.2410   11.2980 O.co2  35  ASP35      -0.2456
     17  N         52.0370    4.7350    9.0120 N.3    37  GLY37      -0.1225
     18  CA        51.6220    6.0560    9.4280 C.3    37  GLY37       0.1811
     19  C         51.3370    6.2240   10.9210 C.2    37  GLY37       0.2280
     20  O         50.8910    7.2960   11.3370 O.2    37  GLY37      -0.2866
     21  N         42.9470    8.0140   14.8120 N.3    79  TYR79      -0.1227
     22  CA        43.4090    7.9220   13.4250 C.3    79  TYR79       0.1736
     23  C         42.6600    8.8930   12.5150 C.2    79  TYR79       0.2596
     24  O         41.6110    9.4350   12.8880 O.2    79  TYR79      -0.2718
     25  CB        43.2790    6.4860   12.9150 C.3    79  TYR79       0.0548
     26  CG        44.0720    5.4920   13.7480 C.ar   79  TYR79      -0.0200
     27  CD1       43.4570    4.7300   14.7250 C.ar   79  TYR79      -0.0009
     28  CD2       45.4440    5.3330   13.5600 C.ar   79  TYR79      -0.0009
     29  CE1       44.1770    3.8270   15.4910 C.ar   79  TYR79       0.0417
     30  CE2       46.1740    4.4310   14.3190 C.ar   79  TYR79       0.0417
     31  CZ        45.5320    3.6740   15.2760 C.ar   79  TYR79       0.1957
     32  OH        46.2500    2.7740   16.0320 O.3    79  TYR79      -0.2866
     33  N         43.2110    9.0930   11.3180 N.am   80  GLY80      -0.1942
     34  CA        42.7210   10.0960   10.3890 C.3    80  GLY80       0.2014
     35  C         41.3250    9.8400    9.8470 C.2    80  GLY80       0.2638
     36  O         40.7080   10.7430    9.2680 O.2    80  GLY80      -0.2714
     37  N         40.8370    8.6120   10.0110 N.am   81  ASP81      -0.1971
     38  CA        39.4920    8.2500    9.5710 C.3    81  ASP81       0.1709
     39  C         38.4400    8.4330   10.6720 C.2    81  ASP81       0.2293
     40  O         37.2900    8.0240   10.5030 O.2    81  ASP81      -0.2864
     41  CB        39.4650    6.8120    9.0230 C.3    81  ASP81       0.1436
     42  CG        39.7760    5.7680   10.0790 C.2    81  ASP81       0.3671
     43  OD1       40.0470    6.1520   11.2400 O.co2  81  ASP81      -0.2456
     44  OD2       39.7590    4.5640    9.7350 O.co2  81  ASP81      -0.2456
     45  N         38.5580    7.1230   13.7700 N.3    83  SER83      -0.1217
     46  CA        38.5080    6.0040   14.7110 C.3    83  SER83       0.1889
     47  C         39.5210    6.1960   15.8460 C.2    83  SER83       0.2288
     48  O         40.4280    7.0300   15.7460 O.2    83  SER83      -0.2866
     49  CB        38.7530    4.6820   13.9770 C.3    83  SER83       0.2089
     50  OG        40.0970    4.5660   13.5280 O.3    83  SER83      -0.2183
     51  N         34.0330    1.6880   14.5180 N.3   115  SER115     -0.1202
     52  CA        34.5160    1.1390   13.2560 C.3   115  SER115      0.2020
     53  C         35.5580    0.0330   13.4530 C.2   115  SER115      0.2618
     54  O         35.7840   -0.7580   12.5450 O.2   115  SER115     -0.2717
     55  CB        35.0430    2.2430   12.3290 C.3   115  SER115      0.2103
     56  OG        36.2790    2.7590   12.7670 O.3   115  SER115     -0.2182
     57  N         36.2010   -0.0170   14.6240 N.am  116  PHE116     -0.1975
     58  CA        37.0410   -1.1650   14.9650 C.3   116  PHE116      0.1639
     59  C         36.1770   -2.3800   15.3140 C.2   116  PHE116      0.2290
     60  O         36.3980   -3.4770   14.8070 O.2   116  PHE116     -0.2864
     61  CB        38.0240   -0.8370   16.0990 C.3   116  PHE116      0.0560
     62  CG        39.2140   -0.0050   15.6510 C.ar  116  PHE116     -0.0200
     63  CD1       40.1420   -0.5190   14.7480 C.ar  116  PHE116     -0.0042
     64  CD2       39.3880    1.2910   16.1150 C.ar  116  PHE116     -0.0042
     65  CE1       41.2090    0.2270   14.3280 C.ar  116  PHE116     -0.0003
     66  CE2       40.4810    2.0530   15.7000 C.ar  116  PHE116     -0.0003
     67  CZ        41.3830    1.5280   14.8020 C.ar  116  PHE116     -0.0000
     68  N         34.7080   -4.1270   12.2870 N.3   119  ASP119     -0.1239
     69  CA        35.5710   -4.8760   11.3940 C.3   119  ASP119      0.1674
     70  C         36.1940   -6.0840   12.0640 C.2   119  ASP119      0.2266
     71  O         37.2400   -5.9930   12.7210 O.2   119  ASP119     -0.2867
     72  CB        36.6570   -4.0280   10.8100 C.3   119  ASP119      0.1410
     73  CG        37.2200   -4.6480    9.5420 C.2   119  ASP119      0.3668
     74  OD1       37.0850   -5.8930    9.3440 O.co2 119  ASP119     -0.2456
     75  OD2       37.7740   -3.8870    8.7400 O.co2 119  ASP119     -0.2456
     76  N         40.1760   -7.3280   11.5670 N.3   122  ILE122     -0.1245
     77  CA        41.3610   -6.6290   12.0910 C.3   122  ILE122      0.1561
     78  C         41.4490   -6.7640   13.6120 C.2   122  ILE122      0.2260
     79  O         40.5910   -6.2590   14.3340 O.2   122  ILE122     -0.2867
     80  CB        41.3750   -5.1470   11.6480 C.3   122  ILE122      0.0252
     81  CG1       41.5640   -5.0670   10.1200 C.3   122  ILE122      0.0019
     82  CG2       42.4720   -4.3570   12.3810 C.3   122  ILE122      0.0019
     83  CD1       41.4330   -3.6580    9.5590 C.3   122  ILE122      0.0001
     84  N         46.5660   -3.1280   15.3930 N.3   125  LEU125     -0.1245
     85  CA        47.5010   -2.4190   14.5110 C.3   125  LEU125      0.1561
     86  C         48.9320   -2.6660   14.9390 C.2   125  LEU125      0.2260
     87  O         49.2000   -2.8340   16.1250 O.2   125  LEU125     -0.2867
     88  CB        47.2390   -0.9020   14.5130 C.3   125  LEU125      0.0270
     89  CG        46.2940   -0.5060   13.3590 C.3   125  LEU125      0.0019
     90  CD1       44.8620   -1.0160   13.5840 C.3   125  LEU125      0.0001
     91  CD2       46.2900    0.9680   13.1290 C.3   125  LEU125      0.0001
     92  N         52.0840    5.7460    3.6490 N.3   219  ASP219     -0.1239
     93  CA        51.2160    5.2830    4.7370 C.3   219  ASP219      0.1674
     94  C         50.4340    4.0250    4.3670 C.2   219  ASP219      0.2266
     95  O         49.3640    4.1040    3.7350 O.2   219  ASP219     -0.2867
     96  CB        50.2410    6.3920    5.1560 C.3   219  ASP219      0.1410
     97  CG        49.4160    6.0090    6.3650 C.2   219  ASP219      0.3668
     98  OD1       48.5790    6.8330    6.7870 O.co2 219  ASP219     -0.2456
     99  OD2       49.6240    4.8890    6.9010 O.co2 219  ASP219     -0.2456
    100  N         48.7320    2.2480    6.2580 N.3   221  GLY221     -0.1210
    101  CA        47.5130    2.1880    7.0520 C.3   221  GLY221      0.1956
    102  C         46.3480    3.0210    6.5260 C.2   221  GLY221      0.2612
    103  O         45.2530    2.9810    7.0890 O.2   221  GLY221     -0.2717
    104  N         46.5890    3.7930    5.4700 N.am  222  THR222     -0.1952
    105  CA        45.5360    4.5370    4.7780 C.3   222  THR222      0.1897
    106  C         45.2160    3.8700    3.4400 C.2   222  THR222      0.2313
    107  O         46.1160    3.5260    2.6810 O.2   222  THR222     -0.2863
    108  CB        45.9630    6.0060    4.5630 C.3   222  THR222      0.1794
    109  OG1       46.0600    6.6780    5.8260 O.3   222  THR222     -0.2208
    110  CG2       44.9770    6.7430    3.6840 C.3   222  THR222      0.0378
@<TRIPOS>BOND
     1   107   106    2
     2   106   105    1
     3    92    93    1
     4   110   108    1
     5    95    94    2
     6    94    93    1
     7   108   105    1
     8   108   109    1
     9    93    96    1
    10   105   104    1
    11    96    97    1
    12   104   102   am
    13   100   101    1
    14    97    98   ar
    15    97    99   ar
    16   102   101    1
    17   102   103    2
    18     7     6   ar
    19    75    73   ar
    20     8     6   ar
    21    17    18    1
    22    41    38    1
    23    41    42    1
    24     6     5    1
    25    36    35    2
    26    74    73   ar
    27    15    14   ar
    28    18    19    1
    29    73    72    1
    30    10    11    1
    31    10     9    1
    32    10    13    1
    33    83    81    1
    34    38    37    1
    35    38    39    1
    36    11    12    2
    37    44    42   ar
    38    35    37   am
    39    35    34    1
    40    42    43   ar
    41    81    80    1
    42     2     5    1
    43     2     3    1
    44     2     1    1
    45     3     4    2
    46    34    33    1
    47    14    13    1
    48    14    16   ar
    49    40    39    2
    50    72    69    1
    51    19    20    2
    52    33    23   am
    53    69    70    1
    54    69    68    1
    55    76    77    1
    56    80    77    1
    57    80    82    1
    58    70    71    2
    59    77    78    1
    60    55    56    1
    61    55    52    1
    62    23    24    2
    63    23    22    1
    64    54    53    2
    65    25    22    1
    66    25    26    1
    67    91    89    1
    68    52    53    1
    69    52    51    1
    70    89    90    1
    71    89    88    1
    72    22    21    1
    73    53    57   am
    74    50    49    1
    75    28    26   ar
    76    28    30   ar
    77    78    79    2
    78    26    27   ar
    79    45    46    1
    80    49    46    1
    81    30    31   ar
    82    65    63   ar
    83    65    67   ar
    84    85    88    1
    85    85    86    1
    86    85    84    1
    87    57    58    1
    88    46    47    1
    89    27    29   ar
    90    63    62   ar
    91    67    66   ar
    92    60    59    2
    93    86    87    2
    94    58    59    1
    95    58    61    1
    96    31    29   ar
    97    31    32    1
    98    62    61    1
    99    62    64   ar
   100    66    64   ar
   101    48    47    2
