@<TRIPOS>MOLECULE
tmp/4y58A02.pdb
 137 126 0 0 0
SMALL
GASTEIGER

@<TRIPOS>ATOM
      1  N          1.4240   -6.3700   11.2920 N.3    33  ASP33      -0.1239
      2  CA         1.5380   -5.4260   10.1840 C.3    33  ASP33       0.1674
      3  C          2.8520   -4.6720   10.3400 C.2    33  ASP33       0.2266
      4  O          2.9890   -3.8320   11.2270 O.2    33  ASP33      -0.2867
      5  CB         0.3140   -4.4960   10.2490 C.3    33  ASP33       0.1410
      6  CG         0.2250   -3.5010    9.1330 C.2    33  ASP33       0.3668
      7  OD1        1.1600   -3.3740    8.3090 O.co2  33  ASP33      -0.2456
      8  OD2       -0.8330   -2.8160    9.1060 O.co2  33  ASP33      -0.2456
      9  N          5.3680   -1.9730    9.8050 N.3    35  ASP35      -0.1239
     10  CA         5.0120   -0.5910    9.5480 C.3    35  ASP35       0.1674
     11  C          6.2440    0.3080    9.6060 C.2    35  ASP35       0.2266
     12  O          6.6840    0.7040   10.6870 O.2    35  ASP35      -0.2867
     13  CB         3.9760   -0.1550   10.5880 C.3    35  ASP35       0.1410
     14  CG         3.5360    1.2740   10.4160 C.2    35  ASP35       0.3668
     15  OD1        3.7970    1.8370    9.3390 O.co2  35  ASP35      -0.2456
     16  OD2        2.8970    1.8190   11.3450 O.co2  35  ASP35      -0.2456
     17  N          6.3770    3.2980    8.9800 N.3    37  GLY37      -0.1210
     18  CA         5.9410    4.6210    9.4020 C.3    37  GLY37       0.1956
     19  C          5.6820    4.8010   10.8940 C.2    37  GLY37       0.2612
     20  O          5.2090    5.8590   11.3070 O.2    37  GLY37      -0.2717
     21  N          5.9850    3.7970   11.7060 N.am   38  SER38      -0.1952
     22  CA         5.8720    3.9480   13.1610 C.3    38  SER38       0.1924
     23  C          6.9000    3.0600   13.8340 C.2    38  SER38       0.2314
     24  O          7.6040    2.2980   13.1650 O.2    38  SER38      -0.2863
     25  CB         4.4610    3.6210   13.6560 C.3    38  SER38       0.2116
     26  OG         4.1780    2.2420   13.5470 O.3    38  SER38      -0.2180
     27  N         -2.7190    6.9680   15.0410 N.3    79  TYR79      -0.1227
     28  CA        -2.2250    6.9490   13.6780 C.3    79  TYR79       0.1736
     29  C         -2.9900    7.9540   12.8300 C.2    79  TYR79       0.2596
     30  O         -4.0050    8.5000   13.2650 O.2    79  TYR79      -0.2718
     31  CB        -2.3560    5.5400   13.1140 C.3    79  TYR79       0.0548
     32  CG        -1.5580    4.4980   13.8800 C.ar   79  TYR79      -0.0200
     33  CD1       -2.1530    3.6930   14.8440 C.ar   79  TYR79      -0.0009
     34  CD2       -0.2040    4.3360   13.6490 C.ar   79  TYR79      -0.0009
     35  CE1       -1.4280    2.7350   15.5340 C.ar   79  TYR79       0.0417
     36  CE2        0.5400    3.3800   14.3330 C.ar   79  TYR79       0.0417
     37  CZ        -0.0810    2.5850   15.2830 C.ar   79  TYR79       0.1957
     38  OH         0.6120    1.6160   15.9890 O.3    79  TYR79      -0.2866
     39  N         -2.4960    8.1970   11.6200 N.am   80  GLY80      -0.1942
     40  CA        -3.0470    9.2240   10.7510 C.3    80  GLY80       0.2014
     41  C         -4.4620    8.9750   10.2630 C.2    80  GLY80       0.2638
     42  O         -5.1200    9.8990    9.7810 O.2    80  GLY80      -0.2714
     43  N         -4.9280    7.7320   10.3720 N.am   81  ASP81      -0.1971
     44  CA        -6.3010    7.3930   10.0060 C.3    81  ASP81       0.1709
     45  C         -7.2460    7.5600   11.1920 C.2    81  ASP81       0.2293
     46  O         -8.4290    7.2250   11.1060 O.2    81  ASP81      -0.2864
     47  CB        -6.3770    5.9660    9.4620 C.3    81  ASP81       0.1436
     48  CG        -6.0400    4.9170   10.5050 C.2    81  ASP81       0.3671
     49  OD1       -5.5090    5.2710   11.5790 O.co2  81  ASP81      -0.2456
     50  OD2       -6.3010    3.7260   10.2410 O.co2  81  ASP81      -0.2456
     51  N         -7.0380    6.0170   14.0430 N.3    83  SER83      -0.1217
     52  CA        -7.0580    4.8420   14.9090 C.3    83  SER83       0.1889
     53  C         -6.0490    5.0050   16.0360 C.2    83  SER83       0.2288
     54  O         -5.1660    5.8640   15.9880 O.2    83  SER83      -0.2866
     55  CB        -6.7750    3.5640   14.1180 C.3    83  SER83       0.2089
     56  OG        -5.4420    3.5190   13.6440 O.3    83  SER83      -0.2183
     57  N         -9.1920   -1.3180   14.5930 N.3   116  PHE116     -0.1241
     58  CA        -8.3390   -2.4620   14.8880 C.3   116  PHE116      0.1605
     59  C         -9.2090   -3.6680   15.2510 C.2   116  PHE116      0.2264
     60  O         -8.9850   -4.7690   14.7610 O.2   116  PHE116     -0.2867
     61  CB        -7.3170   -2.1420   15.9810 C.3   116  PHE116      0.0534
     62  CG        -6.2000   -1.2470   15.5180 C.ar  116  PHE116     -0.0203
     63  CD1       -5.3170   -1.6790   14.5470 C.ar  116  PHE116     -0.0042
     64  CD2       -6.0450    0.0310   16.0300 C.ar  116  PHE116     -0.0042
     65  CE1       -4.3070   -0.8670   14.1060 C.ar  116  PHE116     -0.0003
     66  CE2       -5.0150    0.8460   15.5960 C.ar  116  PHE116     -0.0003
     67  CZ        -4.1560    0.4000   14.6260 C.ar  116  PHE116     -0.0000
     68  N          1.0170   -4.5020   15.3450 N.3   125  LEU125     -0.1245
     69  CA         1.9210   -3.7960   14.4460 C.3   125  LEU125      0.1561
     70  C          3.3550   -4.0410   14.8860 C.2   125  LEU125      0.2260
     71  O          3.6380   -4.1550   16.0820 O.2   125  LEU125     -0.2867
     72  CB         1.6390   -2.2760   14.4330 C.3   125  LEU125      0.0270
     73  CG         0.6620   -1.8140   13.3310 C.3   125  LEU125      0.0019
     74  CD1       -0.7370   -2.3810   13.5300 C.3   125  LEU125      0.0001
     75  CD2        0.5990   -0.2880   13.2030 C.3   125  LEU125      0.0001
     76  N         11.1480    9.3590   10.4170 N.3   194  PHE194     -0.1241
     77  CA        10.6810    8.5090    9.3280 C.3   194  PHE194      0.1605
     78  C         11.8030    8.2210    8.3410 C.2   194  PHE194      0.2264
     79  O         12.8440    8.8660    8.3480 O.2   194  PHE194     -0.2867
     80  CB         9.5570    9.2100    8.5350 C.3   194  PHE194      0.0534
     81  CG         8.3490    9.5850    9.3430 C.ar  194  PHE194     -0.0203
     82  CD1        7.9560   10.9130    9.4730 C.ar  194  PHE194     -0.0042
     83  CD2        7.5830    8.6080    9.9510 C.ar  194  PHE194     -0.0042
     84  CE1        6.8340   11.2450   10.2070 C.ar  194  PHE194     -0.0003
     85  CE2        6.4690    8.9410   10.6930 C.ar  194  PHE194     -0.0003
     86  CZ         6.0920   10.2560   10.8190 C.ar  194  PHE194     -0.0000
     87  N          7.6110   10.0150    2.7260 N.3   217  ILE217     -0.1245
     88  CA         8.1150    8.9220    3.5340 C.3   217  ILE217      0.1561
     89  C          7.8070    7.5850    2.8850 C.2   217  ILE217      0.2260
     90  O          6.7700    7.4210    2.2460 O.2   217  ILE217     -0.2867
     91  CB         7.5790    8.9790    4.9820 C.3   217  ILE217      0.0252
     92  CG1        6.0610    8.7620    5.0590 C.3   217  ILE217      0.0019
     93  CG2        7.9830   10.3060    5.6170 C.3   217  ILE217      0.0019
     94  CD1        5.5490    8.5730    6.4830 C.3   217  ILE217      0.0001
     95  N          6.4810    4.2120    3.5810 N.3   219  ASP219     -0.1239
     96  CA         5.6350    3.7410    4.6830 C.3   219  ASP219      0.1674
     97  C          4.8640    2.4720    4.3160 C.2   219  ASP219      0.2266
     98  O          3.7990    2.5290    3.6770 O.2   219  ASP219     -0.2867
     99  CB         4.6570    4.8260    5.1340 C.3   219  ASP219      0.1410
    100  CG         3.8670    4.4070    6.3510 C.2   219  ASP219      0.3668
    101  OD1        3.0020    5.1820    6.7910 O.co2 219  ASP219     -0.2456
    102  OD2        4.1360    3.3000    6.8710 O.co2 219  ASP219     -0.2456
    103  N          3.1510    0.6820    6.1800 N.3   221  GLY221     -0.1210
    104  CA         1.9080    0.5990    6.9320 C.3   221  GLY221      0.1956
    105  C          0.7920    1.4950    6.4320 C.2   221  GLY221      0.2612
    106  O         -0.2830    1.5140    7.0300 O.2   221  GLY221     -0.2717
    107  N          1.0300    2.2240    5.3440 N.am  222  THR222     -0.1952
    108  CA        -0.0090    3.0230    4.6940 C.3   222  THR222      0.1897
    109  C         -0.3410    2.3400    3.3700 C.2   222  THR222      0.2313
    110  O          0.5680    1.9520    2.6260 O.2   222  THR222     -0.2863
    111  CB         0.4530    4.4760    4.4440 C.3   222  THR222      0.1794
    112  OG1        0.5780    5.1410    5.7040 O.3   222  THR222     -0.2208
    113  CG2       -0.5540    5.2380    3.5750 C.3   222  THR222      0.0378
    114  N         -2.7970   15.7230    5.1160 N.3   300  ILE300     -0.1245
    115  CA        -1.9190   14.8730    5.9290 C.3   300  ILE300      0.1561
    116  C         -0.6910   15.5960    6.4660 C.2   300  ILE300      0.2260
    117  O         -0.1700   15.2440    7.5280 O.2   300  ILE300     -0.2867
    118  CB        -1.4090   13.6770    5.1030 C.3   300  ILE300      0.0252
    119  CG1       -2.5890   12.8900    4.5320 C.3   300  ILE300      0.0019
    120  CG2       -0.4990   12.7680    5.9480 C.3   300  ILE300      0.0019
    121  CD1       -2.1790   11.7470    3.6450 C.3   300  ILE300      0.0001
    122  N          2.2130   15.5240    5.0140 N.3   302  ILE302     -0.1245
    123  CA         3.4000   14.8580    4.5060 C.3   302  ILE302      0.1561
    124  C          2.9680   13.9900    3.3380 C.2   302  ILE302      0.2260
    125  O          1.8500   13.4670    3.3200 O.2   302  ILE302     -0.2867
    126  CB         4.1050   14.0290    5.6200 C.3   302  ILE302      0.0252
    127  CG1        5.5400   13.6680    5.2180 C.3   302  ILE302      0.0019
    128  CG2        3.2940   12.7940    5.9850 C.3   302  ILE302      0.0019
    129  CD1        6.4810   13.4260    6.4250 C.3   302  ILE302      0.0001
    130  N          3.2100   10.4970    1.2910 N.3   304  ILE304     -0.1245
    131  CA         3.4250    9.1300    1.7700 C.3   304  ILE304      0.1561
    132  C          3.5090    8.1750    0.5890 C.2   304  ILE304      0.2260
    133  O          2.5250    7.9450   -0.1330 O.2   304  ILE304     -0.2867
    134  CB         2.3070    8.6470    2.7090 C.3   304  ILE304      0.0252
    135  CG1        2.0460    9.6290    3.8500 C.3   304  ILE304      0.0019
    136  CG2        2.6550    7.2720    3.2440 C.3   304  ILE304      0.0019
    137  CD1        0.7770    9.3130    4.6540 C.3   304  ILE304      0.0001
@<TRIPOS>BOND
     1   133   132    2
     2   132   131    1
     3   130   131    1
     4   131   134    1
     5    90    89    2
     6   110   109    2
     7   134   136    1
     8   134   135    1
     9    87    88    1
    10    89    88    1
    11   125   124    2
    12   124   123    1
    13   109   108    1
    14    88    91    1
    15   113   111    1
    16    95    96    1
    17   121   119    1
    18    98    97    2
    19   135   137    1
    20    97    96    1
    21   111   108    1
    22   111   112    1
    23   123   122    1
    24   123   126    1
    25   119   118    1
    26    96    99    1
    27   108   107    1
    28    91    92    1
    29    91    93    1
    30    92    94    1
    31   118   115    1
    32   118   120    1
    33   114   115    1
    34    99   100    1
    35   127   126    1
    36   127   129    1
    37   107   105   am
    38   126   128    1
    39   115   116    1
    40   103   104    1
    41   100   101   ar
    42   100   102   ar
    43   105   104    1
    44   105   106    2
    45   116   117    2
    46     7     6   ar
    47    78    79    2
    48    78    77    1
    49    80    77    1
    50    80    81    1
    51    17    18    1
    52     8     6   ar
    53     6     5    1
    54    77    76    1
    55    15    14   ar
    56    81    82   ar
    57    81    83   ar
    58    18    19    1
    59    47    44    1
    60    47    48    1
    61    82    84   ar
    62    10    11    1
    63    10     9    1
    64    10    13    1
    65    11    12    2
    66    42    41    2
    67    83    85   ar
    68    44    43    1
    69    44    45    1
    70     2     5    1
    71     2     3    1
    72     2     1    1
    73    84    86   ar
    74    50    48   ar
    75    41    43   am
    76    41    40    1
    77     3     4    2
    78    14    13    1
    79    14    16   ar
    80    48    49   ar
    81    85    86   ar
    82    40    39    1
    83    19    20    2
    84    19    21   am
    85    46    45    2
    86    39    29   am
    87    21    22    1
    88    29    30    2
    89    29    28    1
    90    31    28    1
    91    31    32    1
    92    22    25    1
    93    22    23    1
    94    24    23    2
    95    75    73    1
    96    73    74    1
    97    73    72    1
    98    26    25    1
    99    56    55    1
   100    34    32   ar
   101    34    36   ar
   102    28    27    1
   103    32    33   ar
   104    51    52    1
   105    65    63   ar
   106    65    67   ar
   107    55    52    1
   108    36    37   ar
   109    72    69    1
   110    69    70    1
   111    69    68    1
   112    63    62   ar
   113    57    58    1
   114    67    66   ar
   115    60    59    2
   116    33    35   ar
   117    70    71    2
   118    58    59    1
   119    58    61    1
   120    52    53    1
   121    37    35   ar
   122    37    38    1
   123    62    61    1
   124    62    64   ar
   125    66    64   ar
   126    54    53    2
