@<TRIPOS>MOLECULE
tmp/4y59D00.pdb
 122 117 0 0 0
SMALL
GASTEIGER

@<TRIPOS>ATOM
      1  N         10.0750  -33.8510   11.8670 N.3     9  ASN9       -0.1240
      2  CA         9.3350  -32.6010   11.6950 C.3     9  ASN9        0.1653
      3  C          8.0310  -32.8460   10.9610 C.2     9  ASN9        0.2266
      4  O          7.6740  -33.9670   10.5910 O.2     9  ASN9       -0.2867
      5  CB        10.1370  -31.4580   11.1670 C.3     9  ASN9        0.1155
      6  CG        10.4690  -31.5730    9.7780 C.2     9  ASN9        0.2627
      7  OD1        9.9740  -32.4550    9.0500 O.2     9  ASN9       -0.2716
      8  ND2       11.3330  -30.6090    9.3580 N.am    9  ASN9       -0.0877
      9  N          7.1610  -32.1210    8.0780 N.3    11  LEU11      -0.1245
     10  CA         7.2420  -32.5700    6.7290 C.3    11  LEU11       0.1561
     11  C          7.9630  -33.9150    6.6100 C.2    11  LEU11       0.2260
     12  O          8.2310  -34.3970    5.4990 O.2    11  LEU11      -0.2867
     13  CB         8.0010  -31.5550    6.0200 C.3    11  LEU11       0.0270
     14  CG         7.1980  -30.2500    5.9950 C.3    11  LEU11       0.0019
     15  CD1        8.0170  -29.1820    5.3160 C.3    11  LEU11       0.0001
     16  CD2        5.8180  -30.3490    5.3530 C.3    11  LEU11       0.0001
     17  N         10.9060  -34.9480    7.6420 N.3    13  SER13      -0.1217
     18  CA        12.3370  -34.9610    7.7610 C.3    13  SER13       0.1889
     19  C         12.6870  -35.6840    9.0910 C.2    13  SER13       0.2288
     20  O         11.9700  -35.5170   10.0860 O.2    13  SER13      -0.2866
     21  CB        13.0070  -33.5570    7.7810 C.3    13  SER13       0.2089
     22  OG        12.7940  -32.8920    6.5880 O.3    13  SER13      -0.2183
     23  N         20.6490  -35.6090    9.3940 N.3    29  TYR29      -0.1241
     24  CA        19.3600  -35.0980    9.0020 C.3    29  TYR29       0.1605
     25  C         19.0370  -35.6770    7.6660 C.2    29  TYR29       0.2264
     26  O         19.8900  -35.6390    6.7670 O.2    29  TYR29      -0.2867
     27  CB        19.4720  -33.5380    8.9620 C.3    29  TYR29       0.0534
     28  CG        18.1490  -32.8550    9.0610 C.ar   29  TYR29      -0.0201
     29  CD1       17.3910  -32.6380    7.9780 C.ar   29  TYR29      -0.0009
     30  CD2       17.7050  -32.3770   10.2840 C.ar   29  TYR29      -0.0009
     31  CE1       16.1620  -31.9800    8.0930 C.ar   29  TYR29       0.0417
     32  CE2       16.4620  -31.7520   10.4230 C.ar   29  TYR29       0.0417
     33  CZ        15.6910  -31.5630    9.3500 C.ar   29  TYR29       0.1957
     34  OH        14.4700  -30.9590    9.4930 O.3    29  TYR29      -0.2866
     35  N         22.4110  -36.1000    5.5220 N.3    40  TYR40      -0.1241
     36  CA        23.4530  -35.0610    5.6480 C.3    40  TYR40       0.1605
     37  C         23.9160  -34.9690    7.1140 C.2    40  TYR40       0.2264
     38  O         23.1520  -35.2320    8.0430 O.2    40  TYR40      -0.2867
     39  CB        22.8780  -33.6840    5.2150 C.3    40  TYR40       0.0534
     40  CG        22.4090  -33.6670    3.7930 C.ar   40  TYR40      -0.0201
     41  CD1       21.1190  -34.1230    3.4150 C.ar   40  TYR40      -0.0009
     42  CD2       23.2350  -33.1770    2.8230 C.ar   40  TYR40      -0.0009
     43  CE1       20.7610  -34.1070    2.1030 C.ar   40  TYR40       0.0417
     44  CE2       22.8270  -33.1770    1.4750 C.ar   40  TYR40       0.0417
     45  CZ        21.5820  -33.6370    1.1340 C.ar   40  TYR40       0.1957
     46  OH        21.2090  -33.6060   -0.1910 O.3    40  TYR40      -0.2866
     47  N         23.9940  -28.5410    2.9610 N.3    65  TRP65      -0.1241
     48  CA        23.3570  -29.4650    2.0430 C.3    65  TRP65       0.1605
     49  C         24.2740  -30.0330    0.9550 C.2    65  TRP65       0.2264
     50  O         23.9950  -29.9650   -0.2450 O.2    65  TRP65      -0.2867
     51  CB        22.0920  -28.8100    1.4770 C.3    65  TRP65       0.0550
     52  CG        21.1020  -28.4240    2.5080 C.ar   65  TRP65       0.0003
     53  CD1       20.7690  -27.1510    2.9010 C.ar   65  TRP65       0.0946
     54  CD2       20.3210  -29.3140    3.3260 C.ar   65  TRP65       0.0152
     55  NE1       19.8240  -27.1800    3.8950 N.ar   65  TRP65      -0.2442
     56  CE2       19.5380  -28.4840    4.2110 C.ar   65  TRP65       0.0810
     57  CE3       20.1860  -30.6970    3.4490 C.ar   65  TRP65       0.0012
     58  CZ2       18.6560  -29.0110    5.1280 C.ar   65  TRP65       0.0191
     59  CZ3       19.3230  -31.2350    4.3600 C.ar   65  TRP65       0.0001
     60  CH2       18.5590  -30.3730    5.2060 C.ar   65  TRP65       0.0015
     61  N         23.7240  -28.7470   -2.9080 N.3    72  ALA72      -0.1245
     62  CA        22.8150  -27.6420   -3.1960 C.3    72  ALA72       0.1562
     63  C         23.4390  -26.2940   -2.9300 C.2    72  ALA72       0.2260
     64  O         22.7150  -25.2660   -3.0550 O.2    72  ALA72      -0.2867
     65  CB        21.5210  -27.8030   -2.4180 C.3    72  ALA72       0.0290
     66  N         24.1320  -24.7080   -0.2080 N.3    74  SER74      -0.1217
     67  CA        23.1040  -24.1300    0.7050 C.3    74  SER74       0.1889
     68  C         23.3560  -24.6990    2.0880 C.2    74  SER74       0.2288
     69  O         23.9380  -25.7750    2.2360 O.2    74  SER74      -0.2866
     70  CB        21.6820  -24.4880    0.3000 C.3    74  SER74       0.2089
     71  OG        21.3620  -23.9410   -0.9770 O.3    74  SER74      -0.2183
     72  N         21.2220  -24.8080    6.1590 N.3    76  THR76      -0.1218
     73  CA        20.1610  -24.3780    7.0580 C.3    76  THR76       0.1862
     74  C         20.6170  -24.3860    8.4930 C.2    76  THR76       0.2287
     75  O         21.3230  -25.3380    8.9150 O.2    76  THR76      -0.2866
     76  CB        18.9390  -25.3450    6.9360 C.3    76  THR76       0.1770
     77  OG1       18.5010  -25.3020    5.5710 O.3    76  THR76      -0.2211
     78  CG2       17.8210  -24.9720    7.8770 C.3    76  THR76       0.0375
     79  N         18.8620  -24.2310   12.3810 N.3    78  TRP78      -0.1241
     80  CA        17.6540  -24.2510   13.2140 C.3    78  TRP78       0.1605
     81  C         18.0060  -23.6960   14.5690 C.2    78  TRP78       0.2264
     82  O         18.9680  -24.1740   15.1660 O.2    78  TRP78      -0.2867
     83  CB        17.1460  -25.6840   13.3800 C.3    78  TRP78       0.0550
     84  CG        16.5600  -26.3630   12.1810 C.ar   78  TRP78       0.0003
     85  CD1       15.2300  -26.5370   11.9190 C.ar   78  TRP78       0.0946
     86  CD2       17.2680  -26.9760   11.1060 C.ar   78  TRP78       0.0152
     87  NE1       15.0670  -27.2280   10.7660 N.ar   78  TRP78      -0.2442
     88  CE2       16.3020  -27.5230   10.2670 C.ar   78  TRP78       0.0810
     89  CE3       18.6160  -27.1470   10.7870 C.ar   78  TRP78       0.0012
     90  CZ2       16.6280  -28.2610    9.1230 C.ar   78  TRP78       0.0191
     91  CZ3       18.9580  -27.8870    9.6740 C.ar   78  TRP78       0.0001
     92  CH2       17.9770  -28.4700    8.8950 C.ar   78  TRP78       0.0015
     93  N         14.0340  -21.4790   11.4610 N.3    94  TRP94      -0.1241
     94  CA        15.1920  -21.8410   10.6720 C.3    94  TRP94       0.1605
     95  C         15.4490  -20.7900    9.6070 C.2    94  TRP94       0.2264
     96  O         14.5470  -20.0430    9.1730 O.2    94  TRP94      -0.2867
     97  CB        15.0800  -23.2500   10.0810 C.3    94  TRP94       0.0550
     98  CG        13.8750  -23.5180    9.2100 C.ar   94  TRP94       0.0003
     99  CD1       12.7790  -24.2480    9.5920 C.ar   94  TRP94       0.0946
    100  CD2       13.6590  -23.1300    7.8560 C.ar   94  TRP94       0.0152
    101  NE1       11.8990  -24.2790    8.5660 N.ar   94  TRP94      -0.2442
    102  CE2       12.4180  -23.6290    7.4790 C.ar   94  TRP94       0.0810
    103  CE3       14.4040  -22.4240    6.9190 C.ar   94  TRP94       0.0012
    104  CZ2       11.9150  -23.4750    6.1990 C.ar   94  TRP94       0.0191
    105  CZ3       13.8910  -22.2460    5.6510 C.ar   94  TRP94       0.0001
    106  CH2       12.6480  -22.7410    5.3150 C.ar   94  TRP94       0.0015
    107  N         17.6430  -20.6880    5.8380 N.3    96  LEU96      -0.1245
    108  CA        18.3050  -21.4700    4.8030 C.3    96  LEU96       0.1561
    109  C         18.9410  -20.4720    3.8460 C.2    96  LEU96       0.2260
    110  O         18.2180  -19.7760    3.0970 O.2    96  LEU96      -0.2867
    111  CB        17.2930  -22.3470    4.0920 C.3    96  LEU96       0.0270
    112  CG        17.6000  -22.9590    2.7510 C.3    96  LEU96       0.0019
    113  CD1       18.8800  -23.6710    2.7630 C.3    96  LEU96       0.0001
    114  CD2       16.4790  -23.9070    2.3040 C.3    96  LEU96       0.0001
    115  N          9.9990  -25.1010   12.0920 N.3   114  ASP114     -0.1239
    116  CA         9.8250  -26.5380   12.1780 C.3   114  ASP114      0.1674
    117  C          9.5570  -26.9290   13.6050 C.2   114  ASP114      0.2266
    118  O         10.2240  -26.4530   14.5170 O.2   114  ASP114     -0.2867
    119  CB        11.0480  -27.3370   11.7140 C.3   114  ASP114      0.1410
    120  CG        11.2710  -27.3220   10.2260 C.2   114  ASP114      0.3668
    121  OD1       10.4360  -26.7410    9.4140 O.co2 114  ASP114     -0.2456
    122  OD2       12.3560  -27.8200    9.7850 O.co2 114  ASP114     -0.2456
@<TRIPOS>BOND
     1    62    63    1
     2    62    61    1
     3    62    65    1
     4    64    63    2
     5    71    70    1
     6    50    49    2
     7    66    67    1
     8    46    45    1
     9    70    67    1
    10    67    68    1
    11    49    48    1
    12    45    44   ar
    13    45    43   ar
    14    44    42   ar
    15    51    48    1
    16    51    52    1
    17    48    47    1
    18    68    69    2
    19    43    41   ar
    20   114   112    1
    21    52    53   ar
    22    52    54   ar
    23   112   113    1
    24   112   111    1
    25    42    40   ar
    26    53    55   ar
    27   110   109    2
    28    54    57   ar
    29    54    56   ar
    30    41    40   ar
    31    57    59   ar
    32    40    39    1
    33   109   108    1
    34    55    56   ar
    35   111   108    1
    36    56    58   ar
    37    59    60   ar
    38   108   107    1
    39    58    60   ar
    40    39    36    1
    41   106   105   ar
    42   106   104   ar
    43    15    14    1
    44    16    14    1
    45    12    11    2
    46    35    36    1
    47    77    76    1
    48    36    37    1
    49   105   103   ar
    50    14    13    1
    51    13    10    1
    52    72    73    1
    53   104   102   ar
    54    22    21    1
    55    11    10    1
    56    10     9    1
    57    26    25    2
    58   103   100   ar
    59    76    73    1
    60    76    78    1
    61    73    74    1
    62    37    38    2
    63   102   100   ar
    64   102   101   ar
    65    17    18    1
    66    25    24    1
    67    18    21    1
    68    18    19    1
    69   100    98   ar
    70    29    31   ar
    71    29    28   ar
    72    31    33   ar
    73    74    75    2
    74   101    99   ar
    75    92    90   ar
    76    92    91   ar
    77    27    24    1
    78    27    28    1
    79    24    23    1
    80     7     6    2
    81    28    30   ar
    82    19    20    2
    83    90    88   ar
    84    96    95    2
    85    98    99   ar
    86    98    97    1
    87    33    34    1
    88    33    32   ar
    89     8     6   am
    90   121   120   ar
    91    95    94    1
    92    91    89   ar
    93     6     5    1
    94   122   120   ar
    95    97    94    1
    96   120   119    1
    97    88    87   ar
    98    88    86   ar
    99    30    32   ar
   100     4     3    2
   101    94    93    1
   102    87    85   ar
   103    89    86   ar
   104     3     2    1
   105    86    84   ar
   106     5     2    1
   107     2     1    1
   108   119   116    1
   109    85    84   ar
   110   115   116    1
   111   116   117    1
   112    84    83    1
   113    79    80    1
   114    80    83    1
   115    80    81    1
   116   117   118    2
   117    81    82    2
