@<TRIPOS>MOLECULE
tmp/4y5aA00.pdb
 98 91 0 0 0
SMALL
GASTEIGER

@<TRIPOS>ATOM
      1  N          1.4180   -6.2370   11.3450 N.3    33  ASP33      -0.1239
      2  CA         1.5350   -5.3060   10.2280 C.3    33  ASP33       0.1674
      3  C          2.8600   -4.5550   10.3680 C.2    33  ASP33       0.2266
      4  O          3.0150   -3.7170   11.2620 O.2    33  ASP33      -0.2867
      5  CB         0.3400   -4.3390   10.3060 C.3    33  ASP33       0.1410
      6  CG         0.2250   -3.4110    9.1260 C.2    33  ASP33       0.3668
      7  OD1        1.1850   -3.2760    8.3410 O.co2  33  ASP33      -0.2456
      8  OD2       -0.8750   -2.8130    8.9790 O.co2  33  ASP33      -0.2456
      9  N          5.3660   -1.8420    9.7690 N.3    35  ASP35      -0.1239
     10  CA         5.0410   -0.4470    9.4820 C.3    35  ASP35       0.1674
     11  C          6.2810    0.4280    9.5560 C.2    35  ASP35       0.2266
     12  O          6.7240    0.7980   10.6570 O.2    35  ASP35      -0.2867
     13  CB         4.0080    0.0410   10.5120 C.3    35  ASP35       0.1410
     14  CG         3.5930    1.4820   10.2880 C.2    35  ASP35       0.3668
     15  OD1        3.8470    2.0070    9.1890 O.co2  35  ASP35      -0.2456
     16  OD2        3.0050    2.0920   11.2170 O.co2  35  ASP35      -0.2456
     17  N         -2.5690    6.8760   14.8790 N.3    79  TYR79      -0.1227
     18  CA        -2.0830    6.7540   13.5160 C.3    79  TYR79       0.1736
     19  C         -2.7960    7.7150   12.5870 C.2    79  TYR79       0.2596
     20  O         -3.7800    8.3510   12.9700 O.2    79  TYR79      -0.2718
     21  CB        -2.2600    5.3200   13.0390 C.3    79  TYR79       0.0548
     22  CG        -1.4570    4.3200   13.8520 C.ar   79  TYR79      -0.0200
     23  CD1       -2.0620    3.5250   14.8170 C.ar   79  TYR79      -0.0009
     24  CD2       -0.0820    4.1870   13.6610 C.ar   79  TYR79      -0.0009
     25  CE1       -1.3280    2.6120   15.5570 C.ar   79  TYR79       0.0417
     26  CE2        0.6560    3.2780   14.3910 C.ar   79  TYR79       0.0417
     27  CZ         0.0260    2.4860   15.3390 C.ar   79  TYR79       0.1957
     28  OH         0.7560    1.5770   16.0690 O.3    79  TYR79      -0.2866
     29  N         -2.2920    7.8010   11.3580 N.am   80  GLY80      -0.1942
     30  CA        -2.7340    8.8110   10.4110 C.3    80  GLY80       0.2014
     31  C         -4.1510    8.6210    9.9200 C.2    80  GLY80       0.2638
     32  O         -4.7330    9.5300    9.3270 O.2    80  GLY80      -0.2714
     33  N         -4.7100    7.4360   10.1440 N.am   81  ASP81      -0.1971
     34  CA        -6.0820    7.1640    9.7340 C.3    81  ASP81       0.1709
     35  C         -7.0550    7.3680   10.8940 C.2    81  ASP81       0.2293
     36  O         -8.2350    7.0460   10.7810 O.2    81  ASP81      -0.2864
     37  CB        -6.1970    5.7490    9.1610 C.3    81  ASP81       0.1436
     38  CG        -5.8910    4.6720   10.1830 C.2    81  ASP81       0.3671
     39  OD1       -5.5240    5.0160   11.3200 O.co2  81  ASP81      -0.2456
     40  OD2       -6.0060    3.4770    9.8380 O.co2  81  ASP81      -0.2456
     41  N         -6.8870    5.9010   13.8550 N.3    83  SER83      -0.1217
     42  CA        -6.9490    4.7490   14.7570 C.3    83  SER83       0.1889
     43  C         -5.9380    4.9250   15.8880 C.2    83  SER83       0.2288
     44  O         -5.0360    5.7540   15.7900 O.2    83  SER83      -0.2866
     45  CB        -6.7130    3.4410   13.9960 C.3    83  SER83       0.2089
     46  OG        -5.3880    3.3470   13.5200 O.3    83  SER83      -0.2183
     47  N        -11.4030    0.4330   14.5570 N.3   115  SER115     -0.1202
     48  CA       -10.9190   -0.1260   13.2950 C.3   115  SER115      0.2020
     49  C         -9.9310   -1.2640   13.5150 C.2   115  SER115      0.2618
     50  O         -9.8220   -2.1440   12.6620 O.2   115  SER115     -0.2717
     51  CB       -10.3090    0.9380   12.3840 C.3   115  SER115      0.2103
     52  OG        -9.1670    1.5210   12.9510 O.3   115  SER115     -0.2182
     53  N         -9.2010   -1.2550   14.6290 N.am  116  PHE116     -0.1975
     54  CA        -8.3410   -2.3910   14.9490 C.3   116  PHE116      0.1639
     55  C         -9.1950   -3.5980   15.3290 C.2   116  PHE116      0.2290
     56  O         -8.9740   -4.6930   14.8200 O.2   116  PHE116     -0.2864
     57  CB        -7.3340   -2.0500   16.0510 C.3   116  PHE116      0.0560
     58  CG        -6.1750   -1.2110   15.5780 C.ar  116  PHE116     -0.0200
     59  CD1       -5.2650   -1.7210   14.6610 C.ar  116  PHE116     -0.0042
     60  CD2       -5.9860    0.0810   16.0450 C.ar  116  PHE116     -0.0042
     61  CE1       -4.1990   -0.9700   14.2230 C.ar  116  PHE116     -0.0003
     62  CE2       -4.9060    0.8460   15.5920 C.ar  116  PHE116     -0.0003
     63  CZ        -4.0220    0.3130   14.6810 C.ar  116  PHE116     -0.0000
     64  N        -10.5400   -5.2550   12.3290 N.3   119  ASP119     -0.1239
     65  CA        -9.5270   -5.8950   11.4730 C.3   119  ASP119      0.1674
     66  C         -9.0850   -7.2440   12.0770 C.2   119  ASP119      0.2266
     67  O         -8.0170   -7.3190   12.6740 O.2   119  ASP119     -0.2867
     68  CB        -8.2760   -4.9990   11.3330 C.3   119  ASP119      0.1410
     69  CG        -8.4800   -3.7930   10.4200 C.2   119  ASP119      0.3668
     70  OD1       -7.6210   -2.8760   10.4470 O.co2 119  ASP119     -0.2456
     71  OD2       -9.4670   -3.7510    9.6720 O.co2 119  ASP119     -0.2456
     72  N         -5.3360   -8.5980   11.6550 N.3   122  ILE122     -0.1245
     73  CA        -4.1500   -7.9050   12.1480 C.3   122  ILE122      0.1561
     74  C         -4.0560   -8.0290   13.6640 C.2   122  ILE122      0.2260
     75  O         -4.9220   -7.5360   14.3950 O.2   122  ILE122     -0.2867
     76  CB        -4.1580   -6.4190   11.7110 C.3   122  ILE122      0.0252
     77  CG1       -4.0420   -6.3310   10.1900 C.3   122  ILE122      0.0019
     78  CG2       -3.0170   -5.6610   12.3760 C.3   122  ILE122      0.0019
     79  CD1       -4.1390   -4.9160    9.6430 C.3   122  ILE122      0.0001
     80  N          1.0550   -4.4010   15.4040 N.3   125  LEU125     -0.1245
     81  CA         1.9910   -3.7070   14.5240 C.3   125  LEU125      0.1561
     82  C          3.4310   -3.9700   14.9380 C.2   125  LEU125      0.2260
     83  O          3.7290   -4.1340   16.1150 O.2   125  LEU125     -0.2867
     84  CB         1.7440   -2.1870   14.5430 C.3   125  LEU125      0.0270
     85  CG         0.8740   -1.7100   13.3770 C.3   125  LEU125      0.0019
     86  CD1       -0.5750   -2.1610   13.5720 C.3   125  LEU125      0.0001
     87  CD2        0.9790   -0.2210   13.1940 C.3   125  LEU125      0.0001
     88  N          3.1510    0.8110    6.1920 N.3   221  GLY221     -0.1210
     89  CA         1.9080    0.7200    6.9360 C.3   221  GLY221      0.1956
     90  C          0.7680    1.5750    6.4250 C.2   221  GLY221      0.2612
     91  O         -0.3160    1.5610    7.0020 O.2   221  GLY221     -0.2717
     92  N          1.0030    2.3170    5.3490 N.am  222  THR222     -0.1952
     93  CA        -0.0420    3.1060    4.7090 C.3   222  THR222      0.1897
     94  C         -0.4030    2.4410    3.3870 C.2   222  THR222      0.2313
     95  O          0.4770    2.1000    2.6140 O.2   222  THR222     -0.2863
     96  CB         0.4300    4.5600    4.4880 C.3   222  THR222      0.1794
     97  OG1        0.4960    5.2230    5.7570 O.3   222  THR222     -0.2208
     98  CG2       -0.5410    5.3190    3.5860 C.3   222  THR222      0.0378
@<TRIPOS>BOND
     1    95    94    2
     2    94    93    1
     3    98    96    1
     4    96    93    1
     5    96    97    1
     6    93    92    1
     7    92    90   am
     8    88    89    1
     9    90    89    1
    10    90    91    2
    11     7     6   ar
    12     8     6   ar
    13     6     5    1
    14    37    34    1
    15    37    38    1
    16    15    14   ar
    17    32    31    2
    18    10    11    1
    19    10     9    1
    20    10    13    1
    21    11    12    2
    22    79    77    1
    23    71    69   ar
    24    34    33    1
    25    34    35    1
    26    40    38   ar
    27    31    33   am
    28    31    30    1
    29    38    39   ar
    30    77    76    1
    31     2     5    1
    32     2     3    1
    33     2     1    1
    34    14    13    1
    35    14    16   ar
    36     3     4    2
    37    30    29    1
    38    69    70   ar
    39    69    68    1
    40    36    35    2
    41    68    65    1
    42    29    19   am
    43    65    66    1
    44    65    64    1
    45    72    73    1
    46    76    73    1
    47    76    78    1
    48    66    67    2
    49    73    74    1
    50    51    52    1
    51    51    48    1
    52    19    20    2
    53    19    18    1
    54    50    49    2
    55    21    18    1
    56    21    22    1
    57    87    85    1
    58    48    49    1
    59    48    47    1
    60    85    86    1
    61    85    84    1
    62    49    53   am
    63    18    17    1
    64    46    45    1
    65    24    22   ar
    66    24    26   ar
    67    74    75    2
    68    22    23   ar
    69    41    42    1
    70    45    42    1
    71    61    59   ar
    72    61    63   ar
    73    26    27   ar
    74    81    84    1
    75    81    82    1
    76    81    80    1
    77    53    54    1
    78    59    58   ar
    79    63    62   ar
    80    42    43    1
    81    23    25   ar
    82    56    55    2
    83    82    83    2
    84    54    55    1
    85    54    57    1
    86    27    25   ar
    87    27    28    1
    88    58    60   ar
    89    58    57    1
    90    62    60   ar
    91    44    43    2
