@<TRIPOS>MOLECULE
tmp/4y5bA02.pdb
 79 71 0 0 0
SMALL
GASTEIGER

@<TRIPOS>ATOM
      1  N          6.4090    3.2730    8.9240 N.3    37  GLY37      -0.1225
      2  CA         6.0000    4.5990    9.3540 C.3    37  GLY37       0.1811
      3  C          5.7300    4.7640   10.8500 C.2    37  GLY37       0.2280
      4  O          5.2590    5.8170   11.2760 O.2    37  GLY37      -0.2866
      5  N         -2.1180    7.7390   11.2970 N.3    80  GLY80      -0.1225
      6  CA        -2.5830    8.6950   10.3080 C.3    80  GLY80       0.1811
      7  C         -4.0300    8.5240    9.9020 C.2    80  GLY80       0.2280
      8  O         -4.6580    9.4680    9.4230 O.2    80  GLY80      -0.2866
      9  N         12.4590   13.7360   11.2560 N.3   192  GLN192     -0.1245
     10  CA        11.0990   13.5290   11.7500 C.3   192  GLN192      0.1566
     11  C         10.8570   12.0850   12.2000 C.2   192  GLN192      0.2260
     12  O          9.7320   11.7170   12.5440 O.2   192  GLN192     -0.2867
     13  CB        10.0850   13.9290   10.6900 C.3   192  GLN192      0.0367
     14  CG        10.1600   15.3970   10.3110 C.3   192  GLN192      0.0905
     15  CD         8.9550   15.8550    9.5160 C.2   192  GLN192      0.2608
     16  OE1        8.0590   16.4990   10.0570 O.2   192  GLN192     -0.2717
     17  NE2        8.9280   15.5290    8.2270 N.am  192  GLN192     -0.0878
     18  N         11.2040    9.3450   10.3620 N.3   194  PHE194     -0.1241
     19  CA        10.7150    8.5060    9.2680 C.3   194  PHE194      0.1605
     20  C         11.8220    8.2070    8.2660 C.2   194  PHE194      0.2264
     21  O         12.8760    8.8460    8.2680 O.2   194  PHE194     -0.2867
     22  CB         9.5860    9.2140    8.5050 C.3   194  PHE194      0.0534
     23  CG         8.3870    9.5610    9.3420 C.ar  194  PHE194     -0.0203
     24  CD1        8.0460   10.8860    9.5640 C.ar  194  PHE194     -0.0042
     25  CD2        7.5820    8.5700    9.8860 C.ar  194  PHE194     -0.0042
     26  CE1        6.9400   11.2130   10.3200 C.ar  194  PHE194     -0.0003
     27  CE2        6.4730    8.9020   10.6570 C.ar  194  PHE194     -0.0003
     28  CZ         6.1610   10.2170   10.8700 C.ar  194  PHE194     -0.0000
     29  N          7.6110   10.0410    2.6910 N.3   217  ILE217     -0.1245
     30  CA         8.1040    8.9280    3.4970 C.3   217  ILE217      0.1561
     31  C          7.7820    7.5920    2.8530 C.2   217  ILE217      0.2260
     32  O          6.7460    7.4330    2.2210 O.2   217  ILE217     -0.2867
     33  CB         7.5850    8.9910    4.9580 C.3   217  ILE217      0.0252
     34  CG1        6.0650    8.8050    5.0340 C.3   217  ILE217      0.0019
     35  CG2        8.0160   10.3170    5.5950 C.3   217  ILE217      0.0019
     36  CD1        5.5590    8.5370    6.4500 C.3   217  ILE217      0.0001
     37  N          6.4450    4.2440    3.5670 N.3   219  ASP219     -0.1239
     38  CA         5.5940    3.7800    4.6610 C.3   219  ASP219      0.1674
     39  C          4.8070    2.5110    4.3020 C.2   219  ASP219      0.2266
     40  O          3.7440    2.5650    3.6790 O.2   219  ASP219     -0.2867
     41  CB         4.6510    4.8990    5.0990 C.3   219  ASP219      0.1410
     42  CG         3.8490    4.5250    6.3180 C.2   219  ASP219      0.3668
     43  OD1        3.0190    5.3400    6.7440 O.co2 219  ASP219     -0.2456
     44  OD2        4.0390    3.4020    6.8410 O.co2 219  ASP219     -0.2456
     45  N          0.9760    2.2470    5.3500 N.3   222  THR222     -0.1218
     46  CA        -0.0480    3.0390    4.6740 C.3   222  THR222      0.1862
     47  C         -0.3830    2.3370    3.3590 C.2   222  THR222      0.2287
     48  O          0.5220    1.9240    2.6340 O.2   222  THR222     -0.2866
     49  CB         0.4510    4.4940    4.4040 C.3   222  THR222      0.1770
     50  OG1        0.5830    5.1830    5.6480 O.3   222  THR222     -0.2211
     51  CG2       -0.5320    5.2630    3.5230 C.3   222  THR222      0.0375
     52  N         -2.8160   16.1660    5.1780 N.3   300  ILE300     -0.1231
     53  CA        -1.9960   15.2140    5.9500 C.3   300  ILE300      0.1692
     54  C         -0.7410   15.8850    6.4740 C.2   300  ILE300      0.2593
     55  O         -0.2600   15.5510    7.5550 O.2   300  ILE300     -0.2718
     56  CB        -1.5150   14.0030    5.0990 C.3   300  ILE300      0.0266
     57  CG1       -2.7030   13.1880    4.5950 C.3   300  ILE300      0.0019
     58  CG2       -0.5610   13.1040    5.9210 C.3   300  ILE300      0.0020
     59  CD1       -2.3080   11.9780    3.7620 C.3   300  ILE300      0.0001
     60  N         -0.1850   16.7960    5.6840 N.am  301  GLY301     -0.1942
     61  CA         1.0280   17.4930    6.0670 C.3   301  GLY301      0.2014
     62  C          2.3110   16.7920    5.6520 C.2   301  GLY301      0.2638
     63  O          3.4030   17.2860    5.9320 O.2   301  GLY301     -0.2714
     64  N          2.1900   15.6380    4.9960 N.am  302  ILE302     -0.1977
     65  CA         3.3560   14.9180    4.4920 C.3   302  ILE302      0.1596
     66  C          2.9330   14.0390    3.3150 C.2   302  ILE302      0.2287
     67  O          1.8160   13.5310    3.2810 O.2   302  ILE302     -0.2864
     68  CB         4.0360   14.0920    5.6340 C.3   302  ILE302      0.0276
     69  CG1        5.4290   13.6080    5.2180 C.3   302  ILE302      0.0022
     70  CG2        3.1530   12.9390    6.0760 C.3   302  ILE302      0.0022
     71  CD1        6.3290   13.2640    6.3930 C.3   302  ILE302      0.0001
     72  N          3.1980   10.5500    1.2820 N.3   304  ILE304     -0.1245
     73  CA         3.3980    9.1760    1.7510 C.3   304  ILE304      0.1561
     74  C          3.4590    8.2030    0.5790 C.2   304  ILE304      0.2260
     75  O          2.4720    8.0100   -0.1390 O.2   304  ILE304     -0.2867
     76  CB         2.2910    8.7240    2.7200 C.3   304  ILE304      0.0252
     77  CG1        2.1210    9.7120    3.8770 C.3   304  ILE304      0.0019
     78  CG2        2.6360    7.3470    3.2480 C.3   304  ILE304      0.0019
     79  CD1        0.9550    9.3810    4.7810 C.3   304  ILE304      0.0001
@<TRIPOS>BOND
     1    75    74    2
     2    74    73    1
     3    72    73    1
     4    73    76    1
     5    32    31    2
     6    48    47    2
     7    29    30    1
     8    76    78    1
     9    76    77    1
    10    31    30    1
    11    67    66    2
    12    66    65    1
    13    47    46    1
    14    30    33    1
    15    51    49    1
    16    37    38    1
    17    40    39    2
    18    59    57    1
    19    77    79    1
    20    39    38    1
    21    49    46    1
    22    49    50    1
    23    65    64    1
    24    65    68    1
    25    57    56    1
    26    38    41    1
    27    46    45    1
    28    33    34    1
    29    33    35    1
    30    64    62   am
    31    34    36    1
    32    56    58    1
    33    56    53    1
    34    41    42    1
    35    52    53    1
    36    69    68    1
    37    69    71    1
    38    68    70    1
    39    62    63    2
    40    62    61    1
    41    60    61    1
    42    60    54   am
    43    53    54    1
    44    42    43   ar
    45    42    44   ar
    46    54    55    2
    47    17    15   am
    48    20    21    2
    49    20    19    1
    50    22    19    1
    51    22    23    1
    52     1     2    1
    53    19    18    1
    54    23    24   ar
    55    23    25   ar
    56     2     3    1
    57     8     7    2
    58    15    16    2
    59    15    14    1
    60    24    26   ar
    61    25    27   ar
    62     7     6    1
    63     6     5    1
    64    14    13    1
    65    26    28   ar
    66    27    28   ar
    67    13    10    1
    68     3     4    2
    69     9    10    1
    70    10    11    1
    71    11    12    2
