@<TRIPOS>MOLECULE
tmp/4y5bA00.pdb
 107 99 0 0 0
SMALL
GASTEIGER

@<TRIPOS>ATOM
      1  N          1.4220   -6.3970   11.3300 N.3    33  ASP33      -0.1239
      2  CA         1.5300   -5.4530   10.2140 C.3    33  ASP33       0.1674
      3  C          2.8520   -4.6970   10.3660 C.2    33  ASP33       0.2266
      4  O          3.0100   -3.8770   11.2720 O.2    33  ASP33      -0.2867
      5  CB         0.3240   -4.5220   10.2920 C.3    33  ASP33       0.1410
      6  CG         0.2190   -3.5460    9.1500 C.2    33  ASP33       0.3668
      7  OD1        1.1470   -3.4220    8.3190 O.co2  33  ASP33      -0.2456
      8  OD2       -0.8490   -2.8700    9.1180 O.co2  33  ASP33      -0.2456
      9  N          5.3800   -1.9910    9.7790 N.3    35  ASP35      -0.1239
     10  CA         5.0550   -0.5960    9.5110 C.3    35  ASP35       0.1674
     11  C          6.2960    0.2920    9.5520 C.2    35  ASP35       0.2266
     12  O          6.7280    0.6950   10.6290 O.2    35  ASP35      -0.2867
     13  CB         4.0310   -0.1320   10.5590 C.3    35  ASP35       0.1410
     14  CG         3.5810    1.3010   10.3530 C.2    35  ASP35       0.3668
     15  OD1        3.8470    1.8450    9.2640 O.co2  35  ASP35      -0.2456
     16  OD2        2.9480    1.8760   11.2740 O.co2  35  ASP35      -0.2456
     17  N         -2.4600    6.7890   14.8090 N.3    79  TYR79      -0.1227
     18  CA        -1.9620    6.6600   13.4490 C.3    79  TYR79       0.1736
     19  C         -2.6530    7.6410   12.5090 C.2    79  TYR79       0.2596
     20  O         -3.6380    8.2940   12.8780 O.2    79  TYR79      -0.2718
     21  CB        -2.1490    5.2210   12.9770 C.3    79  TYR79       0.0548
     22  CG        -1.3610    4.2160   13.8030 C.ar   79  TYR79      -0.0200
     23  CD1       -1.9830    3.4420   14.7760 C.ar   79  TYR79      -0.0009
     24  CD2        0.0090    4.0490   13.6120 C.ar   79  TYR79      -0.0009
     25  CE1       -1.2690    2.5220   15.5290 C.ar   79  TYR79       0.0417
     26  CE2        0.7370    3.1290   14.3610 C.ar   79  TYR79       0.0417
     27  CZ         0.0860    2.3730   15.3170 C.ar   79  TYR79       0.1957
     28  OH         0.7700    1.4470   16.0830 O.3    79  TYR79      -0.2866
     29  N         -2.1180    7.7390   11.2970 N.am   80  GLY80      -0.1942
     30  CA        -2.5830    8.6950   10.3080 C.3    80  GLY80       0.2014
     31  C         -4.0300    8.5240    9.9020 C.2    80  GLY80       0.2638
     32  O         -4.6580    9.4680    9.4230 O.2    80  GLY80      -0.2714
     33  N         -4.5620    7.3190   10.0680 N.am   81  ASP81      -0.1971
     34  CA        -5.9550    7.0550    9.7330 C.3    81  ASP81       0.1709
     35  C         -6.8940    7.3210   10.9120 C.2    81  ASP81       0.2293
     36  O         -8.0970    7.0850   10.8130 O.2    81  ASP81      -0.2864
     37  CB        -6.1210    5.6170    9.2380 C.3    81  ASP81       0.1436
     38  CG        -5.8240    4.5910   10.3070 C.2    81  ASP81       0.3671
     39  OD1       -5.2570    4.9630   11.3550 O.co2  81  ASP81      -0.2456
     40  OD2       -6.1560    3.4050   10.0990 O.co2  81  ASP81      -0.2456
     41  N         -6.7790    5.8080   13.8410 N.3    83  SER83      -0.1217
     42  CA        -6.8350    4.6600   14.7430 C.3    83  SER83       0.1889
     43  C         -5.8310    4.8390   15.8810 C.2    83  SER83       0.2288
     44  O         -4.9190    5.6620   15.7890 O.2    83  SER83      -0.2866
     45  CB        -6.5790    3.3510   13.9870 C.3    83  SER83       0.2089
     46  OG        -5.2560    3.2590   13.5010 O.3    83  SER83      -0.2183
     47  N        -11.2950    0.3820   14.5210 N.3   115  SER115     -0.1202
     48  CA       -10.7800   -0.1240   13.2500 C.3   115  SER115      0.2020
     49  C         -9.7560   -1.2450   13.4420 C.2   115  SER115      0.2618
     50  O         -9.4980   -2.0070   12.5140 O.2   115  SER115     -0.2717
     51  CB       -10.1790    1.0030   12.4080 C.3   115  SER115      0.2103
     52  OG        -9.1320    1.6500   13.0990 O.3   115  SER115     -0.2182
     53  N         -9.1710   -1.3440   14.6350 N.am  116  PHE116     -0.1975
     54  CA        -8.3230   -2.4880   14.9650 C.3   116  PHE116      0.1639
     55  C         -9.2020   -3.6890   15.3330 C.2   116  PHE116      0.2290
     56  O         -8.9790   -4.7980   14.8570 O.2   116  PHE116     -0.2864
     57  CB        -7.3290   -2.1420   16.0720 C.3   116  PHE116      0.0560
     58  CG        -6.1580   -1.3190   15.5970 C.ar  116  PHE116     -0.0200
     59  CD1       -5.2610   -1.8350   14.6840 C.ar  116  PHE116     -0.0042
     60  CD2       -5.9600   -0.0340   16.0580 C.ar  116  PHE116     -0.0042
     61  CE1       -4.1910   -1.0900   14.2360 C.ar  116  PHE116     -0.0003
     62  CE2       -4.8780    0.7180   15.6190 C.ar  116  PHE116     -0.0003
     63  CZ        -4.0030    0.1930   14.7040 C.ar  116  PHE116     -0.0000
     64  N        -12.1220   -4.3290   14.3880 N.3   118  GLU118     -0.1231
     65  CA       -12.8020   -4.7730   13.1790 C.3   118  GLU118      0.1699
     66  C        -11.8810   -5.4900   12.1800 C.2   118  GLU118      0.2592
     67  O        -12.3690   -6.1970   11.2940 O.2   118  GLU118     -0.2718
     68  CB       -13.4910   -3.5770   12.5160 C.3   118  GLU118      0.0402
     69  CG       -14.6540   -3.0170   13.3420 C.3   118  GLU118      0.1161
     70  CD       -15.0470   -1.6000   12.9600 C.2   118  GLU118      0.3649
     71  OE1      -15.8760   -1.0010   13.6870 O.co2 118  GLU118     -0.2457
     72  OE2      -14.5250   -1.0780   11.9510 O.co2 118  GLU118     -0.2457
     73  N        -10.5650   -5.3090   12.3060 N.am  119  ASP119     -0.1974
     74  CA        -9.5900   -5.9790   11.4390 C.3   119  ASP119      0.1709
     75  C         -9.1480   -7.3010   12.0980 C.2   119  ASP119      0.2293
     76  O         -8.1170   -7.3340   12.7650 O.2   119  ASP119     -0.2864
     77  CB        -8.3550   -5.0810   11.1960 C.3   119  ASP119      0.1436
     78  CG        -8.6530   -3.8430   10.3320 C.2   119  ASP119      0.3671
     79  OD1       -9.6990   -3.8100    9.6500 O.co2 119  ASP119     -0.2456
     80  OD2       -7.8210   -2.8940   10.3230 O.co2 119  ASP119     -0.2456
     81  N         -5.3180   -8.7040   11.6690 N.3   122  ILE122     -0.1245
     82  CA        -4.1200   -8.0140   12.1490 C.3   122  ILE122      0.1561
     83  C         -4.0350   -8.1360   13.6690 C.2   122  ILE122      0.2260
     84  O         -4.8980   -7.6260   14.3950 O.2   122  ILE122     -0.2867
     85  CB        -4.1140   -6.5380   11.6920 C.3   122  ILE122      0.0252
     86  CG1       -3.9790   -6.4640   10.1660 C.3   122  ILE122      0.0019
     87  CG2       -3.0110   -5.7420   12.3980 C.3   122  ILE122      0.0019
     88  CD1       -4.1020   -5.0500    9.5950 C.3   122  ILE122      0.0001
     89  N          1.0840   -4.5260   15.3980 N.3   125  LEU125     -0.1245
     90  CA         1.9960   -3.8300   14.4870 C.3   125  LEU125      0.1561
     91  C          3.4400   -4.0630   14.9120 C.2   125  LEU125      0.2260
     92  O          3.7400   -4.2040   16.0950 O.2   125  LEU125     -0.2867
     93  CB         1.7120   -2.3120   14.4510 C.3   125  LEU125      0.0270
     94  CG         0.7900   -1.8620   13.3060 C.3   125  LEU125      0.0019
     95  CD1       -0.6240   -2.4170   13.4920 C.3   125  LEU125      0.0001
     96  CD2        0.7570   -0.3590   13.1570 C.3   125  LEU125      0.0001
     97  N          3.1020    0.7110    6.1990 N.3   221  GLY221     -0.1225
     98  CA         1.8550    0.6280    6.9410 C.3   221  GLY221      0.1811
     99  C          0.7370    1.5090    6.4330 C.2   221  GLY221      0.2280
    100  O         -0.3290    1.5180    7.0380 O.2   221  GLY221     -0.2866
    101  N         -1.6710    2.1690    3.0680 N.3   223  THR223     -0.1218
    102  CA        -2.0880    1.4200    1.8990 C.3   223  THR223      0.1862
    103  C         -1.8050    2.1550    0.5780 C.2   223  THR223      0.2287
    104  O         -1.3540    1.5580   -0.4080 O.2   223  THR223     -0.2866
    105  CB        -3.6240    1.1360    1.9780 C.3   223  THR223      0.1770
    106  OG1       -3.9860    0.6310    3.2730 O.3   223  THR223     -0.2211
    107  CG2       -4.0670    0.1490    0.8960 C.3   223  THR223      0.0375
@<TRIPOS>BOND
     1   104   103    2
     2   103   102    1
     3   107   105    1
     4   102   105    1
     5   102   101    1
     6   105   106    1
     7    97    98    1
     8    99    98    1
     9    99   100    2
    10     7     6   ar
    11     8     6   ar
    12     6     5    1
    13    37    34    1
    14    37    38    1
    15    15    14   ar
    16    32    31    2
    17    10    11    1
    18    10     9    1
    19    10    13    1
    20    11    12    2
    21    88    86    1
    22    79    78   ar
    23    34    33    1
    24    34    35    1
    25    31    33   am
    26    31    30    1
    27    40    38   ar
    28    86    85    1
    29     2     5    1
    30     2     3    1
    31     2     1    1
    32    38    39   ar
    33    30    29    1
    34    80    78   ar
    35    78    77    1
    36    14    13    1
    37    14    16   ar
    38     3     4    2
    39    36    35    2
    40    77    74    1
    41    67    66    2
    42    29    19   am
    43    74    75    1
    44    74    73    1
    45    81    82    1
    46    85    82    1
    47    85    87    1
    48    72    70   ar
    49    75    76    2
    50    82    83    1
    51    66    73   am
    52    66    65    1
    53    51    52    1
    54    51    48    1
    55    19    20    2
    56    19    18    1
    57    50    49    2
    58    68    65    1
    59    68    69    1
    60    70    69    1
    61    70    71   ar
    62    21    18    1
    63    21    22    1
    64    96    94    1
    65    65    64    1
    66    48    49    1
    67    48    47    1
    68    94    95    1
    69    94    93    1
    70    49    53   am
    71    18    17    1
    72    46    45    1
    73    24    22   ar
    74    24    26   ar
    75    83    84    2
    76    22    23   ar
    77    41    42    1
    78    45    42    1
    79    61    59   ar
    80    61    63   ar
    81    26    27   ar
    82    93    90    1
    83    90    91    1
    84    90    89    1
    85    53    54    1
    86    59    58   ar
    87    63    62   ar
    88    42    43    1
    89    23    25   ar
    90    56    55    2
    91    91    92    2
    92    54    55    1
    93    54    57    1
    94    27    25   ar
    95    27    28    1
    96    58    60   ar
    97    58    57    1
    98    62    60   ar
    99    44    43    2
