@<TRIPOS>MOLECULE
tmp/4y5cA00.pdb
 106 98 0 0 0
SMALL
GASTEIGER

@<TRIPOS>ATOM
      1  N          1.4150   -6.3990   11.3410 N.3    33  ASP33      -0.1239
      2  CA         1.5190   -5.4610   10.2290 C.3    33  ASP33       0.1674
      3  C          2.8400   -4.7040   10.3740 C.2    33  ASP33       0.2266
      4  O          2.9990   -3.8670   11.2720 O.2    33  ASP33      -0.2867
      5  CB         0.3120   -4.5320   10.3130 C.3    33  ASP33       0.1410
      6  CG         0.2200   -3.5320    9.1960 C.2    33  ASP33       0.3668
      7  OD1        1.1400   -3.4020    8.3680 O.co2  33  ASP33      -0.2456
      8  OD2       -0.8260   -2.8410    9.1910 O.co2  33  ASP33      -0.2456
      9  N          5.3650   -1.9870    9.7910 N.3    35  ASP35      -0.1239
     10  CA         5.0200   -0.5980    9.5250 C.3    35  ASP35       0.1674
     11  C          6.2530    0.2890    9.5700 C.2    35  ASP35       0.2266
     12  O          6.6980    0.6800   10.6480 O.2    35  ASP35      -0.2867
     13  CB         3.9980   -0.1410   10.5740 C.3    35  ASP35       0.1410
     14  CG         3.5400    1.2800   10.3660 C.2    35  ASP35       0.3668
     15  OD1        3.8760    1.8550    9.3120 O.co2  35  ASP35      -0.2456
     16  OD2        2.8400    1.8230   11.2600 O.co2  35  ASP35      -0.2456
     17  N         -2.3670    6.8970   15.1060 N.3    79  TYR79      -0.1227
     18  CA        -1.8680    6.8500   13.7430 C.3    79  TYR79       0.1736
     19  C         -2.5280    7.9230   12.8980 C.2    79  TYR79       0.2596
     20  O         -3.5340    8.5150   13.2970 O.2    79  TYR79      -0.2718
     21  CB        -2.0900    5.4550   13.1560 C.3    79  TYR79       0.0548
     22  CG        -1.3270    4.3790   13.9180 C.ar   79  TYR79      -0.0200
     23  CD1        0.0380    4.1930   13.7170 C.ar   79  TYR79      -0.0009
     24  CD2       -1.9650    3.5690   14.8500 C.ar   79  TYR79      -0.0009
     25  CE1        0.7450    3.2080   14.4130 C.ar   79  TYR79       0.0417
     26  CE2       -1.2700    2.5840   15.5560 C.ar   79  TYR79       0.0417
     27  CZ         0.0800    2.4180   15.3380 C.ar   79  TYR79       0.1957
     28  OH         0.7520    1.4460   16.0410 O.3    79  TYR79      -0.2866
     29  N         -1.9410    8.1700   11.7310 N.am   80  GLY80      -0.1942
     30  CA        -2.3920    9.2200   10.8380 C.3    80  GLY80       0.2014
     31  C         -3.8430    9.0810   10.4330 C.2    80  GLY80       0.2638
     32  O         -4.5130   10.0770   10.1480 O.2    80  GLY80      -0.2714
     33  N         -4.3370    7.8470   10.4100 N.am   81  ASP81      -0.1971
     34  CA        -5.7020    7.5900    9.9600 C.3    81  ASP81       0.1709
     35  C         -6.7220    7.6830   11.0920 C.2    81  ASP81       0.2293
     36  O         -7.9040    7.4160   10.8860 O.2    81  ASP81      -0.2864
     37  CB        -5.8090    6.2340    9.2530 C.3    81  ASP81       0.1436
     38  CG        -5.4300    5.0650   10.1390 C.2    81  ASP81       0.3671
     39  OD1       -5.2360    5.2500   11.3590 O.co2  81  ASP81      -0.2456
     40  OD2       -5.3430    3.9390    9.5990 O.co2  81  ASP81      -0.2456
     41  N         -6.7220    5.9070   13.9200 N.3    83  SER83      -0.1217
     42  CA        -6.7650    4.7120   14.7580 C.3    83  SER83       0.1889
     43  C         -5.7800    4.8840   15.9110 C.2    83  SER83       0.2288
     44  O         -4.8930    5.7310   15.8450 O.2    83  SER83      -0.2866
     45  CB        -6.4470    3.4590   13.9440 C.3    83  SER83       0.2089
     46  OG        -5.1200    3.4720   13.4680 O.3    83  SER83      -0.2183
     47  N        -11.2010    0.3970   14.5810 N.3   115  SER115     -0.1202
     48  CA       -10.6320   -0.0690   13.3230 C.3   115  SER115      0.2020
     49  C         -9.7480   -1.2950   13.5330 C.2   115  SER115      0.2618
     50  O         -9.6870   -2.1700   12.6720 O.2   115  SER115     -0.2717
     51  CB        -9.8380    1.0450   12.6430 C.3   115  SER115      0.2103
     52  OG        -8.8340    1.5540   13.5020 O.3   115  SER115     -0.2182
     53  N         -9.0640   -1.3630   14.6710 N.am  116  PHE116     -0.1975
     54  CA        -8.2550   -2.5320   14.9810 C.3   116  PHE116      0.1639
     55  C         -9.1400   -3.7210   15.3490 C.2   116  PHE116      0.2290
     56  O         -8.9340   -4.8310   14.8660 O.2   116  PHE116     -0.2864
     57  CB        -7.2370   -2.2200   16.0740 C.3   116  PHE116      0.0560
     58  CG        -6.1270   -1.3380   15.6060 C.ar  116  PHE116     -0.0200
     59  CD1       -5.2730   -1.7770   14.6210 C.ar  116  PHE116     -0.0042
     60  CD2       -5.9430   -0.0700   16.1280 C.ar  116  PHE116     -0.0042
     61  CE1       -4.2520   -0.9810   14.1620 C.ar  116  PHE116     -0.0003
     62  CE2       -4.9090    0.7330   15.6760 C.ar  116  PHE116     -0.0003
     63  CZ        -4.0740    0.2750   14.6800 C.ar  116  PHE116     -0.0000
     64  N        -10.6430   -5.4390   12.3670 N.3   119  ASP119     -0.1239
     65  CA        -9.7640   -6.1640   11.4680 C.3   119  ASP119      0.1674
     66  C         -9.2260   -7.4160   12.1450 C.2   119  ASP119      0.2266
     67  O         -8.2060   -7.3870   12.8340 O.2   119  ASP119     -0.2867
     68  CB        -8.6180   -5.3060   10.9930 C.3   119  ASP119      0.1410
     69  CG        -7.9320   -5.9190    9.8150 C.2   119  ASP119      0.3668
     70  OD1       -8.1370   -7.1370    9.5880 O.co2 119  ASP119     -0.2456
     71  OD2       -7.2140   -5.1960    9.1040 O.co2 119  ASP119     -0.2456
     72  N         -5.2960   -8.7610   11.6820 N.3   122  ILE122     -0.1245
     73  CA        -4.0960   -8.0730   12.1530 C.3   122  ILE122      0.1561
     74  C         -4.0220   -8.1860   13.6740 C.2   122  ILE122      0.2260
     75  O         -4.8980   -7.6850   14.3960 O.2   122  ILE122     -0.2867
     76  CB        -4.0800   -6.6190   11.6810 C.3   122  ILE122      0.0252
     77  CG1       -3.8430   -6.5850   10.1660 C.3   122  ILE122      0.0019
     78  CG2       -2.9900   -5.8260   12.4030 C.3   122  ILE122      0.0019
     79  CD1       -3.9850   -5.2120    9.5500 C.3   122  ILE122      0.0001
     80  N          1.0560   -4.5470   15.4110 N.3   125  LEU125     -0.1245
     81  CA         1.9530   -3.8320   14.5040 C.3   125  LEU125      0.1561
     82  C          3.3960   -4.0700   14.9250 C.2   125  LEU125      0.2260
     83  O          3.6850   -4.2110   16.1150 O.2   125  LEU125     -0.2867
     84  CB         1.6540   -2.3180   14.5040 C.3   125  LEU125      0.0270
     85  CG         0.6860   -1.8650   13.4000 C.3   125  LEU125      0.0019
     86  CD1       -0.6970   -2.4530   13.6040 C.3   125  LEU125      0.0001
     87  CD2        0.6250   -0.3660   13.3000 C.3   125  LEU125      0.0001
     88  N          6.4250    4.2210    3.5570 N.3   219  ASP219     -0.1239
     89  CA         5.5750    3.7730    4.6590 C.3   219  ASP219      0.1674
     90  C          4.7910    2.5110    4.3020 C.2   219  ASP219      0.2266
     91  O          3.7300    2.5700    3.6720 O.2   219  ASP219     -0.2867
     92  CB         4.6180    4.8880    5.0670 C.3   219  ASP219      0.1410
     93  CG         3.8000    4.5240    6.2760 C.2   219  ASP219      0.3668
     94  OD1        3.9950    3.4100    6.8120 O.co2 219  ASP219     -0.2456
     95  OD2        2.9510    5.3390    6.6850 O.co2 219  ASP219     -0.2456
     96  N          3.1140    0.7330    6.2030 N.3   221  GLY221     -0.1210
     97  CA         1.8890    0.6910    6.9820 C.3   221  GLY221      0.1956
     98  C          0.7470    1.5590    6.4770 C.2   221  GLY221      0.2612
     99  O         -0.3050    1.5960    7.1110 O.2   221  GLY221     -0.2717
    100  N          0.9530    2.2420    5.3540 N.am  222  THR222     -0.1952
    101  CA        -0.0820    3.0420    4.6930 C.3   222  THR222      0.1897
    102  C         -0.4260    2.3390    3.3830 C.2   222  THR222      0.2313
    103  O          0.4690    1.9490    2.6290 O.2   222  THR222     -0.2863
    104  CB         0.4060    4.4970    4.4450 C.3   222  THR222      0.1794
    105  OG1        0.5050    5.1670    5.7040 O.3   222  THR222     -0.2208
    106  CG2       -0.5650    5.2800    3.5740 C.3   222  THR222      0.0378
@<TRIPOS>BOND
     1   103   102    2
     2   102   101    1
     3    88    89    1
     4   106   104    1
     5    91    90    2
     6    90    89    1
     7   104   101    1
     8   104   105    1
     9    89    92    1
    10   101   100    1
    11    92    93    1
    12   100    98   am
    13    96    97    1
    14    93    95   ar
    15    93    94   ar
    16    98    97    1
    17    98    99    2
    18     7     6   ar
    19    71    69   ar
    20     8     6   ar
    21     6     5    1
    22    37    34    1
    23    37    38    1
    24    15    14   ar
    25    10    11    1
    26    10     9    1
    27    10    13    1
    28    79    77    1
    29    11    12    2
    30    70    69   ar
    31    40    38   ar
    32    69    68    1
    33    34    33    1
    34    34    35    1
    35    38    39   ar
    36    32    31    2
    37    77    76    1
    38     2     5    1
    39     2     3    1
    40     2     1    1
    41    14    13    1
    42    14    16   ar
    43     3     4    2
    44    33    31   am
    45    31    30    1
    46    30    29    1
    47    36    35    2
    48    68    65    1
    49    65    66    1
    50    65    64    1
    51    76    73    1
    52    76    78    1
    53    72    73    1
    54    29    19   am
    55    66    67    2
    56    73    74    1
    57    51    48    1
    58    51    52    1
    59    50    49    2
    60    19    20    2
    61    19    18    1
    62    21    18    1
    63    21    22    1
    64    87    85    1
    65    48    49    1
    66    48    47    1
    67    85    86    1
    68    85    84    1
    69    46    45    1
    70    49    53   am
    71    74    75    2
    72    23    22   ar
    73    23    25   ar
    74    18    17    1
    75    22    24   ar
    76    41    42    1
    77    45    42    1
    78    61    59   ar
    79    61    63   ar
    80    25    27   ar
    81    84    81    1
    82    81    82    1
    83    81    80    1
    84    59    58   ar
    85    53    54    1
    86    63    62   ar
    87    42    43    1
    88    24    26   ar
    89    56    55    2
    90    82    83    2
    91    54    55    1
    92    54    57    1
    93    27    26   ar
    94    27    28    1
    95    58    57    1
    96    58    60   ar
    97    62    60   ar
    98    44    43    2
