@<TRIPOS>MOLECULE
tmp/4y5dA00.pdb
 154 145 0 0 0
SMALL
GASTEIGER

@<TRIPOS>ATOM
      1  N         16.9980    3.0970   -0.0020 N.3     9  ASN9       -0.1240
      2  CA        17.7820    2.0460    0.6710 C.3     9  ASN9        0.1653
      3  C         19.1220    1.8250    0.0110 C.2     9  ASN9        0.2266
      4  O         19.4580    2.4820   -0.9860 O.2     9  ASN9       -0.2867
      5  CB        16.9590    0.7520    0.8860 C.3     9  ASN9        0.1155
      6  CG        16.7140    0.0000   -0.3660 C.2     9  ASN9        0.2627
      7  OD1       17.2800    0.2980   -1.4340 O.2     9  ASN9       -0.2716
      8  ND2       15.8780   -1.0130   -0.2950 N.am    9  ASN9       -0.0877
      9  N         20.0610   -0.5040   -1.8100 N.3    11  LEU11      -0.1245
     10  CA        19.9340   -1.0150   -3.1720 C.3    11  LEU11       0.1561
     11  C         19.4780    0.0960   -4.1520 C.2    11  LEU11       0.2260
     12  O         19.4850   -0.1750   -5.3370 O.2    11  LEU11      -0.2867
     13  CB        18.8750   -2.1260   -3.2290 C.3    11  LEU11       0.0270
     14  CG        18.9030   -3.2710   -2.1850 C.3    11  LEU11       0.0019
     15  CD1       17.6400   -4.1460   -2.1990 C.3    11  LEU11       0.0001
     16  CD2       20.1250   -4.0930   -2.4900 C.3    11  LEU11       0.0001
     17  N         16.4030    1.5140   -3.9720 N.3    13  SER13      -0.1217
     18  CA        14.9710    1.6340   -4.0310 C.3    13  SER13       0.1889
     19  C         14.5520    2.9330   -3.4350 C.2    13  SER13       0.2288
     20  O         15.1920    3.4680   -2.5300 O.2    13  SER13      -0.2866
     21  CB        14.3410    0.4630   -3.2620 C.3    13  SER13       0.2089
     22  OG        14.7160   -0.7950   -3.8430 O.3    13  SER13      -0.2183
     23  N          6.3810    3.0680   -3.1770 N.3    29  TYR29      -0.1241
     24  CA         7.6900    2.3860   -3.1540 C.3    29  TYR29       0.1605
     25  C          8.0250    1.9970   -4.5510 C.2    29  TYR29       0.2264
     26  O          7.2020    1.4250   -5.2820 O.2    29  TYR29      -0.2867
     27  CB         7.6030    1.1760   -2.2190 C.3    29  TYR29       0.0534
     28  CG         8.9520    0.6700   -1.7570 C.ar   29  TYR29      -0.0201
     29  CD1        9.7250   -0.1590   -2.5780 C.ar   29  TYR29      -0.0009
     30  CD2        9.4850    1.0370   -0.5580 C.ar   29  TYR29      -0.0009
     31  CE1       10.9720   -0.6010   -2.1580 C.ar   29  TYR29       0.0417
     32  CE2       10.7320    0.6180   -0.1530 C.ar   29  TYR29       0.0417
     33  CZ        11.4260   -0.2140   -0.9190 C.ar   29  TYR29       0.1957
     34  OH        12.6960   -0.6860   -0.4980 O.3    29  TYR29      -0.2866
     35  N         11.0290   -0.2510   -6.4170 N.3    31  SER31      -0.1217
     36  CA        12.1430   -1.1290   -6.1450 C.3    31  SER31       0.1889
     37  C         13.2060   -1.1160   -7.2030 C.2    31  SER31       0.2288
     38  O         12.8980   -1.1480   -8.4010 O.2    31  SER31      -0.2866
     39  CB        11.6510   -2.5550   -6.0840 C.3    31  SER31       0.2089
     40  OG        12.6740   -3.4460   -5.6460 O.3    31  SER31      -0.2183
     41  N         15.2000   -3.6730   -7.4370 N.3    33  VAL33      -0.1231
     42  CA        15.4310   -5.0690   -7.6520 C.3    33  VAL33       0.1692
     43  C         14.1260   -5.8610   -7.7260 C.2    33  VAL33       0.2593
     44  O         13.0570   -5.3930   -7.3860 O.2    33  VAL33      -0.2718
     45  CB        16.2530   -5.6940   -6.5240 C.3    33  VAL33       0.0266
     46  CG1       17.6350   -5.0380   -6.4220 C.3    33  VAL33       0.0020
     47  CG2       15.5410   -5.6070   -5.1760 C.3    33  VAL33       0.0020
     48  N         14.1940   -7.0820   -8.2790 N.am   34  GLY34      -0.1942
     49  CA        13.0420   -7.9710   -8.2650 C.3    34  GLY34       0.2014
     50  C         12.1280   -7.7480   -9.4490 C.2    34  GLY34       0.2639
     51  O         12.3820   -6.9760  -10.3700 O.2    34  GLY34      -0.2714
     52  N         11.0160   -8.4650   -9.4070 N.am   35  ASN35      -0.1958
     53  CA        10.0360   -8.3510  -10.4360 C.3    35  ASN35       0.1819
     54  C          9.1190   -7.1800  -10.1680 C.2    35  ASN35       0.2621
     55  O          8.0270   -7.3310   -9.5660 O.2    35  ASN35      -0.2715
     56  CB         9.2810   -9.6350  -10.4980 C.3    35  ASN35       0.1195
     57  CG         8.2260   -9.6640  -11.5720 C.2    35  ASN35       0.2630
     58  OD1        8.1820   -8.8270  -12.4660 O.2    35  ASN35      -0.2716
     59  ND2        7.3270  -10.6610  -11.4570 N.am   35  ASN35      -0.0877
     60  N          9.5740   -5.9950  -10.5500 N.am   36  ALA36      -0.1977
     61  CA         9.0040   -4.7240  -10.1430 C.3    36  ALA36       0.1597
     62  C          9.2630   -3.6860  -11.2310 C.2    36  ALA36       0.2287
     63  O         10.3600   -3.6440  -11.8000 O.2    36  ALA36      -0.2864
     64  CB         9.6290   -4.3030   -8.8220 C.3    36  ALA36       0.0319
     65  N          3.2850   -6.4420   -4.1970 N.3    65  TRP65      -0.1241
     66  CA         3.9600   -6.1560   -5.4560 C.3    65  TRP65       0.1605
     67  C          3.0630   -6.3450   -6.6670 C.2    65  TRP65       0.2264
     68  O          3.4380   -6.9950   -7.6110 O.2    65  TRP65      -0.2867
     69  CB         5.2240   -7.0210   -5.5620 C.3    65  TRP65       0.0550
     70  CG         6.1960   -6.6800   -4.4520 C.ar   65  TRP65       0.0003
     71  CD1        6.4760   -7.4330   -3.3560 C.ar   65  TRP65       0.0946
     72  CD2        6.9610   -5.4770   -4.3200 C.ar   65  TRP65       0.0152
     73  NE1        7.3770   -6.7820   -2.5510 N.ar   65  TRP65      -0.2442
     74  CE2        7.6970   -5.5790   -3.1210 C.ar   65  TRP65       0.0810
     75  CE3        7.1150   -4.3320   -5.1090 C.ar   65  TRP65       0.0012
     76  CZ2        8.5750   -4.5880   -2.7050 C.ar   65  TRP65       0.0191
     77  CZ3        7.9770   -3.3480   -4.6920 C.ar   65  TRP65       0.0001
     78  CH2        8.6940   -3.4800   -3.4940 C.ar   65  TRP65       0.0015
     79  N          3.9260   -9.5170   -9.0240 N.3    72  ALA72      -0.1245
     80  CA         4.8380  -10.5550   -8.6000 C.3    72  ALA72       0.1562
     81  C          4.2150  -11.5650   -7.6240 C.2    72  ALA72       0.2260
     82  O          4.8370  -12.5240   -7.1900 O.2    72  ALA72      -0.2867
     83  CB         6.0720   -9.9610   -7.9650 C.3    72  ALA72       0.0290
     84  N          3.3360  -11.3330   -4.4190 N.3    74  SER74      -0.1217
     85  CA         4.1890  -11.3280   -3.2310 C.3    74  SER74       0.1889
     86  C          3.9610  -10.0090   -2.5310 C.2    74  SER74       0.2288
     87  O          3.4170   -9.0330   -3.0540 O.2    74  SER74      -0.2866
     88  CB         5.6390  -11.4850   -3.6210 C.3    74  SER74       0.2089
     89  OG         6.0790  -10.4480   -4.4270 O.3    74  SER74      -0.2183
     90  N          6.0210   -7.4830    0.6740 N.3    76  THR76      -0.1218
     91  CA         7.0970   -7.2110    1.6690 C.3    76  THR76       0.1862
     92  C          6.5660   -6.4010    2.7930 C.2    76  THR76       0.2287
     93  O          5.8450   -5.4150    2.5660 O.2    76  THR76      -0.2866
     94  CB         8.2920   -6.4880    1.0360 C.3    76  THR76       0.1770
     95  OG1        8.7670   -7.2930   -0.0620 O.3    76  THR76      -0.2211
     96  CG2        9.3890   -6.2420    2.0190 C.3    76  THR76       0.0375
     97  N          8.2810   -4.1770    5.9560 N.3    78  TRP78      -0.1241
     98  CA         9.4550   -3.6440    6.6520 C.3    78  TRP78       0.1605
     99  C          9.0320   -3.2770    8.0510 C.2    78  TRP78       0.2264
    100  O          8.0520   -2.5520    8.2280 O.2    78  TRP78      -0.2867
    101  CB         9.9930   -2.4210    5.9650 C.3    78  TRP78       0.0550
    102  CG        10.5760   -2.6090    4.5980 C.ar   78  TRP78       0.0003
    103  CD1       11.9290   -2.5980    4.3020 C.ar   78  TRP78       0.0946
    104  CD2        9.8970   -2.7240    3.3370 C.ar   78  TRP78       0.0152
    105  NE1       12.1110   -2.7320    2.9240 N.ar   78  TRP78      -0.2442
    106  CE2       10.8710   -2.8110    2.3160 C.ar   78  TRP78       0.0810
    107  CE3        8.5230   -2.7760    2.9670 C.ar   78  TRP78       0.0012
    108  CZ2       10.5550   -2.8990    0.9860 C.ar   78  TRP78       0.0191
    109  CZ3        8.2270   -2.8300    1.6260 C.ar   78  TRP78       0.0001
    110  CH2        9.2030   -2.8810    0.6510 C.ar   78  TRP78       0.0015
    111  N         13.0350   -6.9520    7.0600 N.3    94  TRP94      -0.1241
    112  CA        11.8710   -7.1760    6.2090 C.3    94  TRP94       0.1605
    113  C         11.6330   -8.6130    5.9840 C.2    94  TRP94       0.2264
    114  O         12.5410   -9.4590    6.0410 O.2    94  TRP94      -0.2867
    115  CB        11.9680   -6.3380    4.9440 C.3    94  TRP94       0.0550
    116  CG        13.2200   -6.5790    4.1070 C.ar   94  TRP94       0.0003
    117  CD1       14.2820   -5.7280    4.0390 C.ar   94  TRP94       0.0946
    118  CD2       13.4900   -7.6640    3.2330 C.ar   94  TRP94       0.0152
    119  NE1       15.2120   -6.2530    3.1680 N.ar   94  TRP94      -0.2442
    120  CE2       14.7650   -7.4370    2.6730 C.ar   94  TRP94       0.0810
    121  CE3       12.8110   -8.8230    2.8560 C.ar   94  TRP94       0.0012
    122  CZ2       15.3200   -8.2850    1.7620 C.ar   94  TRP94       0.0191
    123  CZ3       13.3910   -9.6750    1.9670 C.ar   94  TRP94       0.0001
    124  CH2       14.6400   -9.4190    1.4180 C.ar   94  TRP94       0.0015
    125  N          9.5380  -10.9020    2.9950 N.3    96  LEU96      -0.1245
    126  CA         8.9480  -10.8900    1.6680 C.3    96  LEU96       0.1561
    127  C          8.3380  -12.2530    1.4230 C.2    96  LEU96       0.2260
    128  O          9.0490  -13.2320    1.1390 O.2    96  LEU96      -0.2867
    129  CB        10.0440  -10.5590    0.6340 C.3    96  LEU96       0.0270
    130  CG         9.7590  -10.8440   -0.8150 C.3    96  LEU96       0.0019
    131  CD1        8.5170  -10.3130   -1.3200 C.3    96  LEU96       0.0001
    132  CD2       11.0540  -10.4000   -1.6370 C.3    96  LEU96       0.0001
    133  N          6.0210  -14.6720   -0.8040 N.3    98  SER98      -0.1217
    134  CA         5.3920  -14.9370   -2.1070 C.3    98  SER98       0.1889
    135  C          4.2430  -15.8830   -1.9060 C.2    98  SER98       0.2288
    136  O          4.2920  -16.8230   -1.0900 O.2    98  SER98      -0.2866
    137  CB         6.4320  -15.6040   -3.0660 C.3    98  SER98       0.2089
    138  OG         7.4490  -14.6810   -3.3430 O.3    98  SER98      -0.2183
    139  N         11.3570  -14.7450    2.1400 N.3   110  LEU110     -0.1245
    140  CA        12.7140  -14.1810    2.2620 C.3   110  LEU110      0.1561
    141  C         12.7660  -13.2030    3.4080 C.2   110  LEU110      0.2260
    142  O         11.7760  -12.5060    3.7070 O.2   110  LEU110     -0.2867
    143  CB        13.0440  -13.4470    0.9530 C.3   110  LEU110      0.0270
    144  CG        13.2580  -14.3320   -0.2530 C.3   110  LEU110      0.0019
    145  CD1       13.2520  -13.4990   -1.5090 C.3   110  LEU110      0.0001
    146  CD2       14.5850  -15.1050   -0.1610 C.3   110  LEU110      0.0001
    147  N         17.1170   -3.6400    5.3600 N.3   114  ASP114     -0.1239
    148  CA        17.3150   -2.4450    4.5500 C.3   114  ASP114      0.1674
    149  C         17.5180   -1.2200    5.4410 C.2   114  ASP114      0.2266
    150  O         16.8080   -1.0200    6.4560 O.2   114  ASP114     -0.2867
    151  CB        16.0830   -2.1130    3.6700 C.3   114  ASP114      0.1410
    152  CG        15.8670   -2.9990    2.4910 C.2   114  ASP114      0.3668
    153  OD1       16.7160   -3.8920    2.2250 O.co2 114  ASP114     -0.2456
    154  OD2       14.8230   -2.7790    1.8120 O.co2 114  ASP114     -0.2456
@<TRIPOS>BOND
     1    58    57    2
     2    63    62    2
     3    57    59   am
     4    57    56    1
     5    62    61    1
     6    60    54   am
     7    60    61    1
     8    56    53    1
     9    53    54    1
    10    53    52    1
    11    51    50    2
    12    54    55    2
    13    61    64    1
    14    50    52   am
    15    50    49    1
    16    79    80    1
    17    80    83    1
    18    80    81    1
    19    38    37    2
    20    48    49    1
    21    48    43   am
    22    43    42    1
    23    43    44    2
    24    42    41    1
    25    42    45    1
    26    81    82    2
    27    68    67    2
    28    37    36    1
    29    67    66    1
    30    45    46    1
    31    45    47    1
    32    35    36    1
    33    36    39    1
    34    39    40    1
    35    69    66    1
    36    69    70    1
    37    66    65    1
    38    12    11    2
    39    26    25    2
    40    75    77   ar
    41    75    72   ar
    42    77    78   ar
    43    25    24    1
    44    70    72   ar
    45    70    71   ar
    46    89    88    1
    47    84    85    1
    48    72    74   ar
    49    11    10    1
    50    18    17    1
    51    18    19    1
    52    18    21    1
    53    22    21    1
    54    88    85    1
    55    78    76   ar
    56    19    20    2
    57    71    73   ar
    58   138   137    1
    59    85    86    1
    60    13    10    1
    61    13    14    1
    62    23    24    1
    63    10     9    1
    64    24    27    1
    65    74    76   ar
    66    74    73   ar
    67   137   134    1
    68    87    86    2
    69    29    31   ar
    70    29    28   ar
    71    16    14    1
    72    27    28    1
    73    15    14    1
    74    31    33   ar
    75   134   135    1
    76   134   133    1
    77   135   136    2
    78    28    30   ar
    79   132   130    1
    80   145   144    1
    81     7     6    2
    82   131   130    1
    83     4     3    2
    84    33    34    1
    85    33    32   ar
    86   130   129    1
    87    30    32   ar
    88     6     8   am
    89     6     5    1
    90   144   146    1
    91   144   143    1
    92    95    94    1
    93     1     2    1
    94     3     2    1
    95   129   126    1
    96   110   108   ar
    97   110   109   ar
    98     2     5    1
    99    90    91    1
   100   143   140    1
   101   108   106   ar
   102    94    91    1
   103    94    96    1
   104   128   127    2
   105   124   122   ar
   106   124   123   ar
   107   127   126    1
   108   109   107   ar
   109   126   125    1
   110    91    92    1
   111   122   120   ar
   112   154   152   ar
   113   123   121   ar
   114   139   140    1
   115   153   152   ar
   116   140   141    1
   117   106   105   ar
   118   106   104   ar
   119   152   151    1
   120    93    92    2
   121   120   119   ar
   122   120   118   ar
   123   121   118   ar
   124   105   103   ar
   125   107   104   ar
   126   119   117   ar
   127   118   116   ar
   128   104   102   ar
   129   141   142    2
   130   151   148    1
   131   117   116   ar
   132   116   115    1
   133   103   102   ar
   134   148   147    1
   135   148   149    1
   136   102   101    1
   137   115   112    1
   138   149   150    2
   139    97    98    1
   140   101    98    1
   141   113   114    2
   142   113   112    1
   143   112   111    1
   144    98    99    1
   145    99   100    2
