@<TRIPOS>MOLECULE
tmp/4y5dA01.pdb
 93 92 0 0 0
SMALL
GASTEIGER

@<TRIPOS>ATOM
      1  N          4.4250    5.7170   -1.7150 N.3    28  THR28      -0.1218
      2  CA         4.7380    4.7620   -2.7780 C.3    28  THR28       0.1862
      3  C          6.1620    4.2320   -2.6070 C.2    28  THR28       0.2287
      4  O          7.0500    4.9330   -2.0330 O.2    28  THR28      -0.2866
      5  CB         4.6080    5.4060   -4.1590 C.3    28  THR28       0.1770
      6  OG1        5.5130    6.5160   -4.2980 O.3    28  THR28      -0.2211
      7  CG2        3.2160    5.9140   -4.3930 C.3    28  THR28       0.0375
      8  N          6.0650    2.5340   -9.5190 N.3    39  ARG39      -0.1231
      9  CA         5.6120    2.7690   -8.1460 C.3    39  ARG39       0.1694
     10  C          4.5670    1.7450   -7.7010 C.2    39  ARG39       0.2592
     11  O          3.6790    1.3380   -8.4830 O.2    39  ARG39      -0.2718
     12  CB         5.0200    4.1950   -7.9700 C.3    39  ARG39       0.0321
     13  CG         5.9090    5.3490   -8.3360 C.3    39  ARG39       0.0489
     14  CD         5.2130    6.7250   -8.2400 C.3    39  ARG39       0.2205
     15  NE         3.8220    6.8440   -8.7220 N.pl3  39  ARG39      -0.0865
     16  CZ         3.0230    7.8630   -8.3700 C.cat  39  ARG39       0.5346
     17  NH1        3.4220    8.7800   -7.5120 N.pl3  39  ARG39       0.1354
     18  NH2        1.7890    7.9480   -8.7640 N.pl3  39  ARG39       0.1354
     19  N          4.6530    1.3850   -6.4280 N.am   40  TYR40      -0.1962
     20  CA         3.6610    0.5070   -5.7570 C.3    40  TYR40       0.1771
     21  C          3.1310    1.2570   -4.5480 C.2    40  TYR40       0.2619
     22  O          3.8400    1.9780   -3.8820 O.2    40  TYR40      -0.2715
     23  CB         4.2650   -0.8390   -5.3520 C.3    40  TYR40       0.0574
     24  CG         4.7530   -1.6390   -6.4850 C.ar   40  TYR40      -0.0198
     25  CD1        5.9360   -1.3450   -7.1310 C.ar   40  TYR40      -0.0009
     26  CD2        4.0240   -2.6900   -6.9630 C.ar   40  TYR40      -0.0009
     27  CE1        6.3460   -2.0870   -8.2320 C.ar   40  TYR40       0.0417
     28  CE2        4.3640   -3.4010   -8.0890 C.ar   40  TYR40       0.0417
     29  CZ         5.5810   -3.1190   -8.7120 C.ar   40  TYR40       0.1957
     30  OH         5.9300   -3.7930   -9.8590 O.3    40  TYR40      -0.2866
     31  N          1.8370    1.0570   -4.2640 N.am   41  VAL41      -0.1977
     32  CA         1.2440    1.6310   -3.0640 C.3    41  VAL41       0.1596
     33  C          1.8810    1.0100   -1.8150 C.2    41  VAL41       0.2287
     34  O          2.1100   -0.2020   -1.7610 O.2    41  VAL41      -0.2864
     35  CB        -0.2730    1.2790   -3.0420 C.3    41  VAL41       0.0276
     36  CG1       -0.8820    1.7370   -1.7410 C.3    41  VAL41       0.0022
     37  CG2       -0.9730    1.9480   -4.2200 C.3    41  VAL41       0.0022
     38  N          1.8820   -5.7440   -6.5920 N.3    66  LYS66      -0.1231
     39  CA         0.9800   -5.5800   -7.7320 C.3    66  LYS66       0.1693
     40  C          0.7430   -4.1000   -7.9150 C.2    66  LYS66       0.2592
     41  O          0.3960   -3.4140   -7.0000 O.2    66  LYS66      -0.2718
     42  CB        -0.3780   -6.2520   -7.4960 C.3    66  LYS66       0.0285
     43  CG        -1.3290   -6.0470   -8.6870 C.3    66  LYS66       0.0035
     44  CD        -2.7810   -6.4250   -8.4400 C.3    66  LYS66       0.0206
     45  CE        -3.6220   -6.1940   -9.7010 C.3    66  LYS66       0.1093
     46  NZ        -3.4420   -4.8660  -10.3660 N.3    66  LYS66      -0.1314
     47  N          0.9440   -3.6240   -9.1300 N.am   67  ASN67      -0.1960
     48  CA         0.4580   -2.3230   -9.5580 C.3    67  ASN67       0.1819
     49  C         -0.3310   -2.4680  -10.8720 C.2    67  ASN67       0.2621
     50  O         -0.8720   -3.5160  -11.0980 O.2    67  ASN67      -0.2715
     51  CB         1.5740   -1.2730   -9.5830 C.3    67  ASN67       0.1195
     52  CG         2.6970   -1.6060  -10.5660 C.2    67  ASN67       0.2630
     53  OD1        2.5470   -2.4460  -11.4220 O.2    67  ASN67      -0.2716
     54  ND2        3.8080   -0.9220  -10.4330 N.am   67  ASN67      -0.0877
     55  N         -0.4690   -1.4070  -11.6600 N.am   68  ASN68      -0.1958
     56  CA        -1.2100   -1.4900  -12.9220 C.3    68  ASN68       0.1819
     57  C         -0.3930   -2.1040  -14.0690 C.2    68  ASN68       0.2621
     58  O         -0.9180   -2.3470  -15.1280 O.2    68  ASN68      -0.2715
     59  CB        -1.8270   -0.1290  -13.3050 C.3    68  ASN68       0.1195
     60  CG        -2.7750    0.3950  -12.2390 C.2    68  ASN68       0.2630
     61  OD1       -3.6300   -0.3180  -11.7620 O.2    68  ASN68      -0.2716
     62  ND2       -2.5840    1.6260  -11.8520 N.am   68  ASN68      -0.0877
     63  N          0.8980   -2.3290  -13.8360 N.am   69  TYR69      -0.1960
     64  CA         1.8720   -2.8460  -14.7890 C.3    69  TYR69       0.1771
     65  C          2.2590   -4.2730  -14.6200 C.2    69  TYR69       0.2619
     66  O          2.3220   -5.0300  -15.5910 O.2    69  TYR69      -0.2715
     67  CB         3.1460   -1.9650  -14.7980 C.3    69  TYR69       0.0574
     68  CG         2.9060   -0.4980  -14.9310 C.ar   69  TYR69      -0.0198
     69  CD1        1.7200    0.0260  -15.6020 C.ar   69  TYR69      -0.0009
     70  CD2        3.7410    0.4050  -14.4330 C.ar   69  TYR69      -0.0009
     71  CE1        1.5460    1.4050  -15.7410 C.ar   69  TYR69       0.0417
     72  CE2        3.5320    1.7740  -14.5730 C.ar   69  TYR69       0.0417
     73  CZ         2.5020    2.2500  -15.2420 C.ar   69  TYR69       0.1957
     74  OH         2.3260    3.6150  -15.2560 O.3    69  TYR69      -0.2866
     75  N          2.5320   -4.7010  -13.3960 N.am   70  ARG70      -0.1963
     76  CA         3.1250   -5.9840  -13.1070 C.3    70  ARG70       0.1729
     77  C          2.5000   -6.5370  -11.7650 C.2    70  ARG70       0.2616
     78  O          2.0260   -5.7480  -10.9310 O.2    70  ARG70      -0.2715
     79  CB         4.6640   -5.8940  -12.9000 C.3    70  ARG70       0.0348
     80  CG         5.4100   -5.5170  -14.1630 C.3    70  ARG70       0.0492
     81  CD         6.9040   -5.6630  -13.9490 C.3    70  ARG70       0.2205
     82  NE         7.5900   -5.2130  -15.1770 N.pl3  70  ARG70      -0.0865
     83  CZ         7.8380   -5.9570  -16.2630 C.cat  70  ARG70       0.5346
     84  NH1        7.5380   -7.2660  -16.3060 N.pl3  70  ARG70       0.1354
     85  NH2        8.4160   -5.3850  -17.3390 N.pl3  70  ARG70       0.1354
     86  N          2.6010   -7.8640  -11.6170 N.am   71  ASN71      -0.1972
     87  CA         2.1800   -8.5400  -10.3950 C.3    71  ASN71       0.1688
     88  C          3.0990   -9.6630  -10.0860 C.2    71  ASN71       0.2292
     89  O          3.1330  -10.6280  -10.8220 O.2    71  ASN71      -0.2864
     90  CB         0.7510   -9.0440  -10.4940 C.3    71  ASN71       0.1181
     91  CG         0.1750   -9.4100   -9.1550 C.2    71  ASN71       0.2629
     92  OD1        0.9030   -9.5150   -8.1680 O.2    71  ASN71      -0.2716
     93  ND2       -1.1440   -9.6380   -9.1150 N.am   71  ASN71      -0.0877
@<TRIPOS>BOND
     1    85    83    1
     2    84    83    1
     3    83    82    2
     4    71    69   ar
     5    71    73   ar
     6    69    68   ar
     7    66    65    2
     8    74    73    1
     9    73    72   ar
    10    82    81    1
    11    58    57    2
    12    68    67    1
    13    68    70   ar
    14    67    64    1
    15    64    65    1
    16    64    63    1
    17    65    75   am
    18    72    70   ar
    19    80    81    1
    20    80    79    1
    21    57    63   am
    22    57    56    1
    23    75    76    1
    24    59    56    1
    25    59    60    1
    26    76    79    1
    27    76    77    1
    28    56    55    1
    29    60    62   am
    30    60    61    2
    31    77    86   am
    32    77    78    2
    33    55    49   am
    34    86    87    1
    35    53    52    2
    36    50    49    2
    37    49    48    1
    38    89    88    2
    39    52    54   am
    40    52    51    1
    41    90    87    1
    42    90    91    1
    43    87    88    1
    44    46    45    1
    45    30    29    1
    46    45    44    1
    47    51    48    1
    48    48    47    1
    49     8     9    1
    50    91    93   am
    51    91    92    2
    52    47    40   am
    53    18    16    1
    54    15    16    2
    55    15    14    1
    56    29    27   ar
    57    29    28   ar
    58    43    44    1
    59    43    42    1
    60    11    10    2
    61    16    17    1
    62    13    14    1
    63    13    12    1
    64    27    25   ar
    65     9    12    1
    66     9    10    1
    67    28    26   ar
    68    40    39    1
    69    40    41    2
    70    39    42    1
    71    39    38    1
    72    10    19   am
    73    25    24   ar
    74    26    24   ar
    75    24    23    1
    76    19    20    1
    77    20    23    1
    78    20    21    1
    79    21    31   am
    80    21    22    2
    81     7     5    1
    82     6     5    1
    83    31    32    1
    84    37    35    1
    85     5     2    1
    86    32    35    1
    87    32    33    1
    88    35    36    1
    89     2     3    1
    90     2     1    1
    91     3     4    2
    92    33    34    2
