@<TRIPOS>MOLECULE
tmp/4y5eA00.pdb
 139 129 0 0 0
SMALL
GASTEIGER

@<TRIPOS>ATOM
      1  N          5.3680   -1.4030    9.8050 N.3    35  ASP35      -0.1239
      2  CA         5.0390   -0.0090    9.5380 C.3    35  ASP35       0.1674
      3  C          6.2750    0.8750    9.5980 C.2    35  ASP35       0.2266
      4  O          6.6990    1.2660   10.6810 O.2    35  ASP35      -0.2867
      5  CB         3.9960    0.4500   10.5680 C.3    35  ASP35       0.1410
      6  CG         3.5630    1.8790   10.3740 C.2    35  ASP35       0.3668
      7  OD1        3.8320    2.4210    9.2820 O.co2  35  ASP35      -0.2456
      8  OD2        2.9290    2.4390   11.3040 O.co2  35  ASP35      -0.2456
      9  N          6.4010    3.8700    8.9900 N.3    37  GLY37      -0.1210
     10  CA         5.9770    5.1870    9.4320 C.3    37  GLY37       0.1956
     11  C          5.6840    5.3410   10.9150 C.2    37  GLY37       0.2613
     12  O          5.1760    6.3750   11.3400 O.2    37  GLY37      -0.2717
     13  N          6.0130    4.3350   11.7190 N.am   38  SER38      -0.1938
     14  CA         5.8960    4.4630   13.1770 C.3    38  SER38       0.2055
     15  C          6.9410    3.5920   13.8460 C.2    38  SER38       0.2643
     16  O          7.6420    2.8470   13.1730 O.2    38  SER38      -0.2714
     17  CB         4.4940    4.1100   13.6750 C.3    38  SER38       0.2130
     18  OG         4.2140    2.7330   13.5570 O.3    38  SER38      -0.2179
     19  N          7.0240    3.6690   15.1780 N.am   39  SER39      -0.1949
     20  CA         8.1790    3.1190   15.8910 C.3    39  SER39       0.1924
     21  C          7.8210    2.3670   17.1590 C.2    39  SER39       0.2314
     22  O          8.6720    2.2060   18.0370 O.2    39  SER39      -0.2863
     23  CB         9.2060    4.2240   16.1760 C.3    39  SER39       0.2116
     24  OG         9.4900    4.8600   14.9440 O.3    39  SER39      -0.2180
     25  N         -0.4880    5.8680   21.3440 N.3    77  ILE77      -0.1231
     26  CA        -0.1510    6.2930   19.9940 C.3    77  ILE77       0.1692
     27  C         -1.4080    6.6440   19.2210 C.2    77  ILE77       0.2593
     28  O         -2.4740    6.0650   19.4360 O.2    77  ILE77      -0.2718
     29  CB         0.6900    5.1920   19.2820 C.3    77  ILE77       0.0266
     30  CG1        1.3570    5.7180   18.0070 C.3    77  ILE77       0.0019
     31  CG2       -0.1510    3.9540   19.0080 C.3    77  ILE77       0.0020
     32  CD1        2.5020    4.8490   17.5280 C.3    77  ILE77       0.0001
     33  N         -1.2720    7.6420   18.3580 N.am   78  SER78      -0.1938
     34  CA        -2.3350    8.0420   17.4560 C.3    78  SER78       0.2055
     35  C         -1.7360    8.1240   16.0630 C.2    78  SER78       0.2643
     36  O         -0.6730    8.7100   15.8710 O.2    78  SER78      -0.2714
     37  CB        -2.9020    9.3990   17.8700 C.3    78  SER78       0.2130
     38  OG        -3.4470    9.3540   19.1800 O.3    78  SER78      -0.2179
     39  N         -2.4170    7.5250   15.0980 N.am   79  TYR79      -0.1959
     40  CA        -1.9230    7.4530   13.7330 C.3    79  TYR79       0.1771
     41  C         -2.6390    8.4540   12.8310 C.2    79  TYR79       0.2620
     42  O         -3.7090    8.9650   13.1710 O.2    79  TYR79      -0.2715
     43  CB        -2.1050    6.0390   13.1910 C.3    79  TYR79       0.0574
     44  CG        -1.3330    4.9820   13.9630 C.ar   79  TYR79      -0.0198
     45  CD1       -1.9630    4.1940   14.9110 C.ar   79  TYR79      -0.0009
     46  CD2        0.0240    4.7780   13.7380 C.ar   79  TYR79      -0.0009
     47  CE1       -1.2780    3.2190   15.6040 C.ar   79  TYR79       0.0417
     48  CE2        0.7350    3.8000   14.4380 C.ar   79  TYR79       0.0417
     49  CZ         0.0680    3.0270   15.3730 C.ar   79  TYR79       0.1957
     50  OH         0.7200    2.0490   16.0840 O.3    79  TYR79      -0.2866
     51  N         -2.0400    8.7170   11.6730 N.am   80  GLY80      -0.1940
     52  CA        -2.5520    9.6930   10.7290 C.3    80  GLY80       0.2014
     53  C         -3.9540    9.4070   10.2330 C.2    80  GLY80       0.2638
     54  O         -4.6480   10.3210    9.7870 O.2    80  GLY80      -0.2714
     55  N         -4.3750    8.1460   10.2950 N.am   81  ASP81      -0.1971
     56  CA        -5.7130    7.7770    9.8380 C.3    81  ASP81       0.1709
     57  C         -6.7710    7.9350   10.9320 C.2    81  ASP81       0.2293
     58  O         -7.9380    7.6180   10.7180 O.2    81  ASP81      -0.2864
     59  CB        -5.7320    6.3530    9.2650 C.3    81  ASP81       0.1436
     60  CG        -5.4650    5.2880   10.3060 C.2    81  ASP81       0.3671
     61  OD1       -5.5000    4.0940    9.9350 O.co2  81  ASP81      -0.2456
     62  OD2       -5.2090    5.6290   11.4810 O.co2  81  ASP81      -0.2456
     63  N         10.7230    8.2640   17.5000 N.3   133  LEU133     -0.1245
     64  CA         9.2560    8.3560   17.5070 C.3   133  LEU133      0.1561
     65  C          8.5680    7.3990   18.4800 C.2   133  LEU133      0.2260
     66  O          7.3530    7.4560   18.6270 O.2   133  LEU133     -0.2867
     67  CB         8.6760    8.1410   16.1070 C.3   133  LEU133      0.0270
     68  CG         9.0240    9.1700   15.0370 C.3   133  LEU133      0.0019
     69  CD1        8.3600    8.8000   13.7280 C.3   133  LEU133      0.0001
     70  CD2        8.6330   10.5710   15.4590 C.3   133  LEU133      0.0001
     71  N          6.7580    5.7900   21.4970 N.3   135  THR135     -0.1218
     72  CA         5.9170    6.5080   22.4620 C.3   135  THR135      0.1862
     73  C          6.0310    6.0410   23.9130 C.2   135  THR135      0.2287
     74  O          5.3600    6.5840   24.7730 O.2   135  THR135     -0.2866
     75  CB         4.4090    6.5010   22.0840 C.3   135  THR135      0.1770
     76  OG1        3.8240    5.2330   22.4000 O.3   135  THR135     -0.2211
     77  CG2        4.1910    6.8460   20.6140 C.3   135  THR135      0.0375
     78  N         11.1590    9.9040   10.4070 N.3   194  PHE194     -0.1241
     79  CA        10.6810    9.0770    9.3090 C.3   194  PHE194      0.1605
     80  C         11.7970    8.7800    8.3170 C.2   194  PHE194      0.2264
     81  O         12.8510    9.4220    8.3220 O.2   194  PHE194     -0.2867
     82  CB         9.5850    9.8120    8.5310 C.3   194  PHE194      0.0534
     83  CG         8.3460   10.1410    9.3290 C.ar  194  PHE194     -0.0203
     84  CD1        7.9150   11.4550    9.4480 C.ar  194  PHE194     -0.0042
     85  CD2        7.5950    9.1420    9.9220 C.ar  194  PHE194     -0.0042
     86  CE1        6.7630   11.7640   10.1490 C.ar  194  PHE194     -0.0003
     87  CE2        6.4370    9.4530   10.6330 C.ar  194  PHE194     -0.0003
     88  CZ         6.0360   10.7680   10.7480 C.ar  194  PHE194     -0.0000
     89  N          7.5960   10.6060    2.7430 N.3   217  ILE217     -0.1245
     90  CA         8.0880    9.5010    3.5540 C.3   217  ILE217      0.1561
     91  C          7.7830    8.1560    2.9130 C.2   217  ILE217      0.2260
     92  O          6.7350    7.9900    2.2950 O.2   217  ILE217     -0.2867
     93  CB         7.5550    9.5660    4.9980 C.3   217  ILE217      0.0252
     94  CG1        6.0400    9.3480    5.0830 C.3   217  ILE217      0.0019
     95  CG2        7.9550   10.8960    5.6300 C.3   217  ILE217      0.0019
     96  CD1        5.5360    9.1240    6.4970 C.3   217  ILE217      0.0001
     97  N          6.4800    4.7770    3.5700 N.3   219  ASP219     -0.1239
     98  CA         5.6340    4.3180    4.6720 C.3   219  ASP219      0.1674
     99  C          4.8580    3.0530    4.3000 C.2   219  ASP219      0.2266
    100  O          3.7850    3.1090    3.6840 O.2   219  ASP219     -0.2867
    101  CB         4.6620    5.4190    5.1000 C.3   219  ASP219      0.1410
    102  CG         3.8540    5.0310    6.3150 C.2   219  ASP219      0.3668
    103  OD1        2.9920    5.8200    6.7410 O.co2 219  ASP219     -0.2456
    104  OD2        4.0730    3.9200    6.8490 O.co2 219  ASP219     -0.2456
    105  N          3.1760    1.2440    6.1980 N.3   221  GLY221     -0.1210
    106  CA         1.9200    1.1730    6.9270 C.3   221  GLY221      0.1956
    107  C          0.7940    2.0590    6.4220 C.2   221  GLY221      0.2612
    108  O         -0.2830    2.0630    7.0160 O.2   221  GLY221     -0.2717
    109  N          1.0170    2.7890    5.3300 N.am  222  THR222     -0.1952
    110  CA        -0.0290    3.5780    4.6870 C.3   222  THR222      0.1897
    111  C         -0.3760    2.8990    3.3700 C.2   222  THR222      0.2313
    112  O          0.5150    2.5330    2.6130 O.2   222  THR222     -0.2863
    113  CB         0.4340    5.0330    4.4430 C.3   222  THR222      0.1794
    114  OG1        0.5240    5.7000    5.7070 O.3   222  THR222     -0.2208
    115  CG2       -0.5580    5.7890    3.5730 C.3   222  THR222      0.0378
    116  N         -2.8580   16.7020    5.2200 N.3   300  ILE300     -0.1245
    117  CA        -2.0550   15.7510    6.0080 C.3   300  ILE300      0.1561
    118  C         -0.8060   16.4100    6.5600 C.2   300  ILE300      0.2260
    119  O         -0.3610   16.0810    7.6560 O.2   300  ILE300     -0.2867
    120  CB        -1.5640   14.5330    5.1730 C.3   300  ILE300      0.0252
    121  CG1       -2.7460   13.7280    4.6410 C.3   300  ILE300      0.0019
    122  CG2       -0.6280   13.6250    6.0120 C.3   300  ILE300      0.0019
    123  CD1       -2.3460   12.5480    3.7820 C.3   300  ILE300      0.0001
    124  N          2.1690   16.1710    5.0750 N.3   302  ILE302     -0.1245
    125  CA         3.3390   15.4720    4.5570 C.3   302  ILE302      0.1561
    126  C          2.8980   14.6000    3.3790 C.2   302  ILE302      0.2260
    127  O          1.7730   14.1040    3.3490 O.2   302  ILE302     -0.2867
    128  CB         4.0340   14.6410    5.6740 C.3   302  ILE302      0.0252
    129  CG1        5.4730   14.2670    5.2900 C.3   302  ILE302      0.0019
    130  CG2        3.2110   13.4270    6.0390 C.3   302  ILE302      0.0019
    131  CD1        6.3450   13.8770    6.4800 C.3   302  ILE302      0.0001
    132  N          3.1630   11.1030    1.3400 N.3   304  ILE304     -0.1245
    133  CA         3.3730    9.7300    1.8030 C.3   304  ILE304      0.1561
    134  C          3.4670    8.7690    0.6190 C.2   304  ILE304      0.2260
    135  O          2.4840    8.5590   -0.1030 O.2   304  ILE304     -0.2867
    136  CB         2.2630    9.2510    2.7650 C.3   304  ILE304      0.0252
    137  CG1        2.0600   10.2260    3.9310 C.3   304  ILE304      0.0019
    138  CG2        2.6180    7.8680    3.2770 C.3   304  ILE304      0.0019
    139  CD1        0.8780    9.8790    4.8190 C.3   304  ILE304      0.0001
@<TRIPOS>BOND
     1   135   134    2
     2   134   133    1
     3   132   133    1
     4   133   136    1
     5    92    91    2
     6   112   111    2
     7    89    90    1
     8   136   138    1
     9   136   137    1
    10    91    90    1
    11   127   126    2
    12   111   110    1
    13   126   125    1
    14    90    93    1
    15    97    98    1
    16   115   113    1
    17   100    99    2
    18   123   121    1
    19   137   139    1
    20    99    98    1
    21   113   110    1
    22   113   114    1
    23   125   124    1
    24   125   128    1
    25   121   120    1
    26    98   101    1
    27   110   109    1
    28    93    94    1
    29    93    95    1
    30    94    96    1
    31   101   102    1
    32   120   117    1
    33   120   122    1
    34   116   117    1
    35   129   128    1
    36   129   131    1
    37   109   107   am
    38   128   130    1
    39   117   118    1
    40   105   106    1
    41   102   103   ar
    42   102   104   ar
    43   107   106    1
    44   107   108    2
    45   118   119    2
    46    80    81    2
    47    80    79    1
    48    82    79    1
    49    82    83    1
    50     9    10    1
    51    59    56    1
    52    59    60    1
    53     7     6   ar
    54    79    78    1
    55    83    84   ar
    56    83    85   ar
    57    10    11    1
    58    84    86   ar
    59     2     3    1
    60     2     1    1
    61     2     5    1
    62     3     4    2
    63    54    53    2
    64    56    55    1
    65    56    57    1
    66    85    87   ar
    67    61    60   ar
    68    86    88   ar
    69    53    55   am
    70    53    52    1
    71    60    62   ar
    72     6     5    1
    73     6     8   ar
    74    87    88   ar
    75    58    57    2
    76    52    51    1
    77    11    12    2
    78    11    13   am
    79    51    41   am
    80    13    14    1
    81    41    42    2
    82    41    40    1
    83    16    15    2
    84    14    17    1
    85    14    15    1
    86    43    40    1
    87    43    44    1
    88    18    17    1
    89    69    68    1
    90    40    39    1
    91    46    44   ar
    92    46    48   ar
    93    15    19   am
    94    44    45   ar
    95    48    49   ar
    96    45    47   ar
    97    24    23    1
    98    68    70    1
    99    68    67    1
   100    39    35   am
   101    19    20    1
   102    49    47   ar
   103    49    50    1
   104    36    35    2
   105    20    23    1
   106    20    21    1
   107    35    34    1
   108    67    64    1
   109    21    22    2
   110    34    37    1
   111    34    33    1
   112    63    64    1
   113    64    65    1
   114    32    30    1
   115    37    38    1
   116    30    29    1
   117    33    27   am
   118    65    66    2
   119    31    29    1
   120    27    28    2
   121    27    26    1
   122    29    26    1
   123    26    25    1
   124    77    75    1
   125    71    72    1
   126    75    76    1
   127    75    72    1
   128    72    73    1
   129    73    74    2
