@<TRIPOS>MOLECULE
tmp/4y5gA00.pdb
 128 118 0 0 0
SMALL
GASTEIGER

@<TRIPOS>ATOM
      1  N          1.4310   -5.1760   11.2350 N.3    33  ASP33      -0.1239
      2  CA         1.5300   -4.2240   10.1400 C.3    33  ASP33       0.1674
      3  C          2.8580   -3.4800   10.3090 C.2    33  ASP33       0.2266
      4  O          3.0050   -2.6320   11.2040 O.2    33  ASP33      -0.2867
      5  CB         0.3370   -3.2690   10.2700 C.3    33  ASP33       0.1410
      6  CG         0.2250   -2.2710    9.1550 C.2    33  ASP33       0.3668
      7  OD1        1.1580   -2.1260    8.3490 O.co2  33  ASP33      -0.2456
      8  OD2       -0.8330   -1.5890    9.1240 O.co2  33  ASP33      -0.2456
      9  N          5.3960   -0.7650    9.7910 N.3    35  ASP35      -0.1239
     10  CA         5.0570    0.6240    9.5140 C.3    35  ASP35       0.1674
     11  C          6.2870    1.5080    9.5720 C.2    35  ASP35       0.2266
     12  O          6.7020    1.9140   10.6480 O.2    35  ASP35      -0.2867
     13  CB         4.0130    1.0830   10.5360 C.3    35  ASP35       0.1410
     14  CG         3.6010    2.5240   10.3500 C.2    35  ASP35       0.3668
     15  OD1        3.9190    3.0970    9.2780 O.co2  35  ASP35      -0.2456
     16  OD2        2.9110    3.0550   11.2650 O.co2  35  ASP35      -0.2456
     17  N          6.3870    4.4940    8.9370 N.3    37  GLY37      -0.1225
     18  CA         5.9500    5.8250    9.3240 C.3    37  GLY37       0.1811
     19  C          5.6800    6.0010   10.8120 C.2    37  GLY37       0.2280
     20  O          5.2170    7.0560   11.2310 O.2    37  GLY37      -0.2866
     21  N         -2.6090    8.1760   15.0240 N.3    79  TYR79      -0.1227
     22  CA        -2.1600    8.2260   13.6490 C.3    79  TYR79       0.1736
     23  C         -2.9440    9.2580   12.8520 C.2    79  TYR79       0.2596
     24  O         -4.0200    9.7090   13.2660 O.2    79  TYR79      -0.2718
     25  CB        -2.2790    6.8360   13.0190 C.3    79  TYR79       0.0548
     26  CG        -1.5170    5.7450   13.7540 C.ar   79  TYR79      -0.0200
     27  CD1       -2.1580    4.9160   14.6620 C.ar   79  TYR79      -0.0009
     28  CD2       -0.1510    5.5680   13.5580 C.ar   79  TYR79      -0.0009
     29  CE1       -1.4580    3.9180   15.3430 C.ar   79  TYR79       0.0417
     30  CE2        0.5530    4.5770   14.2260 C.ar   79  TYR79       0.0417
     31  CZ        -0.1060    3.7510   15.1160 C.ar   79  TYR79       0.1957
     32  OH         0.6020    2.7610   15.7820 O.3    79  TYR79      -0.2866
     33  N         -2.4010    9.6290   11.7010 N.am   80  GLY80      -0.1942
     34  CA        -2.9750   10.7020   10.9100 C.3    80  GLY80       0.2014
     35  C         -4.4150   10.4940   10.4830 C.2    80  GLY80       0.2638
     36  O         -5.1520   11.4640   10.2670 O.2    80  GLY80      -0.2714
     37  N         -4.8280    9.2360   10.3690 N.am   81  ASP81      -0.1971
     38  CA        -6.1790    8.9210    9.9180 C.3    81  ASP81       0.1709
     39  C         -7.1770    8.9550   11.0700 C.2    81  ASP81       0.2293
     40  O         -8.3550    8.6440   10.8890 O.2    81  ASP81      -0.2864
     41  CB        -6.2130    7.5670    9.2100 C.3    81  ASP81       0.1436
     42  CG        -5.9330    6.4040   10.1390 C.2    81  ASP81       0.3671
     43  OD1       -6.0770    5.2460    9.6830 O.co2  81  ASP81      -0.2456
     44  OD2       -5.5810    6.6330   11.3190 O.co2  81  ASP81      -0.2456
     45  N         -6.9920    7.2050   13.9040 N.3    83  SER83      -0.1217
     46  CA        -6.9640    6.0130   14.7480 C.3    83  SER83       0.1889
     47  C         -5.9530    6.1550   15.8880 C.2    83  SER83       0.2288
     48  O         -5.0600    6.9990   15.8550 O.2    83  SER83      -0.2866
     49  CB        -6.6780    4.7540   13.9250 C.3    83  SER83       0.2089
     50  OG        -5.3610    4.7290   13.4260 O.3    83  SER83      -0.2183
     51  N         -9.1240   -0.1020   14.4670 N.3   116  PHE116     -0.1241
     52  CA        -8.2880   -1.2560   14.7670 C.3   116  PHE116      0.1605
     53  C         -9.1650   -2.4480   15.1480 C.2   116  PHE116      0.2264
     54  O         -8.9530   -3.5550   14.6680 O.2   116  PHE116     -0.2867
     55  CB        -7.2590   -0.9320   15.8560 C.3   116  PHE116      0.0534
     56  CG        -6.1350   -0.0460   15.3780 C.ar  116  PHE116     -0.0203
     57  CD1       -5.2440   -0.4930   14.4110 C.ar  116  PHE116     -0.0042
     58  CD2       -5.9690    1.2340   15.8880 C.ar  116  PHE116     -0.0042
     59  CE1       -4.2230    0.3110   13.9620 C.ar  116  PHE116     -0.0003
     60  CE2       -4.9320    2.0390   15.4440 C.ar  116  PHE116     -0.0003
     61  CZ        -4.0680    1.5770   14.4720 C.ar  116  PHE116     -0.0000
     62  N          1.0040   -3.2580   15.3180 N.3   125  LEU125     -0.1245
     63  CA         1.9300   -2.5750   14.4050 C.3   125  LEU125      0.1561
     64  C          3.3700   -2.8150   14.8580 C.2   125  LEU125      0.2260
     65  O          3.6400   -2.9570   16.0550 O.2   125  LEU125     -0.2867
     66  CB         1.6480   -1.0560   14.3460 C.3   125  LEU125      0.0270
     67  CG         0.7130   -0.6330   13.1880 C.3   125  LEU125      0.0019
     68  CD1       -0.7190   -1.1820   13.3680 C.3   125  LEU125      0.0001
     69  CD2        0.6900    0.8590   12.9950 C.3   125  LEU125      0.0001
     70  N          6.5010    5.4650    3.5480 N.3   219  ASP219     -0.1239
     71  CA         5.6430    5.0100    4.6360 C.3   219  ASP219      0.1674
     72  C          4.8500    3.7500    4.2970 C.2   219  ASP219      0.2266
     73  O          3.7750    3.8050    3.6890 O.2   219  ASP219     -0.2867
     74  CB         4.6920    6.1320    5.0460 C.3   219  ASP219      0.1410
     75  CG         3.8560    5.7710    6.2440 C.2   219  ASP219      0.3668
     76  OD1        3.0210    6.6030    6.6420 O.co2 219  ASP219     -0.2456
     77  OD2        4.0460    4.6560    6.7940 O.co2 219  ASP219     -0.2456
     78  N          3.1590    1.9610    6.1950 N.3   221  GLY221     -0.1210
     79  CA         1.9460    1.8680    6.9910 C.3   221  GLY221      0.1956
     80  C          0.8140    2.7640    6.5310 C.2   221  GLY221      0.2612
     81  O         -0.2330    2.8150    7.1870 O.2   221  GLY221     -0.2717
     82  N          1.0010    3.4390    5.3960 N.am  222  THR222     -0.1952
     83  CA        -0.0610    4.2220    4.7650 C.3   222  THR222      0.1897
     84  C         -0.3990    3.6010    3.4210 C.2   222  THR222      0.2313
     85  O          0.4840    3.2410    2.6700 O.2   222  THR222     -0.2863
     86  CB         0.3760    5.7000    4.5930 C.3   222  THR222      0.1794
     87  OG1        0.4880    6.3040    5.8870 O.3   222  THR222     -0.2208
     88  CG2       -0.6360    6.4870    3.7640 C.3   222  THR222      0.0378
     89  N         -0.0430   10.1440   -1.2690 N.3   226  TYR226     -0.1241
     90  CA        -0.5470   11.4900   -0.9870 C.3   226  TYR226      0.1605
     91  C          0.4720   12.5290   -1.4480 C.2   226  TYR226      0.2264
     92  O          1.6100   12.5620   -0.9280 O.2   226  TYR226     -0.2867
     93  CB        -0.8190   11.6760    0.5030 C.3   226  TYR226      0.0534
     94  CG        -1.9490   10.8230    1.0230 C.ar  226  TYR226     -0.0201
     95  CD1       -3.2620   11.2660    0.9900 C.ar  226  TYR226     -0.0009
     96  CD2       -1.7020    9.5560    1.5260 C.ar  226  TYR226     -0.0009
     97  CE1       -4.2890   10.4800    1.4590 C.ar  226  TYR226      0.0417
     98  CE2       -2.7250    8.7560    1.9840 C.ar  226  TYR226      0.0417
     99  CZ        -4.0210    9.2170    1.9500 C.ar  226  TYR226      0.1957
    100  OH        -5.0460    8.4170    2.4250 O.3   226  TYR226     -0.2866
    101  N         -4.3530   18.4670    3.2240 N.3   299  GLY299     -0.1210
    102  CA        -4.8620   18.5200    4.5870 C.3   299  GLY299      0.1956
    103  C         -4.0450   17.7740    5.6330 C.2   299  GLY299      0.2611
    104  O         -4.4930   17.6180    6.7690 O.2   299  GLY299     -0.2717
    105  N         -2.8360   17.3530    5.2590 N.am  300  ILE300     -0.1979
    106  CA        -2.0120   16.4200    6.0490 C.3   300  ILE300      0.1595
    107  C         -0.7550   17.0940    6.5660 C.2   300  ILE300      0.2287
    108  O         -0.2960   16.7990    7.6650 O.2   300  ILE300     -0.2864
    109  CB        -1.5320   15.2070    5.2200 C.3   300  ILE300      0.0276
    110  CG1       -2.7160   14.4290    4.6660 C.3   300  ILE300      0.0022
    111  CG2       -0.6290   14.2820    6.0690 C.3   300  ILE300      0.0022
    112  CD1       -2.3130   13.2250    3.8380 C.3   300  ILE300      0.0001
    113  N          2.1890   16.8560    5.0800 N.3   302  ILE302     -0.1245
    114  CA         3.3610   16.1700    4.5580 C.3   302  ILE302      0.1561
    115  C          2.9440   15.2960    3.3780 C.2   302  ILE302      0.2260
    116  O          1.8230   14.8050    3.3440 O.2   302  ILE302     -0.2867
    117  CB         4.0440   15.3390    5.6630 C.3   302  ILE302      0.0252
    118  CG1        5.4750   14.9870    5.2720 C.3   302  ILE302      0.0019
    119  CG2        3.2420   14.1110    5.9890 C.3   302  ILE302      0.0019
    120  CD1        6.3510   14.6240    6.4600 C.3   302  ILE302      0.0001
    121  N          3.1360   11.7960    1.3280 N.3   304  ILE304     -0.1245
    122  CA         3.3550   10.4190    1.8000 C.3   304  ILE304      0.1561
    123  C          3.4310    9.4590    0.6360 C.2   304  ILE304      0.2260
    124  O          2.4480    9.2350   -0.0890 O.2   304  ILE304     -0.2867
    125  CB         2.2510    9.9510    2.7650 C.3   304  ILE304      0.0252
    126  CG1        2.1060   10.9060    3.9510 C.3   304  ILE304      0.0019
    127  CG2        2.5700    8.5500    3.2780 C.3   304  ILE304      0.0019
    128  CD1        0.8740   10.6070    4.7900 C.3   304  ILE304      0.0001
@<TRIPOS>BOND
     1    91    90    1
     2    91    92    2
     3    89    90    1
     4    90    93    1
     5   124   123    2
     6    93    94    1
     7   123   122    1
     8    95    94   ar
     9    95    97   ar
    10    94    96   ar
    11   121   122    1
    12    97    99   ar
    13    96    98   ar
    14   122   125    1
    15    99    98   ar
    16    99   100    1
    17    85    84    2
    18   125   127    1
    19   125   126    1
    20   101   102    1
    21   116   115    2
    22   115   114    1
    23    84    83    1
    24    70    71    1
    25    73    72    2
    26    88    86    1
    27   112   110    1
    28   126   128    1
    29    72    71    1
    30   114   113    1
    31   114   117    1
    32   102   103    1
    33    86    83    1
    34    86    87    1
    35    71    74    1
    36   110   109    1
    37    83    82    1
    38    74    75    1
    39   109   106    1
    40   109   111    1
    41   105   103   am
    42   105   106    1
    43   118   117    1
    44   118   120    1
    45    82    80   am
    46   103   104    2
    47   117   119    1
    48   106   107    1
    49    78    79    1
    50    75    76   ar
    51    75    77   ar
    52    80    79    1
    53    80    81    2
    54   107   108    2
    55     7     6   ar
    56    17    18    1
    57     8     6   ar
    58     6     5    1
    59    41    38    1
    60    41    42    1
    61    15    14   ar
    62    18    19    1
    63    10    11    1
    64    10     9    1
    65    10    13    1
    66    11    12    2
    67    43    42   ar
    68    38    37    1
    69    38    39    1
    70    42    44   ar
    71     2     5    1
    72     2     3    1
    73     2     1    1
    74    36    35    2
    75     3     4    2
    76    14    13    1
    77    14    16   ar
    78    37    35   am
    79    35    34    1
    80    19    20    2
    81    40    39    2
    82    34    33    1
    83    33    23   am
    84    23    24    2
    85    23    22    1
    86    69    67    1
    87    25    22    1
    88    25    26    1
    89    67    68    1
    90    67    66    1
    91    50    49    1
    92    28    26   ar
    93    28    30   ar
    94    22    21    1
    95    26    27   ar
    96    45    46    1
    97    49    46    1
    98    59    57   ar
    99    59    61   ar
   100    30    31   ar
   101    66    63    1
   102    63    64    1
   103    63    62    1
   104    57    56   ar
   105    51    52    1
   106    61    60   ar
   107    27    29   ar
   108    54    53    2
   109    46    47    1
   110    52    53    1
   111    52    55    1
   112    64    65    2
   113    31    29   ar
   114    31    32    1
   115    56    55    1
   116    56    58   ar
   117    60    58   ar
   118    48    47    2
