@<TRIPOS>MOLECULE
tmp/4y5hA00.pdb
 131 121 0 0 0
SMALL
GASTEIGER

@<TRIPOS>ATOM
      1  N         -2.5720  -28.2870  -35.9590 N.3    26  ILE26      -0.1231
      2  CA        -2.1850  -28.7960  -34.6430 C.3    26  ILE26       0.1696
      3  C         -2.1210  -27.6790  -33.6090 C.2    26  ILE26       0.2632
      4  O         -1.9980  -27.9350  -32.4150 O.2    26  ILE26      -0.2714
      5  CB        -0.8300  -29.5380  -34.7030 C.3    26  ILE26       0.0266
      6  CG1        0.3240  -28.5840  -35.0190 C.3    26  ILE26       0.0019
      7  CG2       -0.8990  -30.6440  -35.7530 C.3    26  ILE26       0.0020
      8  CD1        1.7030  -29.2230  -34.9000 C.3    26  ILE26       0.0001
      9  N         -2.2090  -26.4350  -34.0590 N.am   27  GLY27      -0.1718
     10  CA        -2.2690  -25.3380  -33.1200 C.2    27  GLY27       0.1480
     11  C         -2.4050  -23.9640  -33.7240 C.2    27  GLY27       0.2821
     12  O         -2.3200  -23.7760  -34.9370 O.2    27  GLY27      -0.2669
     13  N         -2.6190  -22.9990  -32.8390 N.am   28  SER28      -0.1915
     14  CA        -2.7300  -21.5970  -33.1970 C.3    28  SER28       0.1927
     15  C         -2.3150  -20.7520  -32.0000 C.2    28  SER28       0.2314
     16  O         -3.1140  -20.5200  -31.0900 O.2    28  SER28      -0.2863
     17  CB        -4.1560  -21.2520  -33.6200 C.3    28  SER28       0.2116
     18  OG        -4.4070  -19.8610  -33.4550 O.3    28  SER28      -0.2180
     19  N         -0.4570  -23.2850  -36.8600 N.3    34  VAL34      -0.1245
     20  CA         0.5380  -24.3350  -37.0570 C.3    34  VAL34       0.1561
     21  C         -0.0860  -25.6380  -37.5330 C.2    34  VAL34       0.2260
     22  O         -1.0950  -26.0960  -36.9890 O.2    34  VAL34      -0.2867
     23  CB         1.3420  -24.6120  -35.7680 C.3    34  VAL34       0.0252
     24  CG1        2.4980  -25.5520  -36.0660 C.3    34  VAL34       0.0019
     25  CG2        1.8820  -23.3090  -35.1790 C.3    34  VAL34       0.0019
     26  N          6.6090  -29.6800  -38.4020 N.3    47  ALA47      -0.1245
     27  CA         5.6070  -28.6840  -38.0360 C.3    47  ALA47       0.1562
     28  C          5.8170  -27.4670  -38.9060 C.2    47  ALA47       0.2260
     29  O          6.9580  -27.0750  -39.1400 O.2    47  ALA47      -0.2867
     30  CB         5.7020  -28.3150  -36.5600 C.3    47  ALA47       0.0290
     31  N          4.7170  -23.4880  -39.2730 N.3    49  LYS49      -0.1245
     32  CA         4.1150  -22.2860  -38.6880 C.3    49  LYS49       0.1561
     33  C          3.9680  -21.1870  -39.7380 C.2    49  LYS49       0.2260
     34  O          4.9460  -20.8330  -40.3800 O.2    49  LYS49      -0.2867
     35  CB         4.9900  -21.8020  -37.5300 C.3    49  LYS49       0.0271
     36  CG         4.5270  -20.5520  -36.7920 C.3    49  LYS49       0.0035
     37  CD         5.4270  -20.3410  -35.5690 C.3    49  LYS49       0.0206
     38  CE         4.9370  -19.2380  -34.6580 C.3    49  LYS49       0.1093
     39  NZ         6.0540  -18.6960  -33.8320 N.3    49  LYS49      -0.1314
     40  N         14.3020  -25.2470  -30.1750 N.3    80  ILE80      -0.1245
     41  CA        13.7370  -25.7400  -31.4110 C.3    80  ILE80       0.1561
     42  C         14.5200  -25.1360  -32.5860 C.2    80  ILE80       0.2260
     43  O         14.9720  -23.9940  -32.5260 O.2    80  ILE80      -0.2867
     44  CB        12.2380  -25.4350  -31.5290 C.3    80  ILE80       0.0252
     45  CG1       11.6150  -26.4580  -32.4800 C.3    80  ILE80       0.0019
     46  CG2       11.9880  -23.9590  -31.9140 C.3    80  ILE80       0.0019
     47  CD1       10.2230  -26.1630  -32.9000 C.3    80  ILE80       0.0001
     48  N          9.6940  -26.6680  -38.7300 N.3   102  MET102     -0.1230
     49  CA        10.4170  -27.1180  -37.5480 C.3   102  MET102      0.1702
     50  C         10.1560  -28.6010  -37.3020 C.2   102  MET102      0.2592
     51  O          9.2450  -29.1850  -37.8850 O.2   102  MET102     -0.2718
     52  CB         9.9900  -26.3130  -36.3100 C.3   102  MET102      0.0401
     53  CG        10.2480  -24.8120  -36.3690 C.3   102  MET102      0.0596
     54  SD         9.0110  -23.9690  -35.3630 S.3   102  MET102     -0.1393
     55  CE         9.4600  -22.2520  -35.5030 C.3   102  MET102      0.0692
     56  N         10.9380  -29.2020  -36.4130 N.am  103  GLU103     -0.1966
     57  CA        10.7270  -30.6000  -36.0430 C.3   103  GLU103      0.1733
     58  C          9.3470  -30.7530  -35.4170 C.2   103  GLU103      0.2616
     59  O          8.8900  -29.8580  -34.7040 O.2   103  GLU103     -0.2715
     60  CB        11.8150  -31.0760  -35.0780 C.3   103  GLU103      0.0429
     61  CG        11.6860  -32.5480  -34.6840 C.3   103  GLU103      0.1163
     62  CD        12.9290  -33.0950  -33.9940 C.2   103  GLU103      0.3649
     63  OE1       13.9730  -32.4020  -34.0100 O.co2 103  GLU103     -0.2457
     64  OE2       12.8580  -34.2140  -33.4330 O.co2 103  GLU103     -0.2457
     65  N          8.6810  -31.8700  -35.6980 N.am  104  LEU104     -0.1963
     66  CA         7.3550  -32.1350  -35.1560 C.3   104  LEU104      0.1728
     67  C          7.4250  -32.8530  -33.7970 C.2   104  LEU104      0.2616
     68  O          7.8900  -33.9850  -33.6800 O.2   104  LEU104     -0.2715
     69  CB         6.5200  -32.9620  -36.1310 C.3   104  LEU104      0.0311
     70  CG         5.0620  -33.1720  -35.7070 C.3   104  LEU104      0.0022
     71  CD1        4.2860  -31.8570  -35.6670 C.3   104  LEU104      0.0001
     72  CD2        4.3900  -34.1490  -36.6400 C.3   104  LEU104      0.0001
     73  N          6.9410  -32.1790  -32.7730 N.am  105  MET105     -0.1963
     74  CA         6.9690  -32.7110  -31.4160 C.3   105  MET105      0.1736
     75  C          5.5910  -33.2700  -31.0560 C.2   105  MET105      0.2616
     76  O          4.6190  -33.0360  -31.7640 O.2   105  MET105     -0.2715
     77  CB         7.4060  -31.6180  -30.4420 C.3   105  MET105      0.0427
     78  CG         8.7400  -30.9690  -30.8070 C.3   105  MET105      0.0599
     79  SD        10.1690  -32.0650  -30.6630 S.3   105  MET105     -0.1393
     80  CE        10.4850  -31.9540  -28.9000 C.3   105  MET105      0.0692
     81  N          5.5080  -34.0050  -29.9540 N.am  106  ASP106     -0.1957
     82  CA         4.2800  -34.7030  -29.6050 C.3   106  ASP106      0.1840
     83  C          3.3330  -33.9100  -28.7000 C.2   106  ASP106      0.2622
     84  O          2.1170  -34.0850  -28.7770 O.2   106  ASP106     -0.2715
     85  CB         4.6300  -36.0310  -28.9450 C.3   106  ASP106      0.1450
     86  CG         5.2200  -37.0210  -29.9200 C.2   106  ASP106      0.3671
     87  OD1        4.5830  -37.2580  -30.9650 O.co2 106  ASP106     -0.2456
     88  OD2        6.3140  -37.5510  -29.6520 O.co2 106  ASP106     -0.2456
     89  N          3.8670  -33.0480  -27.8380 N.am  107  ALA107     -0.1963
     90  CA         3.0070  -32.3510  -26.8910 C.3   107  ALA107      0.1728
     91  C          3.5750  -31.0330  -26.3860 C.2   107  ALA107      0.2616
     92  O          4.7750  -30.7790  -26.5030 O.2   107  ALA107     -0.2715
     93  CB         2.7120  -33.2680  -25.6990 C.3   107  ALA107      0.0334
     94  N          2.6580  -30.2120  -25.8640 N.am  108  ASN108     -0.1972
     95  CA         2.9100  -29.0850  -24.9550 C.3   108  ASN108      0.1688
     96  C          3.4450  -29.5460  -23.5970 C.2   108  ASN108      0.2292
     97  O          3.2010  -30.6810  -23.2000 O.2   108  ASN108     -0.2864
     98  CB         1.5950  -28.3340  -24.6930 C.3   108  ASN108      0.1181
     99  CG         1.6480  -26.8930  -25.0510 C.2   108  ASN108      0.2629
    100  OD1        2.7190  -26.3110  -25.2140 O.2   108  ASN108     -0.2716
    101  ND2        0.4690  -26.2810  -25.1630 N.am  108  ASN108     -0.0877
    102  N          0.2960  -30.0870  -21.2940 N.3   111  GLN111     -0.1245
    103  CA        -0.2730  -31.4200  -21.3560 C.3   111  GLN111      0.1566
    104  C          0.4590  -32.3600  -20.4130 C.2   111  GLN111      0.2260
    105  O         -0.1570  -33.1290  -19.6780 O.2   111  GLN111     -0.2867
    106  CB        -0.2020  -31.9520  -22.7890 C.3   111  GLN111      0.0367
    107  CG        -1.0460  -31.1710  -23.7780 C.3   111  GLN111      0.0905
    108  CD        -0.6750  -31.4670  -25.2160 C.2   111  GLN111      0.2608
    109  OE1       -0.2810  -30.5760  -25.9590 O.2   111  GLN111     -0.2717
    110  NE2       -0.8060  -32.7250  -25.6170 N.am  111  GLN111     -0.0878
    111  N          3.4830  -23.4220  -22.3020 N.3   149  SER149     -0.1217
    112  CA         2.8430  -23.4800  -23.6110 C.3   149  SER149      0.1889
    113  C          3.8310  -23.2200  -24.7490 C.2   149  SER149      0.2288
    114  O          3.5140  -23.4650  -25.9050 O.2   149  SER149     -0.2866
    115  CB         1.6860  -22.4880  -23.6930 C.3   149  SER149      0.2089
    116  OG         2.1450  -21.1560  -23.5970 O.3   149  SER149     -0.2183
    117  N          7.8700  -27.6700  -25.8320 N.3   152  VAL152     -0.1245
    118  CA         7.2800  -28.8550  -26.4240 C.3   152  VAL152      0.1561
    119  C          8.1370  -30.0580  -26.0990 C.2   152  VAL152      0.2260
    120  O          9.3420  -29.9290  -25.8630 O.2   152  VAL152     -0.2867
    121  CB         7.1360  -28.7210  -27.9490 C.3   152  VAL152      0.0252
    122  CG1        5.9080  -27.9010  -28.3000 C.3   152  VAL152      0.0019
    123  CG2        8.3910  -28.1110  -28.5420 C.3   152  VAL152      0.0019
    124  N         10.5810  -23.2710  -27.5380 N.3   162  LEU162     -0.1245
    125  CA        10.0770  -22.7810  -28.8230 C.3   162  LEU162      0.1561
    126  C         10.4570  -21.3420  -29.1820 C.2   162  LEU162      0.2260
    127  O         10.5290  -21.0120  -30.3570 O.2   162  LEU162     -0.2867
    128  CB         8.5500  -22.8680  -28.8570 C.3   162  LEU162      0.0270
    129  CG         7.8340  -24.1990  -29.0660 C.3   162  LEU162      0.0019
    130  CD1        6.3390  -23.9560  -29.0130 C.3   162  LEU162      0.0001
    131  CD2        8.2120  -24.8330  -30.3960 C.3   162  LEU162      0.0001
@<TRIPOS>BOND
     1    34    33    2
     2    33    32    1
     3    31    32    1
     4    29    28    2
     5    28    27    1
     6    48    49    1
     7    32    35    1
     8    26    27    1
     9    27    30    1
    10    51    50    2
    11    49    50    1
    12    49    52    1
    13    21    20    1
    14    21    22    2
    15    35    36    1
    16    50    56   am
    17    20    19    1
    18    20    23    1
    19    36    37    1
    20    72    70    1
    21    56    57    1
    22    53    52    1
    23    53    54    1
    24    69    70    1
    25    69    66    1
    26    24    23    1
    27    57    58    1
    28    57    60    1
    29     1     2    1
    30    23    25    1
    31     7     5    1
    32    70    71    1
    33    65    58   am
    34    65    66    1
    35    37    38    1
    36    55    54    1
    37    58    59    2
    38    66    67    1
    39    60    61    1
    40     6     8    1
    41     6     5    1
    42    12    11    2
    43     5     2    1
    44    61    62    1
    45    38    39    1
    46     2     3    1
    47     9     3    1
    48     9    10    2
    49    63    62   ar
    50    62    64   ar
    51    67    68    2
    52    67    73   am
    53    11    10    1
    54    11    13   am
    55    17    18    1
    56    17    14    1
    57     3     4    2
    58    14    13    1
    59    14    15    1
    60    47    45    1
    61    73    74    1
    62    42    43    2
    63    42    41    1
    64    45    44    1
    65    15    16    2
    66    46    44    1
    67    76    75    2
    68    44    41    1
    69    74    75    1
    70    74    77    1
    71    41    40    1
    72    75    81   am
    73    87    86   ar
    74    78    79    1
    75    78    77    1
    76    79    80    1
    77   131   129    1
    78   127   126    2
    79    81    82    1
    80    86    88   ar
    81    86    85    1
    82    82    85    1
    83    82    83    1
    84   126   125    1
    85   129   130    1
    86   129   128    1
    87   128   125    1
    88   125   124    1
    89    84    83    2
    90    83    89   am
    91   123   121    1
    92   122   121    1
    93   121   118    1
    94    89    90    1
    95    90    91    1
    96    90    93    1
    97    92    91    2
    98   118   119    1
    99   118   117    1
   100    91    94   am
   101   119   120    2
   102   109   108    2
   103   114   113    2
   104    94    95    1
   105   110   108   am
   106   108   107    1
   107   100    99    2
   108   101    99   am
   109    99    98    1
   110    95    98    1
   111    95    96    1
   112   113   112    1
   113   107   106    1
   114   115   112    1
   115   115   116    1
   116   112   111    1
   117    96    97    2
   118   106   103    1
   119   103   102    1
   120   103   104    1
   121   104   105    2
