@<TRIPOS>MOLECULE
tmp/4y5iA00.pdb
 227 217 0 0 0
SMALL
GASTEIGER

@<TRIPOS>ATOM
      1  N          3.0880    8.7300    1.1770 N.3    47  ASN47      -0.1240
      2  CA         3.2930    8.4970    2.6050 C.3    47  ASN47       0.1653
      3  C          2.9570    7.0650    3.0110 C.2    47  ASN47       0.2266
      4  O          3.6050    6.5070    3.8900 O.2    47  ASN47      -0.2867
      5  CB         2.4610    9.4800    3.4340 C.3    47  ASN47       0.1155
      6  CG         3.1140   10.8260    3.5660 C.2    47  ASN47       0.2627
      7  OD1        4.3280   10.9490    3.4440 O.2    47  ASN47      -0.2716
      8  ND2        2.3080   11.8530    3.8300 N.am   47  ASN47      -0.0877
      9  N          5.9100    4.9340    1.8570 N.3    50  SER50      -0.1202
     10  CA         7.0870    5.1560    2.6870 C.3    50  SER50       0.2020
     11  C          6.9500    4.5260    4.0690 C.2    50  SER50       0.2618
     12  O          7.8710    3.8830    4.5570 O.2    50  SER50      -0.2717
     13  CB         7.3610    6.6580    2.8230 C.3    50  SER50       0.2103
     14  OG         8.5120    6.9040    3.6180 O.3    50  SER50      -0.2182
     15  N          5.8030    4.6980    4.7180 N.am   51  VAL51      -0.1979
     16  CA         5.6940    4.1780    6.0800 C.3    51  VAL51       0.1595
     17  C          5.6740    2.6480    6.0790 C.2    51  VAL51       0.2287
     18  O          6.1450    2.0240    7.0280 O.2    51  VAL51      -0.2864
     19  CB         4.4500    4.7440    6.8170 C.3    51  VAL51       0.0276
     20  CG1        3.1730    4.1110    6.3040 C.3    51  VAL51       0.0022
     21  CG2        4.5860    4.5580    8.3250 C.3    51  VAL51       0.0022
     22  N          9.3740    1.6270    5.4540 N.3    54  LYS54      -0.1245
     23  CA        10.1390    2.0920    6.6120 C.3    54  LYS54       0.1561
     24  C         10.0430    1.1020    7.7600 C.2    54  LYS54       0.2260
     25  O         11.0470    0.7760    8.3990 O.2    54  LYS54      -0.2867
     26  CB         9.6480    3.4630    7.0770 C.3    54  LYS54       0.0271
     27  CG        10.3370    3.9650    8.3240 C.3    54  LYS54       0.0035
     28  CD         9.6660    5.2170    8.8400 C.3    54  LYS54       0.0206
     29  CE        10.5270    5.9500    9.8370 C.3    54  LYS54       0.1093
     30  NZ        11.7490    6.4820    9.1920 N.3    54  LYS54      -0.1314
     31  N         16.6750   -3.9300   10.0750 N.3    61  ARG61      -0.1245
     32  CA        17.8600   -3.2210   10.5460 C.3    61  ARG61       0.1563
     33  C         18.0890   -3.4540   12.0350 C.2    61  ARG61       0.2260
     34  O         19.2210   -3.6900   12.4610 O.2    61  ARG61      -0.2867
     35  CB        17.7410   -1.7210   10.2640 C.3    61  ARG61       0.0307
     36  CG        17.7950   -1.3700    8.7820 C.3    61  ARG61       0.0489
     37  CD        17.3040    0.0510    8.5020 C.3    61  ARG61       0.2205
     38  NE        18.2370    1.0770    8.9640 N.pl3  61  ARG61      -0.0865
     39  CZ        17.8760    2.3010    9.3550 C.cat  61  ARG61       0.5346
     40  NH1       16.5930    2.6510    9.3770 N.pl3  61  ARG61       0.1354
     41  NH2       18.8030    3.1780    9.7250 N.pl3  61  ARG61       0.1354
     42  N         19.3500   -6.9700   12.4530 N.3    64  TRP64      -0.1227
     43  CA        20.7150   -7.0490   11.9560 C.3    64  TRP64       0.1737
     44  C         21.6980   -6.4840   12.9810 C.2    64  TRP64       0.2595
     45  O         22.7630   -7.0560   13.2160 O.2    64  TRP64      -0.2718
     46  CB        20.8450   -6.3050   10.6210 C.3    64  TRP64       0.0564
     47  CG        22.1970   -6.4370    9.9910 C.ar   64  TRP64       0.0003
     48  CD1       22.5880   -7.3850    9.0980 C.ar   64  TRP64       0.0946
     49  CD2       23.3360   -5.5920   10.2020 C.ar   64  TRP64       0.0152
     50  NE1       23.8990   -7.1890    8.7380 N.ar   64  TRP64      -0.2442
     51  CE2       24.3870   -6.0880    9.4070 C.ar   64  TRP64       0.0810
     52  CE3       23.5750   -4.4530   10.9870 C.ar   64  TRP64       0.0012
     53  CZ2       25.6490   -5.4990    9.3660 C.ar   64  TRP64       0.0191
     54  CZ3       24.8250   -3.8610   10.9470 C.ar   64  TRP64       0.0001
     55  CH2       25.8490   -4.3880   10.1460 C.ar   64  TRP64       0.0015
     56  N         21.3380   -5.3670   13.6090 N.am   65  ARG65      -0.1980
     57  CA        22.2200   -4.7720   14.6100 C.3    65  ARG65       0.1597
     58  C         22.3930   -5.6760   15.8320 C.2    65  ARG65       0.2287
     59  O         23.4970   -5.8050   16.3470 O.2    65  ARG65      -0.2864
     60  CB        21.6970   -3.4030   15.0370 C.3    65  ARG65       0.0334
     61  CG        21.8130   -2.3650   13.9420 C.3    65  ARG65       0.0492
     62  CD        21.5480   -0.9690   14.4730 C.3    65  ARG65       0.2205
     63  NE        20.1500   -0.7520   14.8190 N.pl3  65  ARG65      -0.0865
     64  CZ        19.2560   -0.2280   13.9840 C.cat  65  ARG65       0.5346
     65  NH1       19.6170    0.1010   12.7510 N.pl3  65  ARG65       0.1354
     66  NH2       18.0000   -0.0520   14.3720 N.pl3  65  ARG65       0.1354
     67  N         10.8250   14.0900   -2.5590 N.3   115  PHE115     -0.1241
     68  CA        10.4220   12.9520   -1.7410 C.3   115  PHE115      0.1605
     69  C         11.0770   11.6510   -2.2180 C.2   115  PHE115      0.2264
     70  O         11.6460   10.8920   -1.4180 O.2   115  PHE115     -0.2867
     71  CB         8.8970   12.8120   -1.7630 C.3   115  PHE115      0.0534
     72  CG         8.3620   11.7830   -0.8040 C.ar  115  PHE115     -0.0203
     73  CD1        8.3150   10.4410   -1.1540 C.ar  115  PHE115     -0.0042
     74  CD2        7.8780   12.1670    0.4400 C.ar  115  PHE115     -0.0042
     75  CE1        7.8120    9.5000   -0.2690 C.ar  115  PHE115     -0.0003
     76  CE2        7.3740   11.2330    1.3270 C.ar  115  PHE115     -0.0003
     77  CZ         7.3470    9.9010    0.9730 C.ar  115  PHE115     -0.0000
     78  N         15.0180   11.6840   -1.9390 N.3   118  LYS118     -0.1245
     79  CA        15.3690   11.4670   -0.5390 C.3   118  LYS118      0.1561
     80  C         15.2460    9.9870   -0.1860 C.2   118  LYS118      0.2260
     81  O         16.1160    9.4190    0.4630 O.2   118  LYS118     -0.2867
     82  CB        14.4750   12.2950    0.3840 C.3   118  LYS118      0.0271
     83  CG        14.6730   11.9810    1.8560 C.3   118  LYS118      0.0035
     84  CD        13.6730   12.7350    2.7120 C.3   118  LYS118      0.0206
     85  CE        13.6400   12.1680    4.1210 C.3   118  LYS118      0.1093
     86  NZ        13.0870   10.7830    4.1230 N.3   118  LYS118     -0.1314
     87  N         21.5290    4.3990    1.7770 N.3   125  ARG125     -0.1231
     88  CA        22.1660    4.5100    3.0920 C.3   125  ARG125      0.1694
     89  C         21.9580    3.2160    3.9160 C.2   125  ARG125      0.2592
     90  O         22.8950    2.7480    4.5840 O.2   125  ARG125     -0.2718
     91  CB        21.6430    5.7440    3.8480 C.3   125  ARG125      0.0321
     92  CG        22.1470    5.8580    5.2830 C.3   125  ARG125      0.0489
     93  CD        21.9830    7.2660    5.8510 C.3   125  ARG125      0.2205
     94  NE        20.5970    7.7070    5.7860 N.pl3 125  ARG125     -0.0865
     95  CZ        19.6820    7.4270    6.7070 C.cat 125  ARG125      0.5346
     96  NH1       20.0240    6.7330    7.7900 N.pl3 125  ARG125      0.1354
     97  NH2       18.4270    7.8400    6.5370 N.pl3 125  ARG125      0.1354
     98  N         20.7660    2.6180    3.8620 N.am  126  TYR126     -0.1976
     99  CA        20.5420    1.3750    4.6040 C.3   126  TYR126      0.1639
    100  C         21.4090    0.2490    4.0210 C.2   126  TYR126      0.2290
    101  O         21.9480   -0.5620    4.7740 O.2   126  TYR126     -0.2864
    102  CB        19.0590    0.9720    4.6170 C.3   126  TYR126      0.0560
    103  CG        18.1370    2.0720    5.0980 C.ar  126  TYR126     -0.0198
    104  CD1       18.5620    3.0130    6.0370 C.ar  126  TYR126     -0.0009
    105  CD2       16.8410    2.1850    4.6010 C.ar  126  TYR126     -0.0009
    106  CE1       17.7280    4.0340    6.4520 C.ar  126  TYR126      0.0417
    107  CE2       15.9940    3.1910    5.0280 C.ar  126  TYR126      0.0417
    108  CZ        16.4460    4.1170    5.9470 C.ar  126  TYR126      0.1957
    109  OH        15.6060    5.1340    6.3500 O.3   126  TYR126     -0.2866
    110  N         24.9400    0.6940    5.3810 N.3   129  GLU129     -0.1245
    111  CA        25.1030    0.2670    6.7740 C.3   129  GLU129      0.1567
    112  C         25.6150   -1.1710    6.8980 C.2   129  GLU129      0.2260
    113  O         26.3040   -1.4960    7.8630 O.2   129  GLU129     -0.2867
    114  CB        23.7760    0.3940    7.5430 C.3   129  GLU129      0.0388
    115  CG        23.3530    1.8400    7.8230 C.3   129  GLU129      0.1160
    116  CD        22.0060    1.9690    8.5440 C.2   129  GLU129      0.3649
    117  OE1       21.2150    1.0000    8.6010 O.co2 129  GLU129     -0.2457
    118  OE2       21.7260    3.0670    9.0550 O.co2 129  GLU129     -0.2457
    119  N          8.4860   20.9880    5.1880 N.3   163  PRO163     -0.2116
    120  CA         8.8310   19.7850    5.9550 C.3   163  PRO163      0.1372
    121  C          9.5840   18.7180    5.1650 C.2   163  PRO163      0.2244
    122  O         10.4230   18.0420    5.7570 O.2   163  PRO163     -0.2868
    123  CB         7.4670   19.2630    6.4140 C.3   163  PRO163      0.0268
    124  CG         6.6290   20.5050    6.5340 C.3   163  PRO163      0.0207
    125  CD         7.0680   21.3610    5.3620 C.3   163  PRO163      0.0892
    126  N         13.2430   17.4350    6.4120 N.3   167  GLY167     -0.1225
    127  CA        13.5130   16.0310    6.6740 C.3   167  GLY167      0.1811
    128  C         14.6390   15.5030    5.8080 C.2   167  GLY167      0.2280
    129  O         15.4150   14.6550    6.2380 O.2   167  GLY167     -0.2866
    130  N         17.8200   16.7350    7.4180 N.3   170  LEU170     -0.1231
    131  CA        18.0840   15.9020    8.5790 C.3   170  LEU170      0.1693
    132  C         18.7590   14.5860    8.1770 C.2   170  LEU170      0.2592
    133  O         19.7970   14.2200    8.7190 O.2   170  LEU170     -0.2718
    134  CB        16.7790   15.6310    9.3340 C.3   170  LEU170      0.0284
    135  CG        16.8530   14.7370   10.5700 C.3   170  LEU170      0.0019
    136  CD1       17.5380   15.4560   11.7060 C.3   170  LEU170      0.0001
    137  CD2       15.4550   14.2890   10.9900 C.3   170  LEU170      0.0001
    138  N         18.1790   13.8780    7.2170 N.am  171  ASN171     -0.1974
    139  CA        18.7410   12.5800    6.8600 C.3   171  ASN171      0.1688
    140  C         20.0770   12.6880    6.1260 C.2   171  ASN171      0.2292
    141  O         20.9400   11.8390    6.3100 O.2   171  ASN171     -0.2864
    142  CB        17.7280   11.7700    6.0380 C.3   171  ASN171      0.1181
    143  CG        16.6630   11.1230    6.9190 C.2   171  ASN171      0.2629
    144  OD1       16.6150   11.3830    8.1250 O.2   171  ASN171     -0.2716
    145  ND2       15.8330   10.2620    6.3320 N.am  171  ASN171     -0.0877
    146  N         22.6020   13.1630    8.7240 N.3   174  VAL174     -0.1245
    147  CA        22.8940   11.8750    9.3650 C.3   174  VAL174      0.1561
    148  C         23.8070   11.0330    8.4690 C.2   174  VAL174      0.2260
    149  O         24.7620   10.4180    8.9510 O.2   174  VAL174     -0.2867
    150  CB        21.5920   11.1000    9.7060 C.3   174  VAL174      0.0252
    151  CG1       21.8850    9.6310   10.0530 C.3   174  VAL174      0.0019
    152  CG2       20.8560   11.7780   10.8530 C.3   174  VAL174      0.0019
    153  N         27.3320   12.2790    8.8940 N.3   177  TYR177     -0.1227
    154  CA        27.9080   11.9470   10.1900 C.3   177  TYR177      0.1736
    155  C         28.1860   10.4530   10.3460 C.2   177  TYR177      0.2595
    156  O         29.2630   10.0540   10.7940 O.2   177  TYR177     -0.2718
    157  CB        26.9810   12.4150   11.3070 C.3   177  TYR177      0.0548
    158  CG        27.6180   12.4110   12.6700 C.ar  177  TYR177     -0.0200
    159  CD1       28.2670   13.5410   13.1570 C.ar  177  TYR177     -0.0009
    160  CD2       27.5800   11.2790   13.4780 C.ar  177  TYR177     -0.0009
    161  CE1       28.8630   13.5480   14.4020 C.ar  177  TYR177      0.0417
    162  CE2       28.1730   11.2750   14.7330 C.ar  177  TYR177      0.0417
    163  CZ        28.8110   12.4140   15.1890 C.ar  177  TYR177      0.1957
    164  OH        29.4020   12.4280   16.4320 O.3   177  TYR177     -0.2866
    165  N         27.2030    9.6290   10.0000 N.am  178  GLU178     -0.1979
    166  CA        27.2500    8.2000   10.3140 C.3   178  GLU178      0.1602
    167  C         27.8480    7.3170    9.2220 C.2   178  GLU178      0.2287
    168  O         28.3510    6.2260    9.5100 O.2   178  GLU178     -0.2864
    169  CB        25.8360    7.6990   10.6280 C.3   178  GLU178      0.0415
    170  CG        25.2420    8.2710   11.9100 C.3   178  GLU178      0.1163
    171  CD        25.8950    7.7220   13.1740 C.2   178  GLU178      0.3649
    172  OE1       26.6300    6.7130   13.0870 O.co2 178  GLU178     -0.2457
    173  OE2       25.6750    8.3000   14.2630 O.co2 178  GLU178     -0.2457
    174  N         10.3510   19.0220   13.1250 N.3   215  ILE215     -0.1245
    175  CA        11.5430   18.5410   12.4350 C.3   215  ILE215      0.1561
    176  C         12.7630   19.3890   12.8030 C.2   215  ILE215      0.2260
    177  O         13.8690   18.8660   12.9730 O.2   215  ILE215     -0.2867
    178  CB        11.3430   18.5210   10.9160 C.3   215  ILE215      0.0252
    179  CG1       10.0880   17.7110   10.5810 C.3   215  ILE215      0.0019
    180  CG2       12.5690   17.9280   10.2360 C.3   215  ILE215      0.0019
    181  CD1        9.6610   17.8310    9.1480 C.3   215  ILE215      0.0001
    182  N         14.2220   18.0610   15.8550 N.3   218  LEU218     -0.1245
    183  CA        15.0830   16.8970   15.6250 C.3   218  LEU218      0.1561
    184  C         16.4780   17.3190   15.1700 C.2   218  LEU218      0.2260
    185  O         17.4800   16.7140   15.5740 O.2   218  LEU218     -0.2867
    186  CB        14.4760   15.9620   14.5870 C.3   218  LEU218      0.0270
    187  CG        13.1030   15.3900   14.9090 C.3   218  LEU218      0.0019
    188  CD1       12.6140   14.5710   13.7340 C.3   218  LEU218      0.0001
    189  CD2       13.1370   14.5560   16.1910 C.3   218  LEU218      0.0001
    190  N         18.2810   18.3970   18.2030 N.3   221  ASP221     -0.1225
    191  CA        18.6800   17.2630   19.0330 C.3   221  ASP221      0.1805
    192  C         19.9670   16.6420   18.5080 C.2   221  ASP221      0.2597
    193  O         20.8580   16.2950   19.2800 O.2   221  ASP221     -0.2718
    194  CB        17.5860   16.1980   19.0730 C.3   221  ASP221      0.1424
    195  CG        16.3870   16.6080   19.8970 C.2   221  ASP221      0.3668
    196  OD1       16.5240   17.4270   20.8400 O.co2 221  ASP221     -0.2456
    197  OD2       15.2890   16.1000   19.5990 O.co2 221  ASP221     -0.2456
    198  N         20.0690   16.4860   17.1900 N.am  222  ASN222     -0.1974
    199  CA        21.2890   15.9180   16.6340 C.3   222  ASN222      0.1688
    200  C         22.4700   16.8690   16.8190 C.2   222  ASN222      0.2292
    201  O         23.5660   16.4320   17.1360 O.2   222  ASN222     -0.2864
    202  CB        21.0990   15.5430   15.1600 C.3   222  ASN222      0.1181
    203  CG        20.2120   14.3190   14.9960 C.2   222  ASN222      0.2629
    204  OD1       19.8570   13.6640   15.9810 O.2   222  ASN222     -0.2716
    205  ND2       19.8730   13.9890   13.7590 N.am  222  ASN222     -0.0877
    206  N         23.6580   16.4950   20.3140 N.3   225  LEU225     -0.1231
    207  CA        24.3310   15.2070   20.4360 C.3   225  LEU225      0.1693
    208  C         25.7530   15.2820   19.8890 C.2   225  LEU225      0.2592
    209  O         26.6940   14.7470   20.4760 O.2   225  LEU225     -0.2718
    210  CB        23.5350   14.1290   19.6900 C.3   225  LEU225      0.0284
    211  CG        24.1050   12.7120   19.6560 C.3   225  LEU225      0.0019
    212  CD1       24.0130   12.0800   21.0350 C.3   225  LEU225      0.0001
    213  CD2       23.3660   11.8820   18.6130 C.3   225  LEU225      0.0001
    214  N         25.8980   15.9660   18.7590 N.am  226  TRP226     -0.1976
    215  CA        27.1570   16.0090   18.0250 C.3   226  TRP226      0.1640
    216  C         28.1670   17.0260   18.5350 C.2   226  TRP226      0.2290
    217  O         29.3450   16.9590   18.1840 O.2   226  TRP226     -0.2864
    218  CB        26.8830   16.3240   16.5620 C.3   226  TRP226      0.0576
    219  CG        26.1380   15.2790   15.8100 C.ar  226  TRP226      0.0006
    220  CD1       26.0110   13.9520   16.1240 C.ar  226  TRP226      0.0946
    221  CD2       25.4270   15.4760   14.5850 C.ar  226  TRP226      0.0152
    222  NE1       25.2580   13.3140   15.1600 N.ar  226  TRP226     -0.2442
    223  CE2       24.8950   14.2260   14.2070 C.ar  226  TRP226      0.0810
    224  CE3       25.1930   16.5870   13.7720 C.ar  226  TRP226      0.0012
    225  CZ2       24.1390   14.0640   13.0460 C.ar  226  TRP226      0.0191
    226  CZ3       24.4440   16.4240   12.6310 C.ar  226  TRP226      0.0001
    227  CH2       23.9250   15.1720   12.2760 C.ar  226  TRP226      0.0015
@<TRIPOS>BOND
     1    67    68    1
     2    69    68    1
     3    69    70    2
     4    78    79    1
     5    71    68    1
     6    71    72    1
     7    73    72   ar
     8    73    75   ar
     9    72    74   ar
    10    79    80    1
    11    79    82    1
    12    75    77   ar
    13    80    81    2
    14    82    83    1
    15    74    76   ar
    16    77    76   ar
    17     1     2    1
    18    87    88    1
    19    83    84    1
    20     9    10    1
    21     2     3    1
    22     2     5    1
    23    10    13    1
    24    10    11    1
    25    84    85    1
    26    13    14    1
    27     3     4    2
    28    88    91    1
    29    88    89    1
    30     5     6    1
    31     7     6    2
    32     6     8   am
    33    91    92    1
    34    98    89   am
    35    98    99    1
    36    89    90    2
    37   100    99    1
    38   100   101    2
    39    11    12    2
    40    11    15   am
    41    85    86    1
    42   105   107   ar
    43   105   103   ar
    44    99   102    1
    45   102   103    1
    46    15    16    1
    47   107   108   ar
    48   103   104   ar
    49   121   122    2
    50   121   120    1
    51   119   125    1
    52   119   120    1
    53    92    93    1
    54   125   124    1
    55   110   111    1
    56    22    23    1
    57    94    93    1
    58    94    95    2
    59   128   129    2
    60   128   127    1
    61   108   109    1
    62   108   106   ar
    63   120   123    1
    64   104   106   ar
    65   142   139    1
    66   142   143    1
    67    17    16    1
    68    17    18    2
    69    16    19    1
    70   140   141    2
    71   140   139    1
    72    20    19    1
    73   145   143   am
    74   126   127    1
    75   123   124    1
    76    97    95    1
    77    23    26    1
    78    23    24    1
    79    95    96    1
    80   111   112    1
    81   111   114    1
    82    19    21    1
    83   139   138    1
    84   112   113    2
    85   143   144    2
    86    26    27    1
    87   138   132   am
    88   130   131    1
    89   114   115    1
    90    24    25    2
    91   115   116    1
    92   132   131    1
    93   132   133    2
    94    27    28    1
    95   148   149    2
    96   148   147    1
    97    37    36    1
    98    37    38    1
    99   116   117   ar
   100   116   118   ar
   101   131   134    1
   102   146   147    1
   103    50    48   ar
   104    50    51   ar
   105    36    35    1
   106    28    29    1
   107   153   154    1
   108    38    39    2
   109    48    47   ar
   110   181   179    1
   111    30    29    1
   112   167   168    2
   113   167   166    1
   114   134   135    1
   115    39    40    1
   116    39    41    1
   117   147   150    1
   118    53    51   ar
   119    53    55   ar
   120    51    49   ar
   121   150   151    1
   122   150   152    1
   123    47    49   ar
   124    47    46    1
   125   165   166    1
   126   165   155   am
   127    31    32    1
   128    55    54   ar
   129   154   155    1
   130   154   157    1
   131    49    52   ar
   132   180   178    1
   133    35    32    1
   134   166   169    1
   135   155   156    2
   136    32    33    1
   137   135   137    1
   138   135   136    1
   139   179   178    1
   140    46    43    1
   141   169   170    1
   142   178   175    1
   143    54    52   ar
   144   157   158    1
   145   170   171    1
   146    43    42    1
   147    43    44    1
   148    33    34    2
   149   227   226   ar
   150   227   225   ar
   151   175   176    1
   152   175   174    1
   153   226   224   ar
   154   158   159   ar
   155   158   160   ar
   156    65    64    1
   157   176   177    2
   158    44    45    2
   159    44    56   am
   160   225   223   ar
   161   172   171   ar
   162   159   161   ar
   163   171   173   ar
   164   160   162   ar
   165    56    57    1
   166   188   187    1
   167   205   203   am
   168   224   221   ar
   169    61    62    1
   170    61    60    1
   171    64    66    1
   172    64    63    2
   173   223   221   ar
   174   223   222   ar
   175   161   163   ar
   176    62    63    1
   177   221   219   ar
   178   186   187    1
   179   186   183    1
   180    57    60    1
   181    57    58    1
   182   162   163   ar
   183   187   189    1
   184   203   202    1
   185   203   204    2
   186   222   220   ar
   187   202   199    1
   188   184   185    2
   189   184   183    1
   190   163   164    1
   191   183   182    1
   192   219   220   ar
   193   219   218    1
   194    58    59    2
   195   218   215    1
   196   199   200    1
   197   199   198    1
   198   200   201    2
   199   198   192   am
   200   215   216    1
   201   215   214    1
   202   217   216    2
   203   190   191    1
   204   192   191    1
   205   192   193    2
   206   213   211    1
   207   214   208   am
   208   191   194    1
   209   194   195    1
   210   197   195   ar
   211   211   210    1
   212   211   212    1
   213   210   207    1
   214   208   207    1
   215   208   209    2
   216   195   196   ar
   217   206   207    1
