@<TRIPOS>MOLECULE
tmp/4y5mA00.pdb
 123 112 0 0 0
SMALL
GASTEIGER

@<TRIPOS>ATOM
      1  N         -3.7820   -8.9130    3.2860 N.3    10  ILE10      -0.1231
      2  CA        -4.8550   -9.3420    4.1700 C.3    10  ILE10       0.1692
      3  C         -6.1520   -9.6580    3.4400 C.2    10  ILE10       0.2592
      4  O         -7.0190  -10.3130    3.9960 O.2    10  ILE10      -0.2718
      5  CB        -5.1670   -8.3190    5.2810 C.3    10  ILE10       0.0266
      6  CG1       -5.6360   -6.9700    4.7040 C.3    10  ILE10       0.0019
      7  CG2       -3.9550   -8.1370    6.2000 C.3    10  ILE10       0.0020
      8  CD1       -6.2980   -6.0870    5.7260 C.3    10  ILE10       0.0001
      9  N         -6.2800   -9.1670    2.2120 N.am   11  ASP11      -0.1974
     10  CA        -7.5010   -9.3180    1.4380 C.3    11  ASP11       0.1709
     11  C         -7.1770   -9.1660   -0.0490 C.2    11  ASP11       0.2293
     12  O         -6.0120   -8.9950   -0.4160 O.2    11  ASP11      -0.2864
     13  CB        -8.5980   -8.3460    1.9070 C.3    11  ASP11       0.1436
     14  CG        -8.2440   -6.8850    1.7220 C.2    11  ASP11       0.3671
     15  OD1       -7.3670   -6.5330    0.9040 O.co2  11  ASP11      -0.2456
     16  OD2       -8.9030   -6.0760    2.4080 O.co2  11  ASP11      -0.2456
     17  N         -5.2170   -4.3800    1.0750 N.3    15  ASP15      -0.1225
     18  CA        -5.5310   -3.2750    1.9620 C.3    15  ASP15       0.1805
     19  C         -4.5160   -3.1120    3.0930 C.2    15  ASP15       0.2597
     20  O         -4.4970   -2.0670    3.7370 O.2    15  ASP15      -0.2718
     21  CB        -6.9440   -3.4260    2.5160 C.3    15  ASP15       0.1424
     22  CG        -8.0210   -3.0480    1.5000 C.2    15  ASP15       0.3668
     23  OD1       -7.8680   -2.0230    0.7940 O.co2  15  ASP15      -0.2456
     24  OD2       -9.0380   -3.7710    1.4160 O.co2  15  ASP15      -0.2456
     25  N         -3.7060   -4.1500    3.3220 N.am   16  ALA16      -0.1979
     26  CA        -2.5710   -4.1410    4.2510 C.3    16  ALA16       0.1597
     27  C         -1.8870   -5.4900    4.0800 C.2    16  ALA16       0.2287
     28  O         -2.3820   -6.3440    3.3510 O.2    16  ALA16      -0.2864
     29  CB        -3.0080   -3.9490    5.6910 C.3    16  ALA16       0.0319
     30  N          1.3600   -6.3310   11.3050 N.3    33  ASP33      -0.1239
     31  CA         1.4870   -5.3750   10.2140 C.3    33  ASP33       0.1674
     32  C          2.8160   -4.6480   10.3790 C.2    33  ASP33       0.2266
     33  O          2.9690   -3.8200   11.2830 O.2    33  ASP33      -0.2867
     34  CB         0.2800   -4.4260   10.3130 C.3    33  ASP33       0.1410
     35  CG         0.1880   -3.4170    9.1920 C.2    33  ASP33       0.3668
     36  OD1        1.1380   -3.2840    8.3930 O.co2  33  ASP33      -0.2456
     37  OD2       -0.8610   -2.7290    9.1660 O.co2  33  ASP33      -0.2456
     38  N          5.3830   -1.9730    9.8600 N.3    35  ASP35      -0.1239
     39  CA         5.0410   -0.5740    9.6200 C.3    35  ASP35       0.1674
     40  C          6.2940    0.2970    9.7080 C.2    35  ASP35       0.2266
     41  O          6.7170    0.6650   10.8060 O.2    35  ASP35      -0.2867
     42  CB         4.0200   -0.1290   10.6630 C.3    35  ASP35       0.1410
     43  CG         3.5920    1.3130   10.5080 C.2    35  ASP35       0.3668
     44  OD1        3.9190    1.9190    9.4770 O.co2  35  ASP35      -0.2456
     45  OD2        2.8950    1.8210   11.4250 O.co2  35  ASP35      -0.2456
     46  N         -2.3320    6.9800   15.2650 N.3    79  TYR79      -0.1241
     47  CA        -1.8260    6.9200   13.9000 C.3    79  TYR79       0.1605
     48  C         -2.4490    8.0020   13.0310 C.2    79  TYR79       0.2264
     49  O         -3.5030    8.5510   13.3570 O.2    79  TYR79      -0.2867
     50  CB        -2.0760    5.5350   13.2990 C.3    79  TYR79       0.0534
     51  CG        -1.3350    4.4420   14.0390 C.ar   79  TYR79      -0.0201
     52  CD1        0.0090    4.1930   13.7840 C.ar   79  TYR79      -0.0009
     53  CD2       -1.9690    3.6650   14.9920 C.ar   79  TYR79      -0.0009
     54  CE1        0.6960    3.2120   14.4630 C.ar   79  TYR79       0.0417
     55  CE2       -1.2910    2.6740   15.6770 C.ar   79  TYR79       0.0417
     56  CZ         0.0340    2.4480   15.4050 C.ar   79  TYR79       0.1957
     57  OH         0.6800    1.4560   16.1000 O.3    79  TYR79      -0.2866
     58  N         -4.1070    7.9460   10.4610 N.3    81  ASP81      -0.1239
     59  CA        -5.4470    7.6750    9.9470 C.3    81  ASP81       0.1674
     60  C         -6.5410    7.7570   11.0130 C.2    81  ASP81       0.2266
     61  O         -7.6990    7.4530   10.7370 O.2    81  ASP81      -0.2867
     62  CB        -5.4960    6.3200    9.2370 C.3    81  ASP81       0.1410
     63  CG        -5.2260    5.1500   10.1580 C.2    81  ASP81       0.3668
     64  OD1       -5.0260    5.3420   11.3770 O.co2  81  ASP81      -0.2456
     65  OD2       -5.2250    4.0170    9.6410 O.co2  81  ASP81      -0.2456
     66  N         -6.6480    6.0830   13.9240 N.3    83  SER83      -0.1217
     67  CA        -6.7270    4.9020   14.7880 C.3    83  SER83       0.1889
     68  C         -5.7660    5.0540   15.9710 C.2    83  SER83       0.2288
     69  O         -4.8800    5.9020   15.9490 O.2    83  SER83      -0.2866
     70  CB        -6.4220    3.6270   13.9960 C.3    83  SER83       0.2089
     71  OG        -5.0920    3.6060   13.5140 O.3    83  SER83      -0.2183
     72  N        -11.1870    0.6010   14.4360 N.3   115  SER115     -0.1202
     73  CA       -10.6920    0.0820   13.1670 C.3   115  SER115      0.2020
     74  C         -9.8000   -1.1330   13.3780 C.2   115  SER115      0.2618
     75  O         -9.7620   -2.0170   12.5360 O.2   115  SER115     -0.2717
     76  CB        -9.9990    1.1580   12.3340 C.3   115  SER115      0.2103
     77  OG        -8.7560    1.5290   12.8730 O.3   115  SER115     -0.2182
     78  N         -9.1120   -1.1980   14.5150 N.am  116  PHE116     -0.1975
     79  CA        -8.3220   -2.3810   14.8320 C.3   116  PHE116      0.1639
     80  C         -9.2340   -3.5630   15.1730 C.2   116  PHE116      0.2290
     81  O         -9.0470   -4.6670   14.6560 O.2   116  PHE116     -0.2864
     82  CB        -7.3300   -2.0890   15.9660 C.3   116  PHE116      0.0560
     83  CG        -6.1710   -1.2270   15.5490 C.ar  116  PHE116     -0.0200
     84  CD1       -5.2800   -1.6810   14.6000 C.ar  116  PHE116     -0.0042
     85  CD2       -5.9810    0.0340   16.0970 C.ar  116  PHE116     -0.0042
     86  CE1       -4.2220   -0.9060   14.1960 C.ar  116  PHE116     -0.0003
     87  CE2       -4.9150    0.8140   15.6970 C.ar  116  PHE116     -0.0003
     88  CZ        -4.0360    0.3430   14.7440 C.ar  116  PHE116     -0.0000
     89  N        -10.7870   -5.1800   12.1250 N.3   119  ASP119     -0.1239
     90  CA        -9.8910   -5.8880   11.2170 C.3   119  ASP119      0.1674
     91  C         -9.3550   -7.1560   11.8860 C.2   119  ASP119      0.2266
     92  O         -8.3460   -7.1260   12.5850 O.2   119  ASP119     -0.2867
     93  CB        -8.7580   -4.9700   10.7990 C.3   119  ASP119      0.1410
     94  CG        -7.8700   -5.5880    9.7640 C.2   119  ASP119      0.3668
     95  OD1       -8.1780   -6.7140    9.3110 O.co2 119  ASP119     -0.2456
     96  OD2       -6.8730   -4.9400    9.3910 O.co2 119  ASP119     -0.2456
     97  N         -5.3860   -8.6350   11.4950 N.3   122  ILE122     -0.1245
     98  CA        -4.1650   -7.9930   11.9970 C.3   122  ILE122      0.1561
     99  C         -4.1230   -8.0700   13.5200 C.2   122  ILE122      0.2260
    100  O         -5.0100   -7.5500   14.2090 O.2   122  ILE122     -0.2867
    101  CB        -4.0560   -6.5420   11.4580 C.3   122  ILE122      0.0252
    102  CG1       -3.6870   -6.5910    9.9690 C.3   122  ILE122      0.0019
    103  CG2       -3.0320   -5.7270   12.2360 C.3   122  ILE122      0.0019
    104  CD1       -3.6790   -5.2660    9.2450 C.3   122  ILE122      0.0001
    105  N          0.9460   -4.4690   15.3510 N.3   125  LEU125     -0.1245
    106  CA         1.8810   -3.7920   14.4550 C.3   125  LEU125      0.1561
    107  C          3.3140   -4.0410   14.9270 C.2   125  LEU125      0.2260
    108  O          3.5640   -4.1890   16.1240 O.2   125  LEU125     -0.2867
    109  CB         1.6120   -2.2720   14.4020 C.3   125  LEU125      0.0270
    110  CG         0.6610   -1.8080   13.2810 C.3   125  LEU125      0.0019
    111  CD1       -0.7360   -2.4040   13.4660 C.3   125  LEU125      0.0001
    112  CD2        0.5800   -0.2850   13.2110 C.3   125  LEU125      0.0001
    113  N          3.2600    0.7760    6.3290 N.3   221  GLY221     -0.1225
    114  CA         2.0300    0.7080    7.1000 C.3   221  GLY221      0.1811
    115  C          0.9100    1.6010    6.6070 C.2   221  GLY221      0.2280
    116  O         -0.1560    1.6230    7.2140 O.2   221  GLY221     -0.2866
    117  N         -1.4690    2.1740    3.2310 N.3   223  THR223     -0.1218
    118  CA        -1.8670    1.3880    2.0840 C.3   223  THR223      0.1862
    119  C         -1.6720    2.1250    0.7700 C.2   223  THR223      0.2287
    120  O         -1.2220    1.5350   -0.2070 O.2   223  THR223     -0.2866
    121  CB        -3.3190    0.9650    2.2620 C.3   223  THR223      0.1770
    122  OG1       -3.4310    0.3080    3.5310 O.3   223  THR223     -0.2211
    123  CG2       -3.7860    0.0230    1.1500 C.3   223  THR223      0.0375
@<TRIPOS>BOND
     1    12    11    2
     2   120   119    2
     3    11    10    1
     4   119   118    1
     5    23    22   ar
     6    15    14   ar
     7    17    18    1
     8   123   121    1
     9    24    22   ar
    10    10    13    1
    11    10     9    1
    12    22    21    1
    13    14    13    1
    14    14    16   ar
    15    18    21    1
    16    18    19    1
    17   118   121    1
    18   118   117    1
    19     9     3   am
    20   121   122    1
    21    19    25   am
    22    19    20    2
    23     1     2    1
    24    25    26    1
    25    28    27    2
    26     3     4    2
    27     3     2    1
    28    27    26    1
    29     2     5    1
    30    26    29    1
    31     6     5    1
    32     6     8    1
    33     5     7    1
    34   113   114    1
    35   115   114    1
    36   115   116    2
    37    36    35   ar
    38    37    35   ar
    39    35    34    1
    40    62    59    1
    41    62    63    1
    42   104   102    1
    43    95    94   ar
    44    96    94   ar
    45    44    43   ar
    46    39    40    1
    47    39    38    1
    48    39    42    1
    49    65    63   ar
    50    40    41    2
    51    94    93    1
    52    59    58    1
    53    59    60    1
    54   102   101    1
    55    63    64   ar
    56    31    34    1
    57    31    32    1
    58    31    30    1
    59    32    33    2
    60    43    42    1
    61    43    45   ar
    62    61    60    2
    63    93    90    1
    64    90    91    1
    65    90    89    1
    66   101    98    1
    67   101   103    1
    68    97    98    1
    69    91    92    2
    70    98    99    1
    71    76    77    1
    72    76    73    1
    73    75    74    2
    74    48    49    2
    75    48    47    1
    76    73    74    1
    77    73    72    1
    78   112   110    1
    79   110   111    1
    80   110   109    1
    81    50    47    1
    82    50    51    1
    83    74    78   am
    84    71    70    1
    85    99   100    2
    86    52    51   ar
    87    52    54   ar
    88    47    46    1
    89    66    67    1
    90    70    67    1
    91    51    53   ar
    92    86    84   ar
    93    86    88   ar
    94   109   106    1
    95   106   107    1
    96   106   105    1
    97    54    56   ar
    98    78    79    1
    99    84    83   ar
   100    81    80    2
   101    88    87   ar
   102    67    68    1
   103    79    80    1
   104    79    82    1
   105   107   108    2
   106    53    55   ar
   107    56    55   ar
   108    56    57    1
   109    83    82    1
   110    83    85   ar
   111    87    85   ar
   112    69    68    2
