@<TRIPOS>MOLECULE
tmp/4y5mA01.pdb
 91 87 0 0 0
SMALL
GASTEIGER

@<TRIPOS>ATOM
      1  N         -7.6070   -6.8910   -2.1220 N.3    13  LEU13      -0.1245
      2  CA        -7.2820   -5.5460   -2.5810 C.3    13  LEU13       0.1561
      3  C         -5.9520   -5.0400   -2.0190 C.2    13  LEU13       0.2260
      4  O         -5.5830   -3.8950   -2.2500 O.2    13  LEU13      -0.2867
      5  CB        -8.4150   -4.5950   -2.2020 C.3    13  LEU13       0.0270
      6  CG        -9.7410   -4.8530   -2.9270 C.3    13  LEU13       0.0019
      7  CD1      -10.8640   -4.0460   -2.2940 C.3    13  LEU13       0.0001
      8  CD2       -9.6220   -4.5240   -4.4030 C.3    13  LEU13       0.0001
      9  N         -5.2170   -4.3800    1.0750 N.3    15  ASP15      -0.1239
     10  CA        -5.5310   -3.2750    1.9620 C.3    15  ASP15       0.1674
     11  C         -4.5160   -3.1120    3.0930 C.2    15  ASP15       0.2266
     12  O         -4.4970   -2.0670    3.7370 O.2    15  ASP15      -0.2867
     13  CB        -6.9440   -3.4260    2.5160 C.3    15  ASP15       0.1410
     14  CG        -8.0210   -3.0480    1.5000 C.2    15  ASP15       0.3668
     15  OD1       -7.8680   -2.0230    0.7940 O.co2  15  ASP15      -0.2456
     16  OD2       -9.0380   -3.7710    1.4160 O.co2  15  ASP15      -0.2456
     17  N         -1.4690    2.1740    3.2310 N.3   223  THR223     -0.1203
     18  CA        -1.8670    1.3880    2.0840 C.3   223  THR223      0.1994
     19  C         -1.6720    2.1250    0.7700 C.2   223  THR223      0.2617
     20  O         -1.2220    1.5350   -0.2070 O.2   223  THR223     -0.2717
     21  CB        -3.3190    0.9650    2.2620 C.3   223  THR223      0.1784
     22  OG1       -3.4310    0.3080    3.5310 O.3   223  THR223     -0.2211
     23  CG2       -3.7860    0.0230    1.1500 C.3   223  THR223      0.0376
     24  N         -2.0440    3.4010    0.7410 N.am  224  LEU224     -0.1979
     25  CA        -2.1180    4.1590   -0.5060 C.3   224  LEU224      0.1596
     26  C         -0.9280    5.0960   -0.6920 C.2   224  LEU224      0.2287
     27  O         -0.0340    5.1880    0.1510 O.2   224  LEU224     -0.2864
     28  CB        -3.4330    4.9470   -0.5810 C.3   224  LEU224      0.0297
     29  CG        -4.6860    4.0940   -0.3630 C.3   224  LEU224      0.0022
     30  CD1       -5.9530    4.9090   -0.5390 C.3   224  LEU224      0.0001
     31  CD2       -4.7310    2.8680   -1.2950 C.3   224  LEU224      0.0001
     32  N          0.0720    8.9160   -1.1580 N.3   226  TYR226     -0.1241
     33  CA        -0.4280   10.2570   -0.8730 C.3   226  TYR226      0.1605
     34  C          0.5900   11.2850   -1.3360 C.2   226  TYR226      0.2264
     35  O          1.7210   11.3240   -0.8340 O.2   226  TYR226     -0.2867
     36  CB        -0.7200   10.4430    0.6220 C.3   226  TYR226      0.0534
     37  CG        -1.8210    9.5480    1.1150 C.ar  226  TYR226     -0.0201
     38  CD1       -1.5630    8.2580    1.5280 C.ar  226  TYR226     -0.0009
     39  CD2       -3.1360    9.9760    1.1200 C.ar  226  TYR226     -0.0009
     40  CE1       -2.5820    7.4200    1.9470 C.ar  226  TYR226      0.0417
     41  CE2       -4.1570    9.1500    1.5380 C.ar  226  TYR226      0.0417
     42  CZ        -3.8760    7.8720    1.9570 C.ar  226  TYR226      0.1957
     43  OH        -4.8720    7.0170    2.3730 O.3   226  TYR226     -0.2866
     44  N        -17.1170   10.5990   -0.2090 N.3   248  VAL248     -0.1231
     45  CA       -16.4280    9.3180   -0.1550 C.3   248  VAL248      0.1692
     46  C        -15.0890    9.4540    0.5750 C.2   248  VAL248      0.2592
     47  O        -14.6660    8.5240    1.2630 O.2   248  VAL248     -0.2718
     48  CB       -16.2680    8.7150   -1.5650 C.3   248  VAL248      0.0266
     49  CG1      -15.4130    7.4460   -1.5310 C.3   248  VAL248      0.0020
     50  CG2      -17.6560    8.4140   -2.1480 C.3   248  VAL248      0.0020
     51  N        -14.4430   10.6120    0.4470 N.am  249  GLY249     -0.1957
     52  CA       -13.1760   10.8710    1.1150 C.3   249  GLY249      0.1869
     53  C        -11.9390   10.7600    0.2320 C.2   249  GLY249      0.2309
     54  O        -10.8500   10.4760    0.7210 O.2   249  GLY249     -0.2863
     55  N         -8.5140    0.2770   -6.0540 N.3   280  PHE280     -0.1241
     56  CA        -8.8900   -0.2660   -4.7430 C.3   280  PHE280      0.1605
     57  C        -10.3460   -0.6760   -4.6470 C.2   280  PHE280      0.2264
     58  O        -10.8590   -0.9000   -3.5660 O.2   280  PHE280     -0.2867
     59  CB        -8.3990    0.6380   -3.5910 C.3   280  PHE280      0.0534
     60  CG        -6.9580    0.4110   -3.3300 C.ar  280  PHE280     -0.0203
     61  CD1       -6.0050    0.8920   -4.2070 C.ar  280  PHE280     -0.0042
     62  CD2       -6.5400   -0.4230   -2.3050 C.ar  280  PHE280     -0.0042
     63  CE1       -4.6890    0.5750   -4.0570 C.ar  280  PHE280     -0.0003
     64  CE2       -5.2110   -0.7380   -2.1540 C.ar  280  PHE280     -0.0003
     65  CZ        -4.2980   -0.2290   -3.0180 C.ar  280  PHE280     -0.0000
     66  N        -14.6230   -1.2740   -5.6110 N.3   282  PRO282     -0.2102
     67  CA       -15.8570   -0.5320   -5.3570 C.3   282  PRO282      0.1504
     68  C        -15.8650    0.1660   -4.0120 C.2   282  PRO282      0.2575
     69  O        -15.4390   -0.3890   -3.0040 O.2   282  PRO282     -0.2718
     70  CB       -16.9380   -1.6080   -5.4430 C.3   282  PRO282      0.0282
     71  CG       -16.3640   -2.6050   -6.4050 C.3   282  PRO282      0.0208
     72  CD       -14.8860   -2.6340   -6.1060 C.3   282  PRO282      0.0893
     73  N        -16.4040    1.3800   -3.9920 N.am  283  ILE283     -0.1980
     74  CA       -16.4500    2.1520   -2.7530 C.3   283  ILE283      0.1595
     75  C        -17.3500    1.5050   -1.7030 C.2   283  ILE283      0.2287
     76  O        -17.1280    1.6710   -0.5000 O.2   283  ILE283     -0.2864
     77  CB       -16.8610    3.6120   -3.0140 C.3   283  ILE283      0.0276
     78  CG1      -18.2540    3.7090   -3.6470 C.3   283  ILE283      0.0022
     79  CG2      -15.8040    4.3110   -3.9000 C.3   283  ILE283      0.0022
     80  CD1      -18.7990    5.1180   -3.7010 C.3   283  ILE283      0.0001
     81  N        -12.4710    3.1590   -5.6750 N.3   291  PHE291     -0.1241
     82  CA       -11.6140    4.0530   -4.9060 C.3   291  PHE291      0.1605
     83  C        -10.1950    4.0790   -5.4510 C.2   291  PHE291      0.2264
     84  O         -9.6130    3.0410   -5.7360 O.2   291  PHE291     -0.2867
     85  CB       -11.5880    3.6690   -3.4330 C.3   291  PHE291      0.0534
     86  CG       -11.1210    4.7850   -2.5420 C.ar  291  PHE291     -0.0203
     87  CD1      -11.9340    5.8870   -2.3180 C.ar  291  PHE291     -0.0042
     88  CD2       -9.8630    4.7570   -1.9590 C.ar  291  PHE291     -0.0042
     89  CE1      -11.5100    6.9210   -1.5070 C.ar  291  PHE291     -0.0003
     90  CE2       -9.4450    5.7800   -1.1440 C.ar  291  PHE291     -0.0003
     91  CZ       -10.2600    6.8650   -0.9240 C.ar  291  PHE291     -0.0000
@<TRIPOS>BOND
     1    71    72    1
     2    71    70    1
     3    72    66    1
     4    55    56    1
     5    84    83    2
     6    81    82    1
     7    66    67    1
     8    83    82    1
     9    70    67    1
    10    67    68    1
    11    82    85    1
    12    56    57    1
    13    56    59    1
    14    57    58    2
    15     8     6    1
    16    61    63   ar
    17    61    60   ar
    18    63    65   ar
    19    68    73   am
    20    68    69    2
    21    73    74    1
    22    79    77    1
    23    80    78    1
    24    78    77    1
    25    59    60    1
    26    85    86    1
    27    60    62   ar
    28    65    64   ar
    29    77    74    1
    30     6     7    1
    31     6     5    1
    32    74    75    1
    33     2     5    1
    34     2     1    1
    35     2     3    1
    36    86    87   ar
    37    86    88   ar
    38    87    89   ar
    39    62    64   ar
    40     4     3    2
    41    50    48    1
    42    88    90   ar
    43    75    76    2
    44    48    49    1
    45    48    45    1
    46    89    91   ar
    47    34    33    1
    48    34    35    2
    49    31    29    1
    50    32    33    1
    51    90    91   ar
    52    33    36    1
    53    26    25    1
    54    26    27    2
    55    28    25    1
    56    28    29    1
    57    30    29    1
    58    25    24    1
    59    44    45    1
    60    20    19    2
    61    45    46    1
    62    53    54    2
    63    53    52    1
    64    51    46   am
    65    51    52    1
    66    46    47    2
    67    36    37    1
    68    24    19   am
    69    19    18    1
    70    15    14   ar
    71     9    10    1
    72    37    39   ar
    73    37    38   ar
    74    39    41   ar
    75    23    21    1
    76    16    14   ar
    77    14    13    1
    78    38    40   ar
    79    41    42   ar
    80    40    42   ar
    81    42    43    1
    82    10    13    1
    83    10    11    1
    84    18    21    1
    85    18    17    1
    86    21    22    1
    87    11    12    2
