@<TRIPOS>MOLECULE
tmp/4y5nA00.pdb
 95 92 0 0 0
SMALL
GASTEIGER

@<TRIPOS>ATOM
      1  N         -7.6030   -6.7650   -2.0150 N.3    13  LEU13      -0.1245
      2  CA        -7.2500   -5.4170   -2.4560 C.3    13  LEU13       0.1561
      3  C         -5.8620   -4.9570   -1.9870 C.2    13  LEU13       0.2260
      4  O         -5.4530   -3.8410   -2.2870 O.2    13  LEU13      -0.2867
      5  CB        -8.2810   -4.4180   -1.9270 C.3    13  LEU13       0.0270
      6  CG        -9.7380   -4.5850   -2.3750 C.3    13  LEU13       0.0019
      7  CD1      -10.5950   -3.5610   -1.6610 C.3    13  LEU13       0.0001
      8  CD2       -9.8810   -4.4620   -3.8830 C.3    13  LEU13       0.0001
      9  N         -5.1200   -4.2530    1.1600 N.3    15  ASP15      -0.1239
     10  CA        -5.3400   -3.1400    2.0870 C.3    15  ASP15       0.1674
     11  C         -4.2170   -3.0350    3.1220 C.2    15  ASP15       0.2266
     12  O         -3.9070   -1.9440    3.6180 O.2    15  ASP15      -0.2867
     13  CB        -6.7020   -3.2490    2.7630 C.3    15  ASP15       0.1410
     14  CG        -7.8220   -2.7740    1.8700 C.2    15  ASP15       0.3668
     15  OD1       -7.6920   -1.6740    1.2950 O.co2  15  ASP15      -0.2456
     16  OD2       -8.8280   -3.5070    1.7320 O.co2  15  ASP15      -0.2456
     17  N         -1.6990    2.1500    3.0910 N.3   223  THR223     -0.1203
     18  CA        -2.1210    1.4250    1.8990 C.3   223  THR223      0.1994
     19  C         -1.8110    2.1480    0.5910 C.2   223  THR223      0.2617
     20  O         -1.3220    1.5520   -0.3750 O.2   223  THR223     -0.2717
     21  CB        -3.6450    1.1620    1.9410 C.3   223  THR223      0.1784
     22  OG1       -4.0110    0.6700    3.2290 O.3   223  THR223     -0.2211
     23  CG2       -4.0930    0.1780    0.8570 C.3   223  THR223      0.0376
     24  N         -2.1260    3.4350    0.5680 N.am  224  LEU224     -0.1979
     25  CA        -2.1510    4.2170   -0.6620 C.3   224  LEU224      0.1596
     26  C         -0.9580    5.1460   -0.8350 C.2   224  LEU224      0.2287
     27  O         -0.0870    5.2530    0.0310 O.2   224  LEU224     -0.2864
     28  CB        -3.4540    5.0090   -0.7570 C.3   224  LEU224      0.0297
     29  CG        -4.7150    4.1590   -0.6230 C.3   224  LEU224      0.0022
     30  CD1       -5.9350    5.0200   -0.8620 C.3   224  LEU224      0.0001
     31  CD2       -4.7210    2.9630   -1.5700 C.3   224  LEU224      0.0001
     32  N          0.0190    8.9430   -1.2860 N.3   226  TYR226     -0.1241
     33  CA        -0.4830   10.2770   -1.0050 C.3   226  TYR226      0.1605
     34  C          0.5470   11.3060   -1.4510 C.2   226  TYR226      0.2264
     35  O          1.6700   11.3410   -0.9290 O.2   226  TYR226     -0.2867
     36  CB        -0.7780   10.4470    0.4870 C.3   226  TYR226      0.0534
     37  CG        -1.9100    9.5750    0.9710 C.ar  226  TYR226     -0.0201
     38  CD1       -1.6660    8.2800    1.4070 C.ar  226  TYR226     -0.0009
     39  CD2       -3.2260   10.0300    0.9520 C.ar  226  TYR226     -0.0009
     40  CE1       -2.6960    7.4560    1.8160 C.ar  226  TYR226      0.0417
     41  CE2       -4.2710    9.2030    1.3670 C.ar  226  TYR226      0.0417
     42  CZ        -3.9910    7.9120    1.8060 C.ar  226  TYR226      0.1957
     43  OH        -5.0070    7.0730    2.2090 O.3   226  TYR226     -0.2866
     44  N        -17.2210   10.8300   -0.3390 N.3   248  VAL248     -0.1231
     45  CA       -16.5820    9.5240   -0.2740 C.3   248  VAL248      0.1692
     46  C        -15.2520    9.6110    0.4780 C.2   248  VAL248      0.2592
     47  O        -14.8810    8.6760    1.1770 O.2   248  VAL248     -0.2718
     48  CB       -16.3820    8.9390   -1.6880 C.3   248  VAL248      0.0266
     49  CG1      -15.5970    7.6450   -1.6480 C.3   248  VAL248      0.0020
     50  CG2      -17.7390    8.7070   -2.3510 C.3   248  VAL248      0.0020
     51  N        -14.5250   10.7150    0.3030 N.am  249  GLY249     -0.1957
     52  CA       -13.2520   10.9180    0.9740 C.3   249  GLY249      0.1869
     53  C        -12.0240   10.8560    0.0880 C.2   249  GLY249      0.2309
     54  O        -10.9250   10.6090    0.5830 O.2   249  GLY249     -0.2863
     55  N         -8.5560    0.2960   -6.2360 N.3   280  PHE280     -0.1227
     56  CA        -8.9790   -0.2670   -4.9490 C.3   280  PHE280      0.1736
     57  C        -10.4400   -0.7110   -4.9250 C.2   280  PHE280      0.2596
     58  O        -10.9970   -1.0020   -3.8820 O.2   280  PHE280     -0.2718
     59  CB        -8.5340    0.6310   -3.7760 C.3   280  PHE280      0.0547
     60  CG        -7.0910    0.4410   -3.5010 C.ar  280  PHE280     -0.0202
     61  CD1       -6.1400    0.9760   -4.3620 C.ar  280  PHE280     -0.0042
     62  CD2       -6.6730   -0.4420   -2.5120 C.ar  280  PHE280     -0.0042
     63  CE1       -4.8010    0.6930   -4.1980 C.ar  280  PHE280     -0.0003
     64  CE2       -5.3280   -0.7290   -2.3490 C.ar  280  PHE280     -0.0003
     65  CZ        -4.4050   -0.1610   -3.1910 C.ar  280  PHE280     -0.0000
     66  N        -11.0190   -0.8470   -6.1070 N.am  281  GLY281     -0.1943
     67  CA       -12.3110   -1.4780   -6.2440 C.3   281  GLY281      0.1998
     68  C        -13.4550   -0.6110   -5.7740 C.2   281  GLY281      0.2481
     69  O        -13.2850    0.5640   -5.4150 O.2   281  GLY281     -0.2729
     70  N        -14.6590   -1.1840   -5.7930 N.am  282  PRO282     -0.2715
     71  CA       -15.8590   -0.4050   -5.4810 C.3   282  PRO282      0.1536
     72  C        -15.7890    0.2860   -4.1270 C.2   282  PRO282      0.2598
     73  O        -15.2750   -0.2640   -3.1590 O.2   282  PRO282     -0.2715
     74  CB       -16.9630   -1.4550   -5.5250 C.3   282  PRO282      0.0310
     75  CG       -16.4750   -2.4450   -6.5450 C.3   282  PRO282      0.0237
     76  CD       -14.9910   -2.5140   -6.3360 C.3   282  PRO282      0.0939
     77  N        -16.3650    1.4850   -4.0590 N.am  283  ILE283     -0.1978
     78  CA       -16.3840    2.2380   -2.8120 C.3   283  ILE283      0.1596
     79  C        -17.2810    1.5780   -1.7640 C.2   283  ILE283      0.2287
     80  O        -17.0770    1.7430   -0.5670 O.2   283  ILE283     -0.2864
     81  CB       -16.8060    3.6980   -3.0380 C.3   283  ILE283      0.0276
     82  CG1      -18.2110    3.7860   -3.6520 C.3   283  ILE283      0.0022
     83  CG2      -15.7630    4.4140   -3.9170 C.3   283  ILE283      0.0022
     84  CD1      -18.7380    5.2030   -3.7200 C.3   283  ILE283      0.0001
     85  N        -12.5400    3.2780   -5.8250 N.3   291  PHE291     -0.1241
     86  CA       -11.6890    4.1920   -5.0780 C.3   291  PHE291      0.1605
     87  C        -10.2690    4.1920   -5.6270 C.2   291  PHE291      0.2264
     88  O         -9.6800    3.1380   -5.8500 O.2   291  PHE291     -0.2867
     89  CB       -11.6690    3.8390   -3.5820 C.3   291  PHE291      0.0534
     90  CG       -11.2130    4.9770   -2.7090 C.ar  291  PHE291     -0.0203
     91  CD1      -11.9920    6.1150   -2.5750 C.ar  291  PHE291     -0.0042
     92  CD2       -9.9780    4.9420   -2.0750 C.ar  291  PHE291     -0.0042
     93  CE1      -11.5680    7.1720   -1.7780 C.ar  291  PHE291     -0.0003
     94  CE2       -9.5660    5.9870   -1.2940 C.ar  291  PHE291     -0.0003
     95  CZ       -10.3460    7.1070   -1.1490 C.ar  291  PHE291     -0.0000
@<TRIPOS>BOND
     1    75    76    1
     2    75    74    1
     3    76    70    1
     4    67    66    1
     5    67    68    1
     6    55    56    1
     7    66    57   am
     8    88    87    2
     9    85    86    1
    10    70    68   am
    11    70    71    1
    12    68    69    2
    13    87    86    1
    14    74    71    1
    15    71    72    1
    16    86    89    1
    17    56    57    1
    18    56    59    1
    19    57    58    2
    20    61    63   ar
    21    61    60   ar
    22    63    65   ar
    23    72    77   am
    24    72    73    2
    25    77    78    1
    26    83    81    1
    27     8     6    1
    28    59    60    1
    29    84    82    1
    30    82    81    1
    31    89    90    1
    32    60    62   ar
    33    65    64   ar
    34    81    78    1
    35    78    79    1
    36    90    91   ar
    37    90    92   ar
    38    91    93   ar
    39    62    64   ar
    40     2     1    1
    41     2     3    1
    42     2     5    1
    43     6     5    1
    44     6     7    1
    45    50    48    1
    46     4     3    2
    47    92    94   ar
    48    93    95   ar
    49    79    80    2
    50    48    49    1
    51    48    45    1
    52    31    29    1
    53    34    33    1
    54    34    35    2
    55    94    95   ar
    56    32    33    1
    57    33    36    1
    58    30    29    1
    59    26    25    1
    60    26    27    2
    61    28    25    1
    62    28    29    1
    63    25    24    1
    64    20    19    2
    65    44    45    1
    66    45    46    1
    67    53    54    2
    68    53    52    1
    69    51    46   am
    70    51    52    1
    71    46    47    2
    72    36    37    1
    73    24    19   am
    74    19    18    1
    75    23    21    1
    76    39    37   ar
    77    39    41   ar
    78    37    38   ar
    79     9    10    1
    80    15    14   ar
    81    41    42   ar
    82    38    40   ar
    83    16    14   ar
    84    42    40   ar
    85    42    43    1
    86    14    13    1
    87    18    21    1
    88    18    17    1
    89    21    22    1
    90    10    13    1
    91    10    11    1
    92    11    12    2
