@<TRIPOS>MOLECULE
tmp/4y5pA00.pdb
 125 116 0 0 0
SMALL
GASTEIGER

@<TRIPOS>ATOM
      1  N          1.3690   -6.3600   11.3120 N.3    33  ASP33      -0.1239
      2  CA         1.5020   -5.4210   10.2110 C.3    33  ASP33       0.1674
      3  C          2.8260   -4.6840   10.3670 C.2    33  ASP33       0.2266
      4  O          2.9790   -3.8390   11.2530 O.2    33  ASP33      -0.2867
      5  CB         0.2940   -4.4840   10.2790 C.3    33  ASP33       0.1410
      6  CG         0.2260   -3.4780    9.1600 C.2    33  ASP33       0.3668
      7  OD1        1.1540   -3.3630    8.3380 O.co2  33  ASP33      -0.2456
      8  OD2       -0.8250   -2.7750    9.1210 O.co2  33  ASP33      -0.2456
      9  N          5.3260   -1.9840    9.8040 N.3    35  ASP35      -0.1239
     10  CA         4.9880   -0.5860    9.5560 C.3    35  ASP35       0.1674
     11  C          6.2210    0.3070    9.6090 C.2    35  ASP35       0.2266
     12  O          6.6590    0.6980   10.6930 O.2    35  ASP35      -0.2867
     13  CB         3.9500   -0.1530   10.5930 C.3    35  ASP35       0.1410
     14  CG         3.4810    1.2730   10.4150 C.2    35  ASP35       0.3668
     15  OD1        3.8300    1.8970    9.3960 O.co2  35  ASP35      -0.2456
     16  OD2        2.7440    1.7530   11.3150 O.co2  35  ASP35      -0.2456
     17  N         -2.6300    6.7920   15.0490 N.3    79  TYR79      -0.1227
     18  CA        -2.1470    6.7610   13.6790 C.3    79  TYR79       0.1736
     19  C         -2.9240    7.7340   12.8020 C.2    79  TYR79       0.2596
     20  O         -3.9590    8.2790   13.2010 O.2    79  TYR79      -0.2718
     21  CB        -2.2590    5.3390   13.1300 C.3    79  TYR79       0.0548
     22  CG        -1.4640    4.3070   13.9120 C.ar   79  TYR79      -0.0200
     23  CD1       -0.0850    4.2020   13.7620 C.ar   79  TYR79      -0.0009
     24  CD2       -2.0960    3.4280   14.7710 C.ar   79  TYR79      -0.0009
     25  CE1        0.6460    3.2510   14.4630 C.ar   79  TYR79       0.0417
     26  CE2       -1.3800    2.4780   15.4760 C.ar   79  TYR79       0.0417
     27  CZ        -0.0120    2.3890   15.3260 C.ar   79  TYR79       0.1957
     28  OH         0.6790    1.4230   16.0310 O.3    79  TYR79      -0.2866
     29  N         -2.4050    7.9420   11.5970 N.am   80  GLY80      -0.1942
     30  CA        -2.9490    8.9210   10.6750 C.3    80  GLY80       0.2014
     31  C         -4.3700    8.6490   10.2330 C.2    80  GLY80       0.2638
     32  O         -5.0810    9.5760    9.8250 O.2    80  GLY80      -0.2714
     33  N         -4.7870    7.3880   10.3060 N.am   81  ASP81      -0.1971
     34  CA        -6.1430    7.0070    9.9330 C.3    81  ASP81       0.1709
     35  C         -7.1380    7.1990   11.0710 C.2    81  ASP81       0.2293
     36  O         -8.3080    6.8510   10.9330 O.2    81  ASP81      -0.2864
     37  CB        -6.2030    5.5690    9.3990 C.3    81  ASP81       0.1436
     38  CG        -5.7520    4.5300   10.4110 C.2    81  ASP81       0.3671
     39  OD1       -5.4910    4.8800   11.5850 O.co2  81  ASP81      -0.2456
     40  OD2       -5.6660    3.3470   10.0160 O.co2  81  ASP81      -0.2456
     41  N         -7.0190    5.7550   14.0000 N.3    83  SER83      -0.1217
     42  CA        -7.0290    4.6010   14.9010 C.3    83  SER83       0.1889
     43  C         -6.0160    4.7900   16.0250 C.2    83  SER83       0.2288
     44  O         -5.1360    5.6370   15.9400 O.2    83  SER83      -0.2866
     45  CB        -6.7450    3.3060   14.1380 C.3    83  SER83       0.2089
     46  OG        -5.4000    3.2320   13.6890 O.3    83  SER83      -0.2183
     47  N         -9.2730   -1.4490   14.6690 N.3   116  PHE116     -0.1241
     48  CA        -8.4350   -2.6010   14.9890 C.3   116  PHE116      0.1605
     49  C         -9.3100   -3.8020   15.3460 C.2   116  PHE116      0.2264
     50  O         -9.0980   -4.9020   14.8370 O.2   116  PHE116     -0.2867
     51  CB        -7.4490   -2.2640   16.1060 C.3   116  PHE116      0.0534
     52  CG        -6.3110   -1.3990   15.6470 C.ar  116  PHE116     -0.0203
     53  CD1       -5.4330   -1.8610   14.6870 C.ar  116  PHE116     -0.0042
     54  CD2       -6.1320   -0.1190   16.1490 C.ar  116  PHE116     -0.0042
     55  CE1       -4.3990   -1.0820   14.2320 C.ar  116  PHE116     -0.0003
     56  CE2       -5.0880    0.6780   15.7050 C.ar  116  PHE116     -0.0003
     57  CZ        -4.2190    0.1980   14.7450 C.ar  116  PHE116     -0.0000
     58  N          0.9830   -4.5330   15.3920 N.3   125  LEU125     -0.1245
     59  CA         1.8910   -3.7850   14.5380 C.3   125  LEU125      0.1561
     60  C          3.3300   -4.1060   14.9300 C.2   125  LEU125      0.2260
     61  O          3.6180   -4.3860   16.0940 O.2   125  LEU125     -0.2867
     62  CB         1.6540   -2.2790   14.7150 C.3   125  LEU125      0.0270
     63  CG         0.5400   -1.6120   13.9030 C.3   125  LEU125      0.0019
     64  CD1        1.0510   -1.3050   12.5000 C.3   125  LEU125      0.0001
     65  CD2       -0.7190   -2.4660   13.8270 C.3   125  LEU125      0.0001
     66  N          6.5300    4.2370    3.5580 N.3   219  ASP219     -0.1239
     67  CA         5.6670    3.7800    4.6460 C.3   219  ASP219      0.1674
     68  C          4.8930    2.5200    4.2840 C.2   219  ASP219      0.2266
     69  O          3.8270    2.5770    3.6530 O.2   219  ASP219     -0.2867
     70  CB         4.7040    4.8860    5.0690 C.3   219  ASP219      0.1410
     71  CG         3.8850    4.5030    6.2720 C.2   219  ASP219      0.3668
     72  OD1        4.0870    3.3920    6.8210 O.co2 219  ASP219     -0.2456
     73  OD2        3.0510    5.3320    6.6870 O.co2 219  ASP219     -0.2456
     74  N          3.2020    0.7560    6.1880 N.3   221  GLY221     -0.1210
     75  CA         1.9700    0.6750    6.9610 C.3   221  GLY221      0.1956
     76  C          0.8370    1.5530    6.4570 C.2   221  GLY221      0.2613
     77  O         -0.2430    1.5520    7.0540 O.2   221  GLY221     -0.2717
     78  N          1.0620    2.2870    5.3680 N.am  222  THR222     -0.1938
     79  CA         0.0110    3.0730    4.7170 C.3   222  THR222      0.2028
     80  C         -0.3090    2.3880    3.4000 C.2   222  THR222      0.2642
     81  O          0.6000    2.0500    2.6410 O.2   222  THR222     -0.2714
     82  CB         0.4400    4.5380    4.4900 C.3   222  THR222      0.1808
     83  OG1        0.5160    5.1900    5.7610 O.3   222  THR222     -0.2208
     84  CG2       -0.5760    5.2810    3.6390 C.3   222  THR222      0.0379
     85  N         -1.5960    2.1830    3.1250 N.am  223  THR223     -0.1950
     86  CA        -2.0120    1.4290    1.9550 C.3   223  THR223      0.1897
     87  C         -1.7440    2.1590    0.6500 C.2   223  THR223      0.2313
     88  O         -1.2850    1.5590   -0.3220 O.2   223  THR223     -0.2863
     89  CB        -3.5220    1.1350    2.0280 C.3   223  THR223      0.1794
     90  OG1       -3.8640    0.6440    3.3290 O.3   223  THR223     -0.2208
     91  CG2       -3.9380    0.1310    0.9540 C.3   223  THR223      0.0378
     92  N          0.0370    8.9270   -1.2650 N.3   226  TYR226     -0.1241
     93  CA        -0.4640   10.2660   -0.9810 C.3   226  TYR226      0.1605
     94  C          0.5530   11.2940   -1.4490 C.2   226  TYR226      0.2264
     95  O          1.6790   11.3210   -0.9440 O.2   226  TYR226     -0.2867
     96  CB        -0.7440   10.4400    0.5160 C.3   226  TYR226      0.0534
     97  CG        -1.8750    9.5610    1.0070 C.ar  226  TYR226     -0.0201
     98  CD1       -1.6430    8.2660    1.4500 C.ar  226  TYR226     -0.0009
     99  CD2       -3.1750   10.0390    1.0200 C.ar  226  TYR226     -0.0009
    100  CE1       -2.6800    7.4570    1.8620 C.ar  226  TYR226      0.0417
    101  CE2       -4.2260    9.2300    1.4430 C.ar  226  TYR226      0.0417
    102  CZ        -3.9640    7.9430    1.8730 C.ar  226  TYR226      0.1957
    103  OH        -4.9640    7.1140    2.2990 O.3   226  TYR226     -0.2866
    104  N         -4.6600   12.7530   -2.5210 N.3   296  SER296     -0.1217
    105  CA        -3.9730   13.9590   -2.0950 C.3   296  SER296      0.1889
    106  C         -3.4630   13.8650   -0.6720 C.2   296  SER296      0.2288
    107  O         -4.1610   13.4190    0.2300 O.2   296  SER296     -0.2866
    108  CB        -4.9350   15.1290   -2.1890 C.3   296  SER296      0.2089
    109  OG        -4.3050   16.3210   -1.7500 O.3   296  SER296     -0.2183
    110  N         -2.4580   16.3820    5.2560 N.3   300  ILE300     -0.1245
    111  CA        -1.7090   15.3730    6.0220 C.3   300  ILE300      0.1561
    112  C         -0.4580   16.0160    6.5770 C.2   300  ILE300      0.2260
    113  O         -0.0070   15.6670    7.6630 O.2   300  ILE300     -0.2867
    114  CB        -1.2270   14.1550    5.1730 C.3   300  ILE300      0.0252
    115  CG1       -2.4060   13.3630    4.6090 C.3   300  ILE300      0.0019
    116  CG2       -0.3450   13.2230    6.0230 C.3   300  ILE300      0.0019
    117  CD1       -1.9880   12.1850    3.7290 C.3   300  ILE300      0.0001
    118  N          3.2320   10.5640    1.3520 N.3   304  ILE304     -0.1245
    119  CA         3.4060    9.1930    1.8290 C.3   304  ILE304      0.1561
    120  C          3.4980    8.2320    0.6570 C.2   304  ILE304      0.2260
    121  O          2.5170    8.0070   -0.0610 O.2   304  ILE304     -0.2867
    122  CB         2.2680    8.7420    2.7700 C.3   304  ILE304      0.0252
    123  CG1        2.0620    9.7230    3.9280 C.3   304  ILE304      0.0019
    124  CG2        2.5910    7.3560    3.3220 C.3   304  ILE304      0.0019
    125  CD1        0.7870    9.4400    4.7200 C.3   304  ILE304      0.0001
@<TRIPOS>BOND
     1   104   105    1
     2   108   105    1
     3   108   109    1
     4   105   106    1
     5    94    93    1
     6    94    95    2
     7    92    93    1
     8    93    96    1
     9   106   107    2
    10    88    87    2
    11   121   120    2
    12    96    97    1
    13    87    86    1
    14   120   119    1
    15    91    89    1
    16    97    99   ar
    17    97    98   ar
    18    99   101   ar
    19   118   119    1
    20   101   102   ar
    21    98   100   ar
    22   119   122    1
    23   100   102   ar
    24   102   103    1
    25    86    89    1
    26    86    85    1
    27    89    90    1
    28    81    80    2
    29   122   124    1
    30   122   123    1
    31    85    80   am
    32    80    79    1
    33    66    67    1
    34    84    82    1
    35    69    68    2
    36   117   115    1
    37   123   125    1
    38    68    67    1
    39    82    79    1
    40    82    83    1
    41   115   114    1
    42    67    70    1
    43    79    78    1
    44    70    71    1
    45   114   111    1
    46   114   116    1
    47   110   111    1
    48    78    76   am
    49   111   112    1
    50    74    75    1
    51    71    73   ar
    52    71    72   ar
    53    76    75    1
    54    76    77    2
    55   112   113    2
    56     7     6   ar
    57     8     6   ar
    58     6     5    1
    59    15    14   ar
    60    37    34    1
    61    37    38    1
    62    10    11    1
    63    10     9    1
    64    10    13    1
    65    11    12    2
    66    32    31    2
    67    34    33    1
    68    34    35    1
    69    40    38   ar
    70     2     5    1
    71     2     3    1
    72     2     1    1
    73    31    33   am
    74    31    30    1
    75     3     4    2
    76    38    39   ar
    77    14    13    1
    78    14    16   ar
    79    30    29    1
    80    36    35    2
    81    29    19   am
    82    64    63    1
    83    19    20    2
    84    19    18    1
    85    21    18    1
    86    21    22    1
    87    18    17    1
    88    46    45    1
    89    23    22   ar
    90    23    25   ar
    91    65    63    1
    92    63    62    1
    93    22    24   ar
    94    41    42    1
    95    45    42    1
    96    55    53   ar
    97    55    57   ar
    98    25    27   ar
    99    59    62    1
   100    59    60    1
   101    59    58    1
   102    47    48    1
   103    53    52   ar
   104    57    56   ar
   105    24    26   ar
   106    50    49    2
   107    42    43    1
   108    60    61    2
   109    48    49    1
   110    48    51    1
   111    27    26   ar
   112    27    28    1
   113    52    51    1
   114    52    54   ar
   115    56    54   ar
   116    44    43    2
