@<TRIPOS>MOLECULE
tmp/4y5qA00.pdb
 154 146 0 0 0
SMALL
GASTEIGER

@<TRIPOS>ATOM
      1  N         30.4790    8.0480   -1.4670 N.3    17  LEU17      -0.1231
      2  CA        29.4960    7.1460   -0.9030 C.3    17  LEU17       0.1693
      3  C         28.1250    7.3750   -1.5600 C.2    17  LEU17       0.2593
      4  O         27.4500    6.4260   -1.9390 O.2    17  LEU17      -0.2718
      5  CB        29.3950    7.3110    0.6040 C.3    17  LEU17       0.0284
      6  CG        30.5400    6.6750    1.3910 C.3    17  LEU17       0.0019
      7  CD1       30.4170    6.9380    2.8510 C.3    17  LEU17       0.0001
      8  CD2       30.6320    5.2120    1.0890 C.3    17  LEU17       0.0001
      9  N         27.6890    8.6170   -1.6920 N.am   18  GLY18      -0.1942
     10  CA        26.4100    8.8830   -2.3630 C.3    18  GLY18       0.2014
     11  C         26.0840   10.3610   -2.3980 C.2    18  GLY18       0.2639
     12  O         26.8350   11.1740   -1.8970 O.2    18  GLY18      -0.2714
     13  N         24.9390   10.7060   -2.9610 N.am   19  LYS19      -0.1963
     14  CA        24.5560   12.0970   -3.1230 C.3    19  LYS19       0.1728
     15  C         23.0580   12.2060   -2.9750 C.2    19  LYS19       0.2617
     16  O         22.3300   11.5980   -3.7560 O.2    19  LYS19      -0.2715
     17  CB        24.9730   12.6110   -4.4870 C.3    19  LYS19       0.0311
     18  CG        24.8960   14.1260   -4.5380 C.3    19  LYS19       0.0038
     19  CD        24.9930   14.7020   -5.9370 C.3    19  LYS19       0.0206
     20  CE        25.2440   16.1790   -5.8040 C.3    19  LYS19       0.1093
     21  NZ        24.6180   16.9330   -6.9170 N.3    19  LYS19      -0.1314
     22  N         22.5980   12.9790   -1.9960 N.am   20  GLY20      -0.1940
     23  CA        21.1710   13.1510   -1.8130 C.3    20  GLY20       0.2014
     24  C         20.7770   14.5900   -2.0070 C.2    20  GLY20       0.2640
     25  O         21.2420   15.2580   -2.9290 O.2    20  GLY20      -0.2714
     26  N         19.9640   15.0710   -1.0750 N.am   21  SER21      -0.1935
     27  CA        19.3560   16.4050   -1.1530 C.3    21  SER21       0.2055
     28  C         20.3550   17.5380   -0.8720 C.2    21  SER21       0.2643
     29  O         20.3220   18.5770   -1.5480 O.2    21  SER21      -0.2714
     30  CB        18.1370   16.5060   -0.1760 C.3    21  SER21       0.2130
     31  OG        17.0770   15.6670   -0.6270 O.3    21  SER21      -0.2179
     32  N         21.2270   17.3470    0.1210 N.am   22  PHE22      -0.1973
     33  CA        22.2000   18.3840    0.5130 C.3    22  PHE22       0.1639
     34  C         23.5790   17.8560    0.3020 C.2    22  PHE22       0.2290
     35  O         23.9480   16.7990    0.8920 O.2    22  PHE22      -0.2864
     36  CB        21.9990   18.8370    1.9830 C.3    22  PHE22       0.0560
     37  CG        20.6280   19.4070    2.2220 C.ar   22  PHE22      -0.0200
     38  CD1       20.3270   20.7240    1.8330 C.ar   22  PHE22      -0.0042
     39  CD2       19.5950   18.5970    2.6680 C.ar   22  PHE22      -0.0042
     40  CE1       19.0490   21.2320    1.9840 C.ar   22  PHE22      -0.0003
     41  CE2       18.3050   19.1050    2.8130 C.ar   22  PHE22      -0.0003
     42  CZ        18.0360   20.4340    2.4620 C.ar   22  PHE22      -0.0000
     43  N         28.1430   12.9670   -0.1600 N.3    25  VAL25      -0.1245
     44  CA        28.7210   12.1820    0.9590 C.3    25  VAL25       0.1561
     45  C         29.8590   11.2480    0.5250 C.2    25  VAL25       0.2260
     46  O         29.7070   10.4050   -0.3620 O.2    25  VAL25      -0.2867
     47  CB        27.6870   11.3630    1.7290 C.3    25  VAL25       0.0252
     48  CG1       28.3370   10.6270    2.8950 C.3    25  VAL25       0.0019
     49  CG2       26.6270   12.2780    2.3140 C.3    25  VAL25       0.0019
     50  N         32.3620    9.2140    7.5960 N.3    38  ALA38      -0.1245
     51  CA        31.5120    9.7610    6.5350 C.3    38  ALA38       0.1562
     52  C         31.6140   11.2660    6.5550 C.2    38  ALA38       0.2260
     53  O         31.4110   11.8620    7.5750 O.2    38  ALA38      -0.2867
     54  CB        30.0720    9.3440    6.7770 C.3    38  ALA38       0.0290
     55  N         30.0310   14.7870    4.7980 N.3    40  LYS40      -0.1245
     56  CA        29.1250   15.5570    3.8330 C.3    40  LYS40       0.1561
     57  C         29.8080   16.8700    3.4570 C.2    40  LYS40       0.2260
     58  O         30.2090   17.6160    4.3320 O.2    40  LYS40      -0.2867
     59  CB        27.7310   15.8450    4.3890 C.3    40  LYS40       0.0271
     60  CG        26.8120   16.6020    3.3990 C.3    40  LYS40       0.0035
     61  CD        25.3860   16.5330    3.8570 C.3    40  LYS40       0.0206
     62  CE        24.8100   15.1370    3.7040 C.3    40  LYS40       0.1093
     63  NZ        23.3880   15.2350    4.0580 N.3    40  LYS40      -0.1314
     64  N         22.2510    9.9580   13.9120 N.3    71  MET71      -0.1245
     65  CA        23.5770    9.9980   13.3060 C.3    71  MET71       0.1570
     66  C         24.4470   10.8810   14.2030 C.2    71  MET71       0.2261
     67  O         24.0270   11.9070   14.7310 O.2    71  MET71      -0.2867
     68  CB        23.5690   10.5160   11.8600 C.3    71  MET71       0.0387
     69  CG        22.9570   11.9060   11.6660 C.3    71  MET71       0.0595
     70  SD        23.2790   12.4960    9.9530 S.3    71  MET71      -0.1393
     71  CE        22.3830   13.9830   10.2240 C.3    71  MET71       0.0692
     72  N         31.0010   12.8010   10.1490 N.3    87  GLY87      -0.1210
     73  CA        30.2180   11.8910   10.9960 C.3    87  GLY87       0.1956
     74  C         30.7450   10.4690   11.0980 C.2    87  GLY87       0.2612
     75  O         31.6640   10.0250   10.3260 O.2    87  GLY87      -0.2717
     76  N         30.0710    9.6700   11.9240 N.am   88  GLU88      -0.1965
     77  CA        30.3990    8.3000   12.0710 C.3    88  GLU88       0.1733
     78  C         29.9490    7.5650   10.7730 C.2    88  GLU88       0.2616
     79  O         28.9360    7.8790   10.2050 O.2    88  GLU88      -0.2715
     80  CB        29.5970    7.7310   13.2660 C.3    88  GLU88       0.0429
     81  CG        30.0070    6.3850   13.7550 C.3    88  GLU88       0.1163
     82  CD        29.8980    6.3760   15.2520 C.2    88  GLU88       0.3649
     83  OE1       28.7330    6.3810   15.7770 O.co2  88  GLU88      -0.2457
     84  OE2       30.9660    6.4710   15.8790 O.co2  88  GLU88      -0.2457
     85  N         30.7370    6.6290   10.2980 N.am   89  LEU89      -0.1963
     86  CA        30.4470    5.9060    9.0950 C.3    89  LEU89       0.1728
     87  C         29.5320    4.7410    9.4340 C.2    89  LEU89       0.2616
     88  O         29.8770    3.9810   10.2480 O.2    89  LEU89      -0.2715
     89  CB        31.7540    5.3260    8.5400 C.3    89  LEU89       0.0311
     90  CG        31.7370    4.4750    7.2760 C.3    89  LEU89       0.0022
     91  CD1       31.2650    5.3520    6.1220 C.3    89  LEU89       0.0001
     92  CD2       33.1130    4.0010    6.9170 C.3    89  LEU89       0.0001
     93  N         28.3850    4.5960    8.8000 N.am   90  TYR90      -0.1974
     94  CA        27.5730    3.3740    8.9860 C.3    90  TYR90       0.1639
     95  C         27.6020    2.4450    7.7500 C.2    90  TYR90       0.2290
     96  O         27.4760    2.9080    6.6670 O.2    90  TYR90      -0.2864
     97  CB        26.1740    3.7560    9.3900 C.3    90  TYR90       0.0560
     98  CG        26.1590    4.7650   10.5540 C.ar   90  TYR90      -0.0198
     99  CD1       26.6560    4.4300   11.7840 C.ar   90  TYR90      -0.0009
    100  CD2       25.6090    6.0210   10.4100 C.ar   90  TYR90      -0.0009
    101  CE1       26.6380    5.3440   12.8510 C.ar   90  TYR90       0.0417
    102  CE2       25.5560    6.9120   11.4750 C.ar   90  TYR90       0.0417
    103  CZ        26.0530    6.5500   12.7000 C.ar   90  TYR90       0.1957
    104  OH        26.0420    7.4590   13.7620 O.3    90  TYR90      -0.2866
    105  N         20.7330    1.0250    3.8420 N.3    94  GLU94      -0.1245
    106  CA        19.4610    1.5900    4.2560 C.3    94  GLU94       0.1567
    107  C         18.4520    0.5590    4.8070 C.2    94  GLU94       0.2260
    108  O         18.3540   -0.5980    4.3510 O.2    94  GLU94      -0.2867
    109  CB        18.8040    2.2650    3.0810 C.3    94  GLU94       0.0388
    110  CG        19.6320    3.2570    2.3690 C.3    94  GLU94       0.1160
    111  CD        19.0160    3.6630    1.0600 C.2    94  GLU94       0.3649
    112  OE1       17.9970    3.0900    0.6190 O.co2  94  GLU94      -0.2457
    113  OE2       19.5410    4.5760    0.4770 O.co2  94  GLU94      -0.2457
    114  N         14.7970    4.9970    3.5260 N.3   137  GLU137     -0.1231
    115  CA        16.0370    5.3210    2.8000 C.3   137  GLU137      0.1699
    116  C         16.8280    6.2600    3.6340 C.2   137  GLU137      0.2592
    117  O         17.9780    6.3280    3.4010 O.2   137  GLU137     -0.2718
    118  CB        15.7810    5.9320    1.4370 C.3   137  GLU137      0.0402
    119  CG        15.0960    4.9930    0.4360 C.3   137  GLU137      0.1161
    120  CD        13.5490    4.9880    0.5320 C.2   137  GLU137      0.3649
    121  OE1       12.8630    5.3530    1.5750 O.co2 137  GLU137     -0.2457
    122  OE2       13.0080    4.5680   -0.5010 O.co2 137  GLU137     -0.2457
    123  N         16.2570    6.8940    4.6680 N.am  138  ASN138     -0.1974
    124  CA        17.0000    7.8780    5.4970 C.3   138  ASN138      0.1688
    125  C         17.2150    7.3020    6.8680 C.2   138  ASN138      0.2292
    126  O         17.4480    8.0460    7.8420 O.2   138  ASN138     -0.2864
    127  CB        16.2790    9.2660    5.5890 C.3   138  ASN138      0.1181
    128  CG        16.4380   10.0760    4.3690 C.2   138  ASN138      0.2629
    129  OD1       17.4080    9.8720    3.6200 O.2   138  ASN138     -0.2716
    130  ND2       15.4820   10.9520    4.0810 N.am  138  ASN138     -0.0877
    131  N         19.7790    4.2190    8.4850 N.3   140  LEU140     -0.1245
    132  CA        20.8670    3.3230    8.0880 C.3   140  LEU140      0.1561
    133  C         21.0300    2.3270    9.2170 C.2   140  LEU140      0.2260
    134  O         20.7520    2.6480   10.3620 O.2   140  LEU140     -0.2867
    135  CB        22.1900    4.0930    7.9290 C.3   140  LEU140      0.0270
    136  CG        22.2400    5.1960    6.8440 C.3   140  LEU140      0.0019
    137  CD1       23.7000    5.5940    6.6030 C.3   140  LEU140      0.0001
    138  CD2       21.6580    4.6730    5.5330 C.3   140  LEU140      0.0001
    139  N         19.3690    9.4670    9.6350 N.3   153  ILE153     -0.1231
    140  CA        20.2850   10.3580    8.9200 C.3   153  ILE153      0.1692
    141  C         19.4970   11.4300    8.1810 C.2   153  ILE153      0.2592
    142  O         18.2920   11.3870    8.1980 O.2   153  ILE153     -0.2718
    143  CB        21.2500    9.6380    7.9400 C.3   153  ILE153      0.0266
    144  CG1       20.4870    8.9140    6.8090 C.3   153  ILE153      0.0019
    145  CG2       22.1030    8.6630    8.7070 C.3   153  ILE153      0.0020
    146  CD1       21.3730    8.7110    5.5720 C.3   153  ILE153      0.0001
    147  N         20.2030   12.4070    7.5900 N.am  154  ASP154     -0.1974
    148  CA        19.6530   13.3130    6.5770 C.3   154  ASP154      0.1709
    149  C         18.5960   14.2790    7.1320 C.2   154  ASP154      0.2293
    150  O         17.4650   14.2460    6.7380 O.2   154  ASP154     -0.2864
    151  CB        19.0630   12.5090    5.4350 C.3   154  ASP154      0.1436
    152  CG        18.8420   13.3690    4.1710 C.2   154  ASP154      0.3671
    153  OD1       19.3430   14.4890    4.0800 O.co2 154  ASP154     -0.2456
    154  OD2       18.1270   12.9340    3.2740 O.co2 154  ASP154     -0.2456
@<TRIPOS>BOND
     1    21    20    1
     2    19    20    1
     3    19    18    1
     4    18    17    1
     5    17    14    1
     6    16    15    2
     7    14    15    1
     8    14    13    1
     9    15    22   am
    10    13    11   am
    11    25    24    2
    12    11    10    1
    13    11    12    2
    14    10     9    1
    15    24    23    1
    16    24    26   am
    17    22    23    1
    18     4     3    2
    19     9     3   am
    20     3     2    1
    21    29    28    2
    22     1     2    1
    23    27    26    1
    24    27    28    1
    25    27    30    1
    26     2     5    1
    27    28    32   am
    28    31    30    1
    29   122   120   ar
    30    46    45    2
    31    43    44    1
    32    32    33    1
    33    34    33    1
    34    34    35    2
    35   119   120    1
    36   119   118    1
    37   113   111   ar
    38    33    36    1
    39    45    44    1
    40   120   121   ar
    41     5     6    1
    42   112   111   ar
    43    44    47    1
    44   111   110    1
    45     8     6    1
    46     6     7    1
    47   118   115    1
    48    47    49    1
    49    47    48    1
    50    38    40   ar
    51    38    37   ar
    52    36    37    1
    53    40    42   ar
    54    37    39   ar
    55   110   109    1
    56    42    41   ar
    57    39    41   ar
    58   115   114    1
    59   115   116    1
    60   109   106    1
    61   154   152   ar
    62    60    61    1
    63    60    59    1
    64   117   116    2
    65    57    56    1
    66    57    58    2
    67   129   128    2
    68   116   123   am
    69    62    61    1
    70    62    63    1
    71    56    59    1
    72    56    55    1
    73   105   106    1
    74   153   152   ar
    75   130   128   am
    76   152   151    1
    77   106   107    1
    78   108   107    2
    79   128   127    1
    80   123   124    1
    81   151   148    1
    82   124   127    1
    83   124   125    1
    84   138   136    1
    85   146   144    1
    86    91    90    1
    87    51    52    1
    88    51    54    1
    89    51    50    1
    90    52    53    2
    91   148   149    1
    92   148   147    1
    93   137   136    1
    94    96    95    2
    95   150   149    2
    96   144   143    1
    97   136   135    1
    98   125   126    2
    99    92    90    1
   100    90    89    1
   101   147   141   am
   102    95    94    1
   103   135   132    1
   104   143   145    1
   105   143   140    1
   106   132   131    1
   107   132   133    1
   108   141   142    2
   109   141   140    1
   110    89    86    1
   111    93    94    1
   112    93    87   am
   113   140   139    1
   114    94    97    1
   115    86    87    1
   116    86    85    1
   117   133   134    2
   118    97    98    1
   119    87    88    2
   120    70    71    1
   121    70    69    1
   122    72    73    1
   123    79    78    2
   124    85    78   am
   125    75    74    2
   126   100    98   ar
   127   100   102   ar
   128    98    99   ar
   129    78    77    1
   130    73    74    1
   131    74    76   am
   132   102   103   ar
   133    69    68    1
   134    99   101   ar
   135    68    65    1
   136    76    77    1
   137    77    80    1
   138   103   101   ar
   139   103   104    1
   140    80    81    1
   141    65    64    1
   142    65    66    1
   143    81    82    1
   144    66    67    2
   145    82    83   ar
   146    82    84   ar
