@<TRIPOS>MOLECULE
tmp/4y5sB00.pdb
 135 125 0 0 0
SMALL
GASTEIGER

@<TRIPOS>ATOM
      1  N        108.4380  -18.7970  139.9730 N.3   110  PHE110     -0.1241
      2  CA       108.3040  -20.2400  140.1480 C.3   110  PHE110      0.1605
      3  C        107.6050  -20.5980  141.4490 C.2   110  PHE110      0.2264
      4  O        107.5500  -19.7930  142.3750 O.2   110  PHE110     -0.2867
      5  CB       109.6830  -20.9080  140.0900 C.3   110  PHE110      0.0534
      6  CG       110.6290  -20.4260  141.1480 C.ar  110  PHE110     -0.0203
      7  CD1      111.3850  -19.2830  140.9500 C.ar  110  PHE110     -0.0042
      8  CD2      110.7560  -21.1090  142.3440 C.ar  110  PHE110     -0.0042
      9  CE1      112.2520  -18.8360  141.9250 C.ar  110  PHE110     -0.0003
     10  CE2      111.6200  -20.6660  143.3200 C.ar  110  PHE110     -0.0003
     11  CZ       112.3680  -19.5290  143.1120 C.ar  110  PHE110     -0.0000
     12  N        107.2000  -22.9460  144.8880 N.3   112  ARG112     -0.1245
     13  CA       107.8340  -23.8400  145.8460 C.3   112  ARG112      0.1563
     14  C        106.8070  -24.3210  146.8680 C.2   112  ARG112      0.2260
     15  O        106.0530  -23.5300  147.4270 O.2   112  ARG112     -0.2867
     16  CB       109.0090  -23.1480  146.5310 C.3   112  ARG112      0.0307
     17  CG       110.3380  -23.4440  145.8520 C.3   112  ARG112      0.0489
     18  CD       111.5200  -23.1770  146.7630 C.3   112  ARG112      0.2205
     19  NE       111.9330  -24.3730  147.4930 N.pl3 112  ARG112     -0.0865
     20  CZ       113.0230  -24.4450  148.2500 C.cat 112  ARG112      0.5346
     21  NH1      113.8140  -23.3870  148.3810 N.pl3 112  ARG112      0.1354
     22  NH2      113.3220  -25.5740  148.8770 N.pl3 112  ARG112      0.1354
     23  N        106.4630  -26.3420  150.4610 N.3   114  ILE114     -0.1245
     24  CA       107.2020  -26.8360  151.6170 C.3   114  ILE114      0.1561
     25  C        106.2950  -27.7140  152.4720 C.2   114  ILE114      0.2260
     26  O        105.3220  -27.2380  153.0510 O.2   114  ILE114     -0.2867
     27  CB       107.7670  -25.6860  152.4650 C.3   114  ILE114      0.0252
     28  CG1      108.4590  -24.6510  151.5760 C.3   114  ILE114      0.0019
     29  CG2      108.6940  -26.2260  153.5480 C.3   114  ILE114      0.0019
     30  CD1      109.5400  -25.2310  150.6790 C.3   114  ILE114      0.0001
     31  N        114.7860  -22.6530  156.4000 N.3   121  GLN121     -0.1245
     32  CA       115.9200  -22.2710  155.5660 C.3   121  GLN121      0.1566
     33  C        116.9510  -21.5390  156.4110 C.2   121  GLN121      0.2260
     34  O        116.5990  -20.8850  157.3950 O.2   121  GLN121     -0.2867
     35  CB       115.4700  -21.3720  154.4100 C.3   121  GLN121      0.0367
     36  CG       115.1150  -22.0910  153.1280 C.3   121  GLN121      0.0905
     37  CD       114.7020  -21.1260  152.0350 C.2   121  GLN121      0.2608
     38  OE1      114.1560  -20.0600  152.3160 O.2   121  GLN121     -0.2717
     39  NE2      114.9600  -21.4930  150.7850 N.am  121  GLN121     -0.0878
     40  N        119.6480  -15.7780  154.5820 N.3   124  HIS124     -0.1241
     41  CA       120.3910  -15.4950  153.3640 C.3   124  HIS124      0.1621
     42  C        119.9610  -14.1900  152.7150 C.2   124  HIS124      0.2264
     43  O        118.8970  -13.6460  153.0140 O.2   124  HIS124     -0.2867
     44  CB       120.2090  -16.6260  152.3540 C.3   124  HIS124      0.0745
     45  CG       118.8130  -16.7340  151.8260 C.ar  124  HIS124      0.0817
     46  ND1      117.8040  -17.3760  152.5090 N.ar  124  HIS124     -0.2268
     47  CD2      118.2440  -16.2380  150.6990 C.ar  124  HIS124      0.1154
     48  CE1      116.6830  -17.2980  151.8130 C.ar  124  HIS124      0.1986
     49  NE2      116.9200  -16.6070  150.7120 N.ar  124  HIS124     -0.2212
     50  N        119.1310  -12.9010  148.8150 N.3   126  ASP126     -0.1239
     51  CA       118.8370  -13.4310  147.4890 C.3   126  ASP126      0.1674
     52  C        119.7600  -12.8200  146.4430 C.2   126  ASP126      0.2266
     53  O        119.3170  -12.0810  145.5650 O.2   126  ASP126     -0.2867
     54  CB       117.3760  -13.1700  147.1180 C.3   126  ASP126      0.1410
     55  CG       116.4070  -13.9330  147.9980 C.2   126  ASP126      0.3668
     56  OD1      116.8170  -14.9520  148.5940 O.co2 126  ASP126     -0.2456
     57  OD2      115.2340  -13.5140  148.0960 O.co2 126  ASP126     -0.2456
     58  N        106.9040  -11.9230  146.8540 N.3   148  ILE148     -0.1245
     59  CA       106.4880  -13.2280  147.3590 C.3   148  ILE148      0.1561
     60  C        104.9730  -13.3750  147.5130 C.2   148  ILE148      0.2260
     61  O        104.3350  -12.6660  148.2920 O.2   148  ILE148     -0.2867
     62  CB       107.1620  -13.5080  148.7050 C.3   148  ILE148      0.0252
     63  CG1      108.6730  -13.6220  148.5040 C.3   148  ILE148      0.0019
     64  CG2      106.5770  -14.7560  149.3500 C.3   148  ILE148      0.0019
     65  CD1      109.4750  -13.1890  149.6970 C.3   148  ILE148      0.0001
     66  N        100.0910  -18.1680  155.3240 N.3   154  PHE154     -0.1241
     67  CA       101.3870  -18.2500  155.9800 C.3   154  PHE154      0.1605
     68  C        101.1890  -18.0770  157.4740 C.2   154  PHE154      0.2264
     69  O        100.8490  -16.9920  157.9350 O.2   154  PHE154     -0.2867
     70  CB       102.3430  -17.1770  155.4540 C.3   154  PHE154      0.0534
     71  CG       103.0410  -17.5530  154.1840 C.ar  154  PHE154     -0.0203
     72  CD1      102.5270  -18.5410  153.3600 C.ar  154  PHE154     -0.0042
     73  CD2      104.1980  -16.8970  153.7980 C.ar  154  PHE154     -0.0042
     74  CE1      103.1650  -18.8800  152.1780 C.ar  154  PHE154     -0.0003
     75  CE2      104.8420  -17.2290  152.6190 C.ar  154  PHE154     -0.0003
     76  CZ       104.3270  -18.2210  151.8080 C.ar  154  PHE154     -0.0000
     77  N        107.4390  -16.8700  156.1220 N.3   161  THR161     -0.1218
     78  CA       108.7550  -16.3330  155.7880 C.3   161  THR161      0.1862
     79  C        109.2980  -15.4660  156.9040 C.2   161  THR161      0.2287
     80  O        108.6110  -14.5760  157.4020 O.2   161  THR161     -0.2866
     81  CB       108.7170  -15.4880  154.5070 C.3   161  THR161      0.1770
     82  OG1      108.0640  -16.2200  153.4630 O.3   161  THR161     -0.2211
     83  CG2      110.1200  -15.1170  154.0750 C.3   161  THR161      0.0375
     84  N        116.8100  -12.8980  155.1000 N.3   200  HIS200     -0.1241
     85  CA       115.5530  -13.5820  155.3710 C.3   200  HIS200      0.1621
     86  C        115.6820  -15.0920  155.2180 C.2   200  HIS200      0.2264
     87  O        116.7580  -15.5940  154.9090 O.2   200  HIS200     -0.2867
     88  CB       114.4710  -13.0710  154.4340 C.3   200  HIS200      0.0745
     89  CG       114.7180  -13.4220  153.0070 C.ar  200  HIS200      0.0817
     90  ND1      115.6580  -12.7790  152.2320 N.ar  200  HIS200     -0.2268
     91  CD2      114.1670  -14.3780  152.2200 C.ar  200  HIS200      0.1154
     92  CE1      115.6610  -13.3120  151.0230 C.ar  200  HIS200      0.1986
     93  NE2      114.7640  -14.2830  150.9900 N.ar  200  HIS200     -0.2212
     94  N        113.0480  -18.9710  154.5020 N.3   202  GLY202     -0.1225
     95  CA       111.8230  -19.7440  154.4920 C.3   202  GLY202      0.1811
     96  C        111.6200  -20.3160  155.8770 C.2   202  GLY202      0.2280
     97  O        112.5790  -20.6960  156.5400 O.2   202  GLY202     -0.2866
     98  N        102.8950  -25.8190  152.6070 N.3   213  ARG213     -0.1245
     99  CA       102.8730  -24.3840  152.3830 C.3   213  ARG213      0.1563
    100  C        103.2500  -24.1560  150.9350 C.2   213  ARG213      0.2260
    101  O        104.1790  -24.7800  150.4250 O.2   213  ARG213     -0.2867
    102  CB       103.8220  -23.6530  153.3360 C.3   213  ARG213      0.0307
    103  CG       103.6930  -22.1400  153.3050 C.3   213  ARG213      0.0489
    104  CD       104.5350  -21.4690  154.3860 C.3   213  ARG213      0.2205
    105  NE       105.9360  -21.8890  154.3610 N.pl3 213  ARG213     -0.0865
    106  CZ       106.9110  -21.2370  153.7310 C.cat 213  ARG213      0.5346
    107  NH1      106.6480  -20.1190  153.0650 N.pl3 213  ARG213      0.1354
    108  NH2      108.1560  -21.6980  153.7740 N.pl3 213  ARG213      0.1354
    109  N        104.1010  -21.3140  147.8930 N.3   215  VAL215     -0.1245
    110  CA       104.5130  -19.9420  147.6280 C.3   215  VAL215      0.1561
    111  C        105.0650  -19.7580  146.2120 C.2   215  VAL215      0.2260
    112  O        105.8240  -20.5920  145.7140 O.2   215  VAL215     -0.2867
    113  CB       105.5630  -19.4870  148.6580 C.3   215  VAL215      0.0252
    114  CG1      106.7380  -20.4570  148.6950 C.3   215  VAL215      0.0019
    115  CG2      106.0230  -18.0800  148.3610 C.3   215  VAL215      0.0019
    116  N        107.4670  -17.3510  144.0710 N.3   217  LEU217     -0.1245
    117  CA       108.4600  -16.3000  144.1770 C.3   217  LEU217      0.1561
    118  C        108.7250  -15.6760  142.8110 C.2   217  LEU217      0.2260
    119  O        108.9850  -16.3730  141.8350 O.2   217  LEU217     -0.2867
    120  CB       109.7530  -16.8460  144.7850 C.3   217  LEU217      0.0270
    121  CG       109.5830  -17.4320  146.1900 C.3   217  LEU217      0.0019
    122  CD1      109.7170  -18.9520  146.1720 C.3   217  LEU217      0.0001
    123  CD2      110.5560  -16.8140  147.1800 C.3   217  LEU217      0.0001
    124  N        111.1390  -12.8000  140.9880 N.3   219  TYR219     -0.1241
    125  CA       112.3040  -11.9450  141.1240 C.3   219  TYR219      0.1605
    126  C        112.3360  -10.9470  139.9790 C.2   219  TYR219      0.2264
    127  O        112.5500  -11.3170  138.8260 O.2   219  TYR219     -0.2867
    128  CB       113.5810  -12.7870  141.1570 C.3   219  TYR219      0.0534
    129  CG       113.6650  -13.7070  142.3570 C.ar  219  TYR219     -0.0201
    130  CD1      113.3460  -13.2500  143.6310 C.ar  219  TYR219     -0.0009
    131  CD2      114.0450  -15.0360  142.2160 C.ar  219  TYR219     -0.0009
    132  CE1      113.4180  -14.0920  144.7350 C.ar  219  TYR219      0.0417
    133  CE2      114.1190  -15.8840  143.3140 C.ar  219  TYR219      0.0417
    134  CZ       113.8050  -15.4080  144.5710 C.ar  219  TYR219      0.1957
    135  OH       113.8760  -16.2450  145.6640 O.3   219  TYR219     -0.2866
@<TRIPOS>BOND
     1   127   126    2
     2     1     2    1
     3   126   125    1
     4     5     2    1
     5     5     6    1
     6     2     3    1
     7     7     6   ar
     8     7     9   ar
     9   124   125    1
    10   125   128    1
    11     6     8   ar
    12   128   129    1
    13     3     4    2
    14   119   118    2
    15     9    11   ar
    16   131   129   ar
    17   131   133   ar
    18     8    10   ar
    19   129   130   ar
    20   118   117    1
    21    11    10   ar
    22   133   134   ar
    23   130   132   ar
    24   116   117    1
    25   117   120    1
    26   134   132   ar
    27   134   135    1
    28   120   121    1
    29    12    13    1
    30    53    52    2
    31   112   111    2
    32    13    16    1
    33    13    14    1
    34    17    16    1
    35    17    18    1
    36   122   121    1
    37   121   123    1
    38   111   110    1
    39    52    51    1
    40    18    19    1
    41    58    59    1
    42    14    15    2
    43    54    51    1
    44    54    55    1
    45    59    60    1
    46    59    62    1
    47    51    50    1
    48    19    20    2
    49    60    61    2
    50   110   109    1
    51   110   113    1
    52    55    57   ar
    53    55    56   ar
    54    20    21    1
    55    20    22    1
    56   115   113    1
    57    63    62    1
    58    63    65    1
    59   113   114    1
    60    62    64    1
    61   101   100    2
    62    23    24    1
    63    30    28    1
    64    47    49   ar
    65    47    45   ar
    66    49    48   ar
    67    39    37   am
    68   100    99    1
    69    93    92   ar
    70    93    91   ar
    71    92    90   ar
    72    28    27    1
    73    24    27    1
    74    24    25    1
    75    76    74   ar
    76    76    75   ar
    77    48    46   ar
    78    45    44    1
    79    45    46   ar
    80    37    38    2
    81    37    36    1
    82    74    72   ar
    83    91    89   ar
    84    90    89   ar
    85    44    41    1
    86    99    98    1
    87    99   102    1
    88    27    29    1
    89    25    26    2
    90    75    73   ar
    91    42    43    2
    92    42    41    1
    93    89    88    1
    94   107   106    1
    95    36    35    1
    96   103   102    1
    97   103   104    1
    98    72    71   ar
    99    41    40    1
   100    82    81    1
   101   106   108    1
   102   106   105    2
   103    73    71   ar
   104    83    81    1
   105    71    70    1
   106   105   104    1
   107    35    32    1
   108    88    85    1
   109    95    94    1
   110    95    96    1
   111    81    78    1
   112    87    86    2
   113    84    85    1
   114    86    85    1
   115    66    67    1
   116    70    67    1
   117    32    31    1
   118    32    33    1
   119    78    77    1
   120    78    79    1
   121    96    97    2
   122    67    68    1
   123    33    34    2
   124    79    80    2
   125    68    69    2
