@<TRIPOS>MOLECULE
tmp/4y5tB00.pdb
 92 91 0 0 0
SMALL
GASTEIGER

@<TRIPOS>ATOM
      1  N         57.7250  -29.1240  138.3670 N.3    59  LEU59      -0.1245
      2  CA        57.5800  -28.7690  139.7680 C.3    59  LEU59       0.1561
      3  C         57.1500  -29.9860  140.6050 C.2    59  LEU59       0.2260
      4  O         57.7820  -30.3150  141.6120 O.2    59  LEU59      -0.2867
      5  CB        56.5820  -27.6080  139.8970 C.3    59  LEU59       0.0270
      6  CG        56.5110  -26.7670  141.1780 C.3    59  LEU59       0.0019
      7  CD1       55.6700  -25.5210  140.9300 C.3    59  LEU59       0.0001
      8  CD2       55.9580  -27.5300  142.3390 C.3    59  LEU59       0.0001
      9  N         58.4860  -32.9320  144.6890 N.3    63  TYR63      -0.1241
     10  CA        57.8550  -33.0000  146.0020 C.3    63  TYR63       0.1605
     11  C         57.1810  -34.3540  146.2220 C.2    63  TYR63       0.2264
     12  O         56.9430  -35.0880  145.2620 O.2    63  TYR63      -0.2867
     13  CB        56.8620  -31.8460  146.1540 C.3    63  TYR63       0.0534
     14  CG        57.5450  -30.4990  146.1120 C.ar   63  TYR63      -0.0201
     15  CD1       58.3130  -30.0580  147.1830 C.ar   63  TYR63      -0.0009
     16  CD2       57.4440  -29.6820  145.0000 C.ar   63  TYR63      -0.0009
     17  CE1       58.9510  -28.8320  147.1510 C.ar   63  TYR63       0.0417
     18  CE2       58.0790  -28.4530  144.9570 C.ar   63  TYR63       0.0417
     19  CZ        58.8300  -28.0330  146.0370 C.ar   63  TYR63       0.1957
     20  OH        59.4630  -26.8110  145.9970 O.3    63  TYR63      -0.2866
     21  N         59.8270  -17.4070  155.0610 N.3   124  HIS124     -0.1226
     22  CA        60.6300  -17.0540  153.9090 C.3   124  HIS124      0.1752
     23  C         60.0960  -15.8010  153.2350 C.2   124  HIS124      0.2596
     24  O         59.0210  -15.2990  153.5800 O.2   124  HIS124     -0.2718
     25  CB        60.6310  -18.2000  152.9070 C.3   124  HIS124      0.0759
     26  CG        59.2840  -18.4630  152.3220 C.ar  124  HIS124      0.0818
     27  ND1       58.3200  -19.2070  152.9710 N.ar  124  HIS124     -0.2268
     28  CD2       58.7250  -18.0550  151.1590 C.ar  124  HIS124      0.1154
     29  CE1       57.2300  -19.2560  152.2270 C.ar  124  HIS124      0.1986
     30  NE2       57.4520  -18.5680  151.1200 N.ar  124  HIS124     -0.2212
     31  N         60.8530  -15.3280  152.2520 N.am  125  ARG125     -0.1966
     32  CA        60.4250  -14.2800  151.3370 C.3   125  ARG125      0.1729
     33  C         60.2390  -14.9040  149.9590 C.2   125  ARG125      0.2616
     34  O         60.9310  -15.8650  149.6180 O.2   125  ARG125     -0.2715
     35  CB        61.4580  -13.1550  151.2850 C.3   125  ARG125      0.0348
     36  CG        61.5200  -12.3170  152.5550 C.3   125  ARG125      0.0492
     37  CD        62.7060  -11.3620  152.5480 C.3   125  ARG125      0.2205
     38  NE        62.4710  -10.2290  153.4400 N.pl3 125  ARG125     -0.0865
     39  CZ        63.4210   -9.4510  153.9470 C.cat 125  ARG125      0.5346
     40  NH1       64.6970   -9.6840  153.6870 N.pl3 125  ARG125      0.1354
     41  NH2       63.0880   -8.4490  154.7410 N.pl3 125  ARG125      0.1354
     42  N         59.3170  -14.3640  149.1680 N.am  126  ASP126     -0.1957
     43  CA        59.0820  -14.8760  147.8160 C.3   126  ASP126      0.1840
     44  C         60.0830  -14.3130  146.8140 C.2   126  ASP126      0.2622
     45  O         59.7250  -13.5140  145.9530 O.2   126  ASP126     -0.2715
     46  CB        57.6530  -14.5570  147.3630 C.3   126  ASP126      0.1450
     47  CG        56.6280  -15.4140  148.0590 C.2   126  ASP126      0.3671
     48  OD1       57.0540  -16.4320  148.6360 O.co2 126  ASP126     -0.2456
     49  OD2       55.4190  -15.0810  148.0340 O.co2 126  ASP126     -0.2456
     50  N         61.3340  -14.7510  146.9170 N.am  127  ASP127     -0.1957
     51  CA        62.3940  -14.2340  146.0560 C.3   127  ASP127      0.1840
     52  C         63.1970  -15.3580  145.4020 C.2   127  ASP127      0.2622
     53  O         64.3660  -15.1760  145.0780 O.2   127  ASP127     -0.2715
     54  CB        63.3300  -13.3100  146.8540 C.3   127  ASP127      0.1450
     55  CG        63.9970  -14.0120  148.0380 C.2   127  ASP127      0.3671
     56  OD1       63.8270  -15.2410  148.1960 O.co2 127  ASP127     -0.2456
     57  OD2       64.6860  -13.3250  148.8260 O.co2 127  ASP127     -0.2456
     58  N         62.5700  -16.5170  145.2230 N.am  128  ALA128     -0.1963
     59  CA        63.2750  -17.6930  144.7090 C.3   128  ALA128      0.1728
     60  C         63.0860  -17.9130  143.2080 C.2   128  ALA128      0.2616
     61  O         63.9910  -18.4030  142.5340 O.2   128  ALA128     -0.2715
     62  CB        62.8360  -18.9430  145.4750 C.3   128  ALA128      0.0334
     63  N         61.9110  -17.5820  142.6830 N.am  129  THR129     -0.1951
     64  CA        61.6490  -17.7840  141.2620 C.3   129  THR129      0.1897
     65  C         62.5450  -16.9000  140.4020 C.2   129  THR129      0.2313
     66  O         63.0800  -17.3400  139.3830 O.2   129  THR129     -0.2863
     67  CB        60.1840  -17.5000  140.9180 C.3   129  THR129      0.1794
     68  OG1       59.3410  -18.2890  141.7650 O.3   129  THR129     -0.2208
     69  CG2       59.9070  -17.8460  139.4640 C.3   129  THR129      0.0378
     70  N         50.9900  -14.4380  141.1510 N.3   219  TYR219     -0.1241
     71  CA        52.1290  -13.5430  141.2700 C.3   219  TYR219      0.1605
     72  C         52.0510  -12.5470  140.1400 C.2   219  TYR219      0.2264
     73  O         52.1170  -12.9150  138.9650 O.2   219  TYR219     -0.2867
     74  CB        53.4650  -14.2960  141.2030 C.3   219  TYR219      0.0534
     75  CG        53.7870  -15.1540  142.4050 C.ar  219  TYR219     -0.0201
     76  CD1       54.1680  -14.5780  143.6110 C.ar  219  TYR219     -0.0009
     77  CD2       53.7230  -16.5390  142.3320 C.ar  219  TYR219     -0.0009
     78  CE1       54.4690  -15.3610  144.7160 C.ar  219  TYR219      0.0417
     79  CE2       54.0210  -17.3330  143.4320 C.ar  219  TYR219      0.0417
     80  CZ        54.3930  -16.7380  144.6190 C.ar  219  TYR219      0.1957
     81  OH        54.6880  -17.5220  145.7100 O.3   219  TYR219     -0.2866
     82  N         57.0150  -16.9560  134.8680 N.3   228  PHE228     -0.1241
     83  CA        57.2890  -18.3500  135.2070 C.3   228  PHE228      0.1605
     84  C         56.5180  -19.2550  134.2520 C.2   228  PHE228      0.2264
     85  O         57.0890  -20.1310  133.6080 O.2   228  PHE228     -0.2867
     86  CB        56.8850  -18.6400  136.6610 C.3   228  PHE228      0.0534
     87  CG        57.1220  -20.0670  137.0930 C.ar  228  PHE228     -0.0203
     88  CD1       58.4120  -20.5470  137.2610 C.ar  228  PHE228     -0.0042
     89  CD2       56.0600  -20.9210  137.3460 C.ar  228  PHE228     -0.0042
     90  CE1       58.6390  -21.8550  137.6720 C.ar  228  PHE228     -0.0003
     91  CE2       56.2800  -22.2350  137.7510 C.ar  228  PHE228     -0.0003
     92  CZ        57.5730  -22.7010  137.9120 C.ar  228  PHE228     -0.0000
@<TRIPOS>BOND
     1    85    84    2
     2    84    83    1
     3    82    83    1
     4    83    86    1
     5    86    87    1
     6    87    88   ar
     7    87    89   ar
     8    88    90   ar
     9    89    91   ar
    10    90    92   ar
    11    91    92   ar
    12     1     2    1
    13    73    72    2
    14    66    65    2
    15    69    67    1
    16     2     5    1
    17     2     3    1
    18     5     6    1
    19    72    71    1
    20    65    64    1
    21     3     4    2
    22    67    64    1
    23    67    68    1
    24     7     6    1
    25    70    71    1
    26     6     8    1
    27    74    71    1
    28    74    75    1
    29    64    63    1
    30    77    75   ar
    31    77    79   ar
    32    75    76   ar
    33    61    60    2
    34    63    60   am
    35    60    59    1
    36    79    80   ar
    37    76    78   ar
    38    80    78   ar
    39    80    81    1
    40     9    10    1
    41    59    58    1
    42    59    62    1
    43    18    16   ar
    44    18    19   ar
    45    16    14   ar
    46    53    52    2
    47    58    52   am
    48    12    11    2
    49    52    51    1
    50    45    44    2
    51    20    19    1
    52    10    13    1
    53    10    11    1
    54    19    17   ar
    55    51    54    1
    56    51    50    1
    57    14    13    1
    58    14    15   ar
    59    44    50   am
    60    44    43    1
    61    54    55    1
    62    17    15   ar
    63    46    43    1
    64    46    47    1
    65    43    42    1
    66    49    47   ar
    67    55    56   ar
    68    55    57   ar
    69    47    48   ar
    70    42    33   am
    71    34    33    2
    72    33    32    1
    73    30    28   ar
    74    30    29   ar
    75    28    26   ar
    76    35    32    1
    77    35    36    1
    78    32    31    1
    79    29    27   ar
    80    31    23   am
    81    26    25    1
    82    26    27   ar
    83    37    36    1
    84    37    38    1
    85    25    22    1
    86    23    24    2
    87    23    22    1
    88    38    39    2
    89    40    39    1
    90    22    21    1
    91    39    41    1
