@<TRIPOS>MOLECULE
tmp/4y5xK00.pdb
 96 91 0 0 0
SMALL
GASTEIGER

@<TRIPOS>ATOM
      1  N        -47.0570   44.9840  -80.1230 N.3    38  GLN38      -0.1245
      2  CA       -46.0780   45.9590  -80.5780 C.3    38  GLN38       0.1566
      3  C        -46.0570   46.0360  -82.0910 C.2    38  GLN38       0.2260
      4  O        -46.0080   45.0100  -82.7680 O.2    38  GLN38      -0.2867
      5  CB       -44.6830   45.6110  -80.0650 C.3    38  GLN38       0.0367
      6  CG       -43.6060   46.5600  -80.5570 C.3    38  GLN38       0.0905
      7  CD       -42.2090   46.0650  -80.2630 C.2    38  GLN38       0.2608
      8  OE1      -41.8490   44.9430  -80.6160 O.2    38  GLN38      -0.2717
      9  NE2      -41.4140   46.8980  -79.6060 N.am   38  GLN38      -0.0878
     10  N        -43.7560   47.7650  -84.8300 N.3    40  LEU40      -0.1245
     11  CA       -42.6210   48.5220  -85.3330 C.3    40  LEU40       0.1561
     12  C        -43.0140   49.2020  -86.6400 C.2    40  LEU40       0.2260
     13  O        -43.7820   48.6390  -87.4190 O.2    40  LEU40      -0.2867
     14  CB       -41.4190   47.6010  -85.5310 C.3    40  LEU40       0.0270
     15  CG       -40.8400   47.0220  -84.2410 C.3    40  LEU40       0.0019
     16  CD1      -39.8920   45.8760  -84.5330 C.3    40  LEU40       0.0001
     17  CD2      -40.1230   48.1120  -83.4680 C.3    40  LEU40       0.0001
     18  N        -46.7530   42.4670  -83.5260 N.3    46  THR46      -0.1203
     19  CA       -46.3140   41.2510  -82.8550 C.3    46  THR46       0.1994
     20  C        -46.9610   41.1560  -81.4800 C.2    46  THR46       0.2618
     21  O        -47.2800   42.1740  -80.8650 O.2    46  THR46      -0.2717
     22  CB       -44.7850   41.1950  -82.6980 C.3    46  THR46       0.1784
     23  OG1      -44.3350   42.3590  -81.9980 O.3    46  THR46      -0.2211
     24  CG2      -44.1090   41.1460  -84.0490 C.3    46  THR46       0.0376
     25  N        -47.1820   39.9310  -81.0170 N.am   47  LEU47      -0.1965
     26  CA       -47.7050   39.6940  -79.6760 C.3    47  LEU47       0.1728
     27  C        -46.6720   40.0570  -78.6170 C.2    47  LEU47       0.2616
     28  O        -45.5930   39.4700  -78.5740 O.2    47  LEU47      -0.2715
     29  CB       -48.1230   38.2370  -79.5270 C.3    47  LEU47       0.0311
     30  CG       -48.6570   37.8070  -78.1670 C.3    47  LEU47       0.0022
     31  CD1      -49.8300   38.6730  -77.7670 C.3    47  LEU47       0.0001
     32  CD2      -49.0650   36.3510  -78.2280 C.3    47  LEU47       0.0001
     33  N        -47.0020   41.0240  -77.7660 N.am   48  LEU48      -0.1977
     34  CA       -46.0420   41.5520  -76.7990 C.3    48  LEU48       0.1596
     35  C        -46.2850   41.0380  -75.3810 C.2    48  LEU48       0.2287
     36  O        -45.3490   40.6240  -74.7030 O.2    48  LEU48      -0.2864
     37  CB       -46.0720   43.0780  -76.8070 C.3    48  LEU48       0.0297
     38  CG       -44.9650   43.7660  -76.0130 C.3    48  LEU48       0.0022
     39  CD1      -43.6150   43.4180  -76.6000 C.3    48  LEU48       0.0001
     40  CD2      -45.1700   45.2630  -76.0170 C.3    48  LEU48       0.0001
     41  N        -39.8970   34.6860  -76.4450 N.3    58  GLY58      -0.1210
     42  CA       -39.1420   35.4280  -77.4360 C.3    58  GLY58       0.1956
     43  C        -39.1770   36.9190  -77.1880 C.2    58  GLY58       0.2612
     44  O        -38.4420   37.6780  -77.8160 O.2    58  GLY58      -0.2717
     45  N        -40.0290   37.3410  -76.2600 N.am   59  VAL59      -0.1965
     46  CA       -40.1610   38.7550  -75.9380 C.3    59  VAL59       0.1727
     47  C        -39.1390   39.1400  -74.8770 C.2    59  VAL59       0.2616
     48  O        -38.8850   38.3720  -73.9520 O.2    59  VAL59      -0.2715
     49  CB       -41.5760   39.0870  -75.4360 C.3    59  VAL59       0.0290
     50  CG1      -41.7420   40.5830  -75.2640 C.3    59  VAL59       0.0023
     51  CG2      -42.6050   38.5640  -76.4070 C.3    59  VAL59       0.0023
     52  N        -38.5550   40.3260  -75.0180 N.am   60  SER60      -0.1950
     53  CA       -37.5320   40.8010  -74.0920 C.3    60  SER60       0.1924
     54  C        -38.0150   40.8420  -72.6540 C.2    60  SER60       0.2314
     55  O        -39.1990   41.0330  -72.3870 O.2    60  SER60      -0.2863
     56  CB       -37.0420   42.1900  -74.4950 C.3    60  SER60       0.2116
     57  OG       -36.0610   42.6570  -73.5830 O.3    60  SER60      -0.2180
     58  N        -37.4130   43.0530  -70.6510 N.3    62  ARG62      -0.1231
     59  CA       -37.6690   44.4430  -70.3040 C.3    62  ARG62       0.1694
     60  C        -39.1510   44.7850  -70.3840 C.2    62  ARG62       0.2592
     61  O        -39.5840   45.8170  -69.8730 O.2    62  ARG62      -0.2718
     62  CB       -36.8660   45.3740  -71.2130 C.3    62  ARG62       0.0321
     63  CG       -35.3620   45.2400  -71.0590 C.3    62  ARG62       0.0489
     64  CD       -34.6080   46.2390  -71.9230 C.3    62  ARG62       0.2205
     65  NE       -34.7650   45.9720  -73.3470 N.pl3  62  ARG62      -0.0865
     66  CZ       -35.5850   46.6420  -74.1490 C.cat  62  ARG62       0.5346
     67  NH1      -35.6600   46.3270  -75.4340 N.pl3  62  ARG62       0.1354
     68  NH2      -36.3290   47.6270  -73.6700 N.pl3  62  ARG62       0.1354
     69  N        -39.9250   43.9210  -71.0310 N.am   63  PHE63      -0.1976
     70  CA       -41.3630   44.1290  -71.1370 C.3    63  PHE63       0.1639
     71  C        -42.1180   43.3680  -70.0640 C.2    63  PHE63       0.2290
     72  O        -41.8200   42.2090  -69.7840 O.2    63  PHE63      -0.2864
     73  CB       -41.8600   43.7230  -72.5200 C.3    63  PHE63       0.0560
     74  CG       -41.4120   44.6440  -73.6070 C.ar   63  PHE63      -0.0200
     75  CD1      -42.1350   45.7830  -73.9060 C.ar   63  PHE63      -0.0042
     76  CD2      -40.2540   44.3880  -74.3120 C.ar   63  PHE63      -0.0042
     77  CE1      -41.7200   46.6400  -74.9000 C.ar   63  PHE63      -0.0003
     78  CE2      -39.8340   45.2420  -75.3050 C.ar   63  PHE63      -0.0003
     79  CZ       -40.5680   46.3700  -75.5990 C.ar   63  PHE63      -0.0000
     80  N        -34.4870   50.8430  -80.1240 N.3    82  GLU82      -0.1231
     81  CA       -35.1390   49.8060  -80.9130 C.3    82  GLU82       0.1699
     82  C        -36.5930   49.6050  -80.4910 C.2    82  GLU82       0.2592
     83  O        -37.3910   49.0600  -81.2490 O.2    82  GLU82      -0.2718
     84  CB       -34.3660   48.4870  -80.8220 C.3    82  GLU82       0.0402
     85  CG       -34.2330   47.9100  -79.4270 C.3    82  GLU82       0.1161
     86  CD       -33.5540   46.5520  -79.4320 C.2    82  GLU82       0.3649
     87  OE1      -33.1910   46.0760  -80.5280 O.co2  82  GLU82      -0.2457
     88  OE2      -33.3830   45.9590  -78.3450 O.co2  82  GLU82      -0.2457
     89  N        -36.9320   50.0470  -79.2830 N.am   83  ASP83      -0.1974
     90  CA       -38.2820   49.8750  -78.7460 C.3    83  ASP83       0.1709
     91  C        -39.2320   50.9460  -79.2560 C.2    83  ASP83       0.2293
     92  O        -40.4280   50.9190  -78.9650 O.2    83  ASP83      -0.2864
     93  CB       -38.2630   49.9110  -77.2160 C.3    83  ASP83       0.1436
     94  CG       -37.3790   48.8460  -76.6190 C.2    83  ASP83       0.3671
     95  OD1      -37.3020   47.7460  -77.2040 O.co2  83  ASP83      -0.2456
     96  OD2      -36.7580   49.1100  -75.5680 O.co2  83  ASP83      -0.2456
@<TRIPOS>BOND
     1    13    12    2
     2    12    11    1
     3    14    11    1
     4    14    15    1
     5    11    10    1
     6    16    15    1
     7    15    17    1
     8    24    22    1
     9    18    19    1
    10    19    22    1
    11    19    20    1
    12     4     3    2
    13    22    23    1
    14     3     2    1
    15    20    25   am
    16    20    21    2
    17    83    82    2
    18    25    26    1
    19    81    84    1
    20    81    82    1
    21    81    80    1
    22    84    85    1
    23     8     7    2
    24     2     1    1
    25     2     5    1
    26     6     7    1
    27     6     5    1
    28    87    86   ar
    29    82    89   am
    30     7     9   am
    31    26    29    1
    32    26    27    1
    33    29    30    1
    34    86    85    1
    35    86    88   ar
    36    89    90    1
    37    91    92    2
    38    91    90    1
    39    90    93    1
    40    27    28    2
    41    27    33   am
    42    32    30    1
    43    30    31    1
    44    44    43    2
    45    33    34    1
    46    42    43    1
    47    42    41    1
    48    93    94    1
    49    95    94   ar
    50    43    45   am
    51    37    34    1
    52    37    38    1
    53    34    35    1
    54    94    96   ar
    55    39    38    1
    56    51    49    1
    57    45    46    1
    58    40    38    1
    59    46    49    1
    60    46    47    1
    61    79    78   ar
    62    79    77   ar
    63    49    50    1
    64    67    66    1
    65    35    36    2
    66    78    76   ar
    67    52    47   am
    68    52    53    1
    69    77    75   ar
    70    47    48    2
    71    56    53    1
    72    56    57    1
    73    76    74   ar
    74    66    68    1
    75    66    65    2
    76    53    54    1
    77    75    74   ar
    78    74    73    1
    79    65    64    1
    80    54    55    2
    81    73    70    1
    82    64    63    1
    83    62    63    1
    84    62    59    1
    85    70    69    1
    86    70    71    1
    87    69    60   am
    88    58    59    1
    89    60    59    1
    90    60    61    2
    91    71    72    2
