@<TRIPOS>MOLECULE
tmp/4y5xB00.pdb
 81 76 0 0 0
SMALL
GASTEIGER

@<TRIPOS>ATOM
      1  N        -82.5760   43.1680  -18.8660 N.3    38  GLN38      -0.1245
      2  CA       -83.6880   43.9900  -18.4030 C.3    38  GLN38       0.1566
      3  C        -83.7490   44.0190  -16.8880 C.2    38  GLN38       0.2260
      4  O        -83.6780   42.9770  -16.2360 O.2    38  GLN38      -0.2867
      5  CB       -85.0200   43.4760  -18.9460 C.3    38  GLN38       0.0367
      6  CG       -86.2220   44.2540  -18.4250 C.3    38  GLN38       0.0905
      7  CD       -87.5450   43.5800  -18.7310 C.2    38  GLN38       0.2608
      8  OE1      -88.3800   44.1270  -19.4510 O.2    38  GLN38      -0.2717
      9  NE2      -87.7490   42.3910  -18.1730 N.am   38  GLN38      -0.0878
     10  N        -86.3190   45.3210  -14.1820 N.3    40  LEU40      -0.1245
     11  CA       -87.5660   45.8950  -13.7000 C.3    40  LEU40       0.1561
     12  C        -87.3140   46.6100  -12.3790 C.2    40  LEU40       0.2260
     13  O        -86.5100   46.1480  -11.5690 O.2    40  LEU40      -0.2867
     14  CB       -88.6250   44.8070  -13.5330 C.3    40  LEU40       0.0270
     15  CG       -89.0940   44.1510  -14.8290 C.3    40  LEU40       0.0019
     16  CD1      -89.8780   42.8850  -14.5380 C.3    40  LEU40       0.0001
     17  CD2      -89.9360   45.1310  -15.6260 C.3    40  LEU40       0.0001
     18  N        -82.1670   39.1910  -21.1790 N.3    48  LEU48      -0.1245
     19  CA       -83.1570   39.5870  -22.1750 C.3    48  LEU48       0.1561
     20  C        -82.7940   39.1010  -23.5710 C.2    48  LEU48       0.2260
     21  O        -83.6280   38.5330  -24.2730 O.2    48  LEU48      -0.2867
     22  CB       -83.3200   41.1060  -22.1880 C.3    48  LEU48       0.0270
     23  CG       -84.4730   41.6350  -23.0380 C.3    48  LEU48       0.0019
     24  CD1      -85.7960   41.1240  -22.4980 C.3    48  LEU48       0.0001
     25  CD2      -84.4560   43.1510  -23.0830 C.3    48  LEU48       0.0001
     26  N        -88.5440   31.9220  -22.6110 N.3    58  GLY58      -0.1210
     27  CA       -89.4260   32.5930  -21.6760 C.3    58  GLY58       0.1956
     28  C        -89.5700   34.0780  -21.9460 C.2    58  GLY58       0.2612
     29  O        -90.4030   34.7460  -21.3340 O.2    58  GLY58      -0.2717
     30  N        -88.7570   34.6010  -22.8570 N.am   59  VAL59      -0.1965
     31  CA       -88.8020   36.0230  -23.1790 C.3    59  VAL59       0.1727
     32  C        -89.8330   36.3090  -24.2710 C.2    59  VAL59       0.2616
     33  O        -89.9800   35.5360  -25.2180 O.2    59  VAL59      -0.2715
     34  CB       -87.4230   36.5390  -23.6280 C.3    59  VAL59       0.0290
     35  CG1      -87.4470   38.0490  -23.7940 C.3    59  VAL59       0.0023
     36  CG2      -86.3660   36.1490  -22.6150 C.3    59  VAL59       0.0023
     37  N        -90.5450   37.4230  -24.1230 N.am   60  SER60      -0.1950
     38  CA       -91.5890   37.8220  -25.0630 C.3    60  SER60       0.1924
     39  C        -91.0710   37.9620  -26.4900 C.2    60  SER60       0.2314
     40  O        -89.9010   38.2710  -26.7110 O.2    60  SER60      -0.2863
     41  CB       -92.2290   39.1380  -24.6160 C.3    60  SER60       0.2116
     42  OG       -93.2400   39.5480  -25.5200 O.3    60  SER60      -0.2180
     43  N        -91.8430   40.1880  -28.5020 N.3    62  ARG62      -0.1231
     44  CA       -91.7420   41.6060  -28.8380 C.3    62  ARG62       0.1694
     45  C        -90.3200   42.1520  -28.7250 C.2    62  ARG62       0.2592
     46  O        -90.0310   43.2460  -29.2090 O.2    62  ARG62      -0.2718
     47  CB       -92.6870   42.4220  -27.9540 C.3    62  ARG62       0.0321
     48  CG       -94.1530   42.0930  -28.1750 C.3    62  ARG62       0.0489
     49  CD       -95.0800   42.9640  -27.3440 C.3    62  ARG62       0.2205
     50  NE       -94.9550   42.7010  -25.9150 N.pl3  62  ARG62      -0.0865
     51  CZ       -94.2810   43.4710  -25.0680 C.cat  62  ARG62       0.5346
     52  NH1      -94.2230   43.1510  -23.7830 N.pl3  62  ARG62       0.1354
     53  NH2      -93.6700   44.5640  -25.5030 N.pl3  62  ARG62       0.1354
     54  N        -89.4420   41.4010  -28.0690 N.am   63  PHE63      -0.1976
     55  CA       -88.0480   41.8100  -27.9340 C.3    63  PHE63       0.1639
     56  C        -87.1620   41.1660  -28.9930 C.2    63  PHE63       0.2290
     57  O        -87.2920   39.9780  -29.2840 O.2    63  PHE63      -0.2864
     58  CB       -87.5250   41.4720  -26.5380 C.3    63  PHE63       0.0560
     59  CG       -88.1360   42.3030  -25.4500 C.ar   63  PHE63      -0.0200
     60  CD1      -87.6180   43.5480  -25.1410 C.ar   63  PHE63      -0.0042
     61  CD2      -89.2240   41.8380  -24.7350 C.ar   63  PHE63      -0.0042
     62  CE1      -88.1800   44.3160  -24.1460 C.ar   63  PHE63      -0.0003
     63  CE2      -89.7890   42.6010  -23.7360 C.ar   63  PHE63      -0.0003
     64  CZ       -89.2660   43.8420  -23.4410 C.ar   63  PHE63      -0.0000
     65  N        -95.8010   47.3040  -18.9940 N.3    82  GLU82      -0.1231
     66  CA       -95.0460   46.2640  -18.3020 C.3    82  GLU82       0.1699
     67  C        -93.5720   46.2870  -18.6900 C.2    82  GLU82       0.2592
     68  O        -92.7180   45.7760  -17.9660 O.2    82  GLU82      -0.2718
     69  CB       -95.6370   44.8850  -18.6060 C.3    82  GLU82       0.0402
     70  CG       -97.1250   44.7650  -18.3220 C.3    82  GLU82       0.1161
     71  CD       -97.4320   43.7420  -17.2450 C.2    82  GLU82       0.3649
     72  OE1      -96.5100   42.9980  -16.8480 O.co2  82  GLU82      -0.2457
     73  OE2      -98.5950   43.6840  -16.7940 O.co2  82  GLU82      -0.2457
     74  N        -93.2880   46.8660  -19.8510 N.am   83  ASP83      -0.1974
     75  CA       -91.9300   46.9310  -20.3760 C.3    83  ASP83       0.1709
     76  C        -91.1620   48.1230  -19.8220 C.2    83  ASP83       0.2293
     77  O        -89.9760   48.2960  -20.1070 O.2    83  ASP83      -0.2864
     78  CB       -91.9600   46.9970  -21.9020 C.3    83  ASP83       0.1436
     79  CG       -92.6820   45.8200  -22.5180 C.2    83  ASP83       0.3671
     80  OD1      -92.6030   44.7100  -21.9490 O.co2  83  ASP83      -0.2456
     81  OD2      -93.3310   46.0060  -23.5690 O.co2  83  ASP83      -0.2456
@<TRIPOS>BOND
     1    57    56    2
     2    46    45    2
     3    56    55    1
     4    44    45    1
     5    44    43    1
     6    44    47    1
     7    45    54   am
     8    48    47    1
     9    48    49    1
    10    54    55    1
    11    55    58    1
    12    49    50    1
    13    40    39    2
    14    58    59    1
    15    39    38    1
    16    50    51    2
    17    42    41    1
    18    53    51    1
    19    59    60   ar
    20    59    61   ar
    21    33    32    2
    22    60    62   ar
    23    51    52    1
    24    38    41    1
    25    38    37    1
    26    61    63   ar
    27    21    20    2
    28    32    37   am
    29    32    31    1
    30    62    64   ar
    31    35    34    1
    32    63    64   ar
    33    34    31    1
    34    34    36    1
    35    20    19    1
    36    81    79   ar
    37    31    30    1
    38    25    23    1
    39    23    24    1
    40    23    22    1
    41    30    28   am
    42    26    27    1
    43    79    80   ar
    44    79    78    1
    45    22    19    1
    46    19    18    1
    47    28    27    1
    48    28    29    2
    49    78    75    1
    50    75    74    1
    51    75    76    1
    52    77    76    2
    53    74    67   am
    54     8     7    2
    55    65    66    1
    56     5     6    1
    57     5     2    1
    58     1     2    1
    59     7     6    1
    60     7     9   am
    61    67    66    1
    62    67    68    2
    63    69    70    1
    64    69    66    1
    65     2     3    1
    66    70    71    1
    67    71    72   ar
    68    71    73   ar
    69     3     4    2
    70    17    15    1
    71    15    16    1
    72    15    14    1
    73    10    11    1
    74    11    14    1
    75    11    12    1
    76    12    13    2
