@<TRIPOS>MOLECULE
tmp/4y62A00.pdb
 153 153 0 0 0
SMALL
GASTEIGER

@<TRIPOS>ATOM
      1  N         17.4630   26.2170    1.6190 N.3    57  PHE57      -0.1241
      2  CA        17.7050   26.7700    2.9430 C.3    57  PHE57       0.1605
      3  C         18.7370   25.8990    3.6330 C.2    57  PHE57       0.2264
      4  O         18.6320   24.6700    3.6430 O.2    57  PHE57      -0.2867
      5  CB        16.4040   26.8340    3.7500 C.3    57  PHE57       0.0534
      6  CG        15.4640   27.8870    3.2550 C.ar   57  PHE57      -0.0203
      7  CD1       14.7660   27.6980    2.0630 C.ar   57  PHE57      -0.0042
      8  CD2       15.2910   29.0780    3.9450 C.ar   57  PHE57      -0.0042
      9  CE1       13.9190   28.6680    1.5680 C.ar   57  PHE57      -0.0003
     10  CE2       14.4370   30.0520    3.4470 C.ar   57  PHE57      -0.0003
     11  CZ        13.7510   29.8470    2.2610 C.ar   57  PHE57      -0.0000
     12  N         20.3360   26.2760    7.2150 N.3    59  ILE59      -0.1231
     13  CA        20.3240   26.9690    8.4900 C.3    59  ILE59       0.1692
     14  C         20.9980   26.0760    9.5220 C.2    59  ILE59       0.2592
     15  O         20.7960   24.8610    9.5320 O.2    59  ILE59      -0.2718
     16  CB        18.8740   27.2670    8.9480 C.3    59  ILE59       0.0266
     17  CG1       18.0360   27.8950    7.8300 C.3    59  ILE59       0.0019
     18  CG2       18.8700   28.1540   10.1860 C.3    59  ILE59       0.0020
     19  CD1       18.5980   29.1770    7.2800 C.3    59  ILE59       0.0001
     20  N         21.7730   26.6970   10.4060 N.am   60  LYS60      -0.1966
     21  CA        22.4970   26.0080   11.4770 C.3    60  LYS60       0.1728
     22  C         23.3880   24.8960   10.9020 C.2    60  LYS60       0.2616
     23  O         24.1580   25.1770    9.9870 O.2    60  LYS60      -0.2715
     24  CB        21.5370   25.5390   12.5800 C.3    60  LYS60       0.0311
     25  CG        20.8640   26.6800   13.3240 C.3    60  LYS60       0.0038
     26  CD        19.8150   26.1700   14.2980 C.3    60  LYS60       0.0206
     27  CE        19.0210   27.3050   14.9210 C.3    60  LYS60       0.1093
     28  NZ        17.9410   26.7950   15.8110 N.3    60  LYS60      -0.1314
     29  N         23.2800   23.6560   11.3790 N.am   61  LYS61      -0.1963
     30  CA        24.2030   22.5970   10.9590 C.3    61  LYS61       0.1728
     31  C         24.0010   22.1410    9.5100 C.2    61  LYS61       0.2616
     32  O         24.8600   21.4520    8.9510 O.2    61  LYS61      -0.2715
     33  CB        24.1240   21.3950   11.8990 C.3    61  LYS61       0.0311
     34  CG        24.6250   21.7070   13.3000 C.3    61  LYS61       0.0038
     35  CD        24.6230   20.4730   14.1870 C.3    61  LYS61       0.0206
     36  CE        25.1020   20.8020   15.5920 C.3    61  LYS61       0.1093
     37  NZ        25.1470   19.6000   16.4700 N.3    61  LYS61      -0.1314
     38  N         22.8820   22.5330    8.8980 N.am   62  TYR62      -0.1974
     39  CA        22.5800   22.1140    7.5260 C.3    62  TYR62       0.1639
     40  C         23.4500   22.7810    6.4650 C.2    62  TYR62       0.2290
     41  O         23.4300   22.3540    5.3170 O.2    62  TYR62      -0.2864
     42  CB        21.0860   22.2840    7.2060 C.3    62  TYR62       0.0560
     43  CG        20.2390   21.1610    7.7710 C.ar   62  TYR62      -0.0198
     44  CD1       20.0830   21.0000    9.1510 C.ar   62  TYR62      -0.0009
     45  CD2       19.6160   20.2370    6.9340 C.ar   62  TYR62      -0.0009
     46  CE1       19.3140   19.9730    9.6720 C.ar   62  TYR62       0.0417
     47  CE2       18.8520   19.1980    7.4510 C.ar   62  TYR62       0.0417
     48  CZ        18.7010   19.0710    8.8180 C.ar   62  TYR62       0.1957
     49  OH        17.9390   18.0430    9.3370 O.3    62  TYR62      -0.2866
     50  N         10.0790   29.2220   17.4790 N.3   113  TRP113     -0.1241
     51  CA         9.9370   28.0930   16.5450 C.3   113  TRP113      0.1605
     52  C          8.7730   28.2730   15.5580 C.2   113  TRP113      0.2264
     53  O          8.8160   27.7510   14.4410 O.2   113  TRP113     -0.2867
     54  CB         9.7820   26.7690   17.3140 C.3   113  TRP113      0.0550
     55  CG         8.4670   26.6170   18.0250 C.ar  113  TRP113      0.0003
     56  CD1        8.2020   26.9100   19.3320 C.ar  113  TRP113      0.0946
     57  CD2        7.2360   26.1390   17.4640 C.ar  113  TRP113      0.0152
     58  NE1        6.8880   26.6460   19.6170 N.ar  113  TRP113     -0.2442
     59  CE2        6.2700   26.1700   18.4910 C.ar  113  TRP113      0.0810
     60  CE3        6.8580   25.6870   16.1920 C.ar  113  TRP113      0.0012
     61  CZ2        4.9490   25.7730   18.2860 C.ar  113  TRP113      0.0191
     62  CZ3        5.5440   25.2880   15.9890 C.ar  113  TRP113      0.0001
     63  CH2        4.6060   25.3320   17.0320 C.ar  113  TRP113      0.0015
     64  N         10.1440   30.0870   12.7450 N.3   116  VAL116     -0.1231
     65  CA        11.0190   29.1510   12.0240 C.3   116  VAL116      0.1692
     66  C         10.2020   28.2180   11.1150 C.2   116  VAL116      0.2592
     67  O         10.5760   27.9980    9.9710 O.2   116  VAL116     -0.2718
     68  CB        11.9130   28.3360   12.9900 C.3   116  VAL116      0.0266
     69  CG1       12.6730   27.2320   12.2550 C.3   116  VAL116      0.0020
     70  CG2       12.8900   29.2650   13.7030 C.3   116  VAL116      0.0020
     71  N          9.0850   27.6920   11.6160 N.am  117  SER117     -0.1952
     72  CA         8.1950   26.8290   10.8180 C.3   117  SER117      0.1924
     73  C          7.6560   27.5030    9.5530 C.2   117  SER117      0.2314
     74  O          7.5780   26.8730    8.4940 O.2   117  SER117     -0.2863
     75  CB         7.0180   26.3410   11.6680 C.3   117  SER117      0.2116
     76  OG         6.1660   25.4810   10.9230 O.3   117  SER117     -0.2180
     77  N          9.0660   30.0660    8.0360 N.3   119  ARG119     -0.1231
     78  CA        10.1510   30.8240    7.4580 C.3   119  ARG119      0.1694
     79  C         10.3160   30.5950    5.9490 C.2   119  ARG119      0.2591
     80  O         10.4180   31.5620    5.1960 O.2   119  ARG119     -0.2718
     81  CB        11.4370   30.4790    8.2070 C.3   119  ARG119      0.0321
     82  CG        12.6310   31.2720    7.7630 C.3   119  ARG119      0.0489
     83  CD        13.7130   31.3980    8.8270 C.3   119  ARG119      0.2205
     84  NE        14.1730   30.0960    9.2830 N.pl3 119  ARG119     -0.0865
     85  CZ        15.0650   29.9000   10.2480 C.cat 119  ARG119      0.5346
     86  NH1       15.6290   30.9310   10.8830 N.pl3 119  ARG119      0.1354
     87  NH2       15.3890   28.6570   10.5850 N.pl3 119  ARG119      0.1354
     88  N         10.3390   29.3340    5.5200 N.am  120  ARG120     -0.1980
     89  CA        10.5920   29.0200    4.1070 C.3   120  ARG120      0.1597
     90  C          9.4930   29.5930    3.2190 C.2   120  ARG120      0.2287
     91  O          9.7830   30.2700    2.2380 O.2   120  ARG120     -0.2864
     92  CB        10.7460   27.5170    3.8870 C.3   120  ARG120      0.0334
     93  CG        12.0310   26.9490    4.4780 C.3   120  ARG120      0.0492
     94  CD        11.9980   25.4360    4.6050 C.3   120  ARG120      0.2205
     95  NE        12.5180   24.7470    3.4310 N.pl3 120  ARG120     -0.0865
     96  CZ        12.3570   23.4490    3.1610 C.cat 120  ARG120      0.5346
     97  NH1       11.6720   22.6380    3.9650 N.pl3 120  ARG120      0.1354
     98  NH2       12.8880   22.9470    2.0560 N.pl3 120  ARG120      0.1354
     99  N         14.7950   20.7290   -0.5160 N.3   143  ASP143     -0.1225
    100  CA        15.5930   20.4820    0.6930 C.3   143  ASP143      0.1805
    101  C         17.0840   20.3740    0.3380 C.2   143  ASP143      0.2598
    102  O         17.4540   19.9370   -0.7610 O.2   143  ASP143     -0.2718
    103  CB        15.1420   19.1850    1.3790 C.3   143  ASP143      0.1424
    104  CG        13.8710   19.3450    2.1940 C.2   143  ASP143      0.3668
    105  OD1       13.2220   20.4060    2.1620 O.co2 143  ASP143     -0.2456
    106  OD2       13.5030   18.3650    2.8670 O.co2 143  ASP143     -0.2456
    107  N         17.9340   20.7540    1.2890 N.am  144  VAL144     -0.1966
    108  CA        19.3860   20.7950    1.0850 C.3   144  VAL144      0.1727
    109  C         20.1060   19.4800    1.4040 C.2   144  VAL144      0.2616
    110  O         21.1870   19.2270    0.8570 O.2   144  VAL144     -0.2715
    111  CB        20.0320   21.9460    1.9010 C.3   144  VAL144      0.0290
    112  CG1       20.1230   21.6190    3.3920 C.3   144  VAL144      0.0023
    113  CG2       21.4020   22.3070    1.3370 C.3   144  VAL144      0.0023
    114  N         19.5250   18.6540    2.2790 N.am  145  ASP145     -0.1971
    115  CA        20.1760   17.4060    2.7300 C.3   145  ASP145      0.1709
    116  C         19.9160   16.2770    1.7380 C.2   145  ASP145      0.2293
    117  O         19.3950   15.2100    2.0690 O.2   145  ASP145     -0.2864
    118  CB        19.8130   17.0370    4.1800 C.3   145  ASP145      0.1436
    119  CG        18.3240   16.9530    4.4370 C.2   145  ASP145      0.3671
    120  OD1       17.5190   17.5810    3.7200 O.co2 145  ASP145     -0.2456
    121  OD2       17.9620   16.2670    5.4130 O.co2 145  ASP145     -0.2456
    122  N          2.6040   17.8660    9.6440 N.3   232  TRP232     -0.1227
    123  CA         3.8690   17.9410    8.9030 C.3   232  TRP232      0.1737
    124  C          4.1870   19.3520    8.4160 C.2   232  TRP232      0.2595
    125  O          4.8250   19.5410    7.3820 O.2   232  TRP232     -0.2718
    126  CB         3.9040   16.8880    7.7860 C.3   232  TRP232      0.0564
    127  CG         4.0280   15.5290    8.3710 C.ar  232  TRP232      0.0003
    128  CD1        3.0640   14.5800    8.4550 C.ar  232  TRP232      0.0946
    129  CD2        5.1860   14.9870    9.0200 C.ar  232  TRP232      0.0152
    130  NE1        3.5510   13.4640    9.0980 N.ar  232  TRP232     -0.2442
    131  CE2        4.8560   13.6890    9.4460 C.ar  232  TRP232      0.0810
    132  CE3        6.4790   15.4670    9.2530 C.ar  232  TRP232      0.0012
    133  CZ2        5.7670   12.8670   10.1090 C.ar  232  TRP232      0.0191
    134  CZ3        7.3870   14.6430    9.8970 C.ar  232  TRP232      0.0001
    135  CH2        7.0230   13.3610   10.3190 C.ar  232  TRP232      0.0015
    136  N          3.7560   20.3420    9.1960 N.am  233  HIS233     -0.1961
    137  CA         4.2270   21.7130    9.0690 C.3   233  HIS233      0.1787
    138  C          3.9090   22.2430    7.6740 C.2   233  HIS233      0.2620
    139  O          2.7870   22.0220    7.1990 O.2   233  HIS233     -0.2715
    140  CB         5.7110   21.7740    9.4460 C.3   233  HIS233      0.0785
    141  CG         6.0210   21.0270   10.7020 C.ar  233  HIS233      0.0821
    142  ND1        6.7470   19.8560   10.7190 N.ar  233  HIS233     -0.2267
    143  CD2        5.6260   21.2430   11.9770 C.ar  233  HIS233      0.1154
    144  CE1        6.8230   19.4080   11.9600 C.ar  233  HIS233      0.1986
    145  NE2        6.1540   20.2340   12.7420 N.ar  233  HIS233     -0.2212
    146  N          4.8460   22.9120    6.9960 N.am  234  ASP234     -0.1971
    147  CA         4.4900   23.4740    5.6890 C.3   234  ASP234      0.1709
    148  C          4.1510   22.4260    4.6130 C.2   234  ASP234      0.2293
    149  O          3.4290   22.7470    3.6710 O.2   234  ASP234     -0.2864
    150  CB         5.4710   24.5650    5.2120 C.3   234  ASP234      0.1436
    151  CG         6.8300   24.0480    4.7780 C.2   234  ASP234      0.3671
    152  OD1        7.0890   22.8280    4.7470 O.co2 234  ASP234     -0.2456
    153  OD2        7.6730   24.9270    4.4850 O.co2 234  ASP234     -0.2456
@<TRIPOS>BOND
     1   102   101    2
     2    99   100    1
     3   101   100    1
     4   101   107   am
     5   100   103    1
     6   110   109    2
     7   108   107    1
     8   108   109    1
     9   108   111    1
    10   113   111    1
    11   103   104    1
    12   109   114   am
    13     9     7   ar
    14     9    11   ar
    15     1     2    1
    16   116   117    2
    17   116   115    1
    18   111   112    1
    19    98    96    1
    20     7     6   ar
    21   105   104   ar
    22   104   106   ar
    23    91    90    2
    24    11    10   ar
    25   114   115    1
    26   115   118    1
    27     2     3    1
    28     2     5    1
    29    96    95    2
    30    96    97    1
    31    90    89    1
    32     6     5    1
    33     6     8   ar
    34    95    94    1
    35    10     8   ar
    36     3     4    2
    37   149   148    2
    38   120   119   ar
    39    92    89    1
    40    92    93    1
    41    89    88    1
    42   118   119    1
    43   119   121   ar
    44    93    94    1
    45   153   151   ar
    46   148   147    1
    47   152   151   ar
    48   151   150    1
    49    80    79    2
    50   150   147    1
    51    41    40    2
    52    88    79   am
    53   147   146    1
    54    79    78    1
    55    40    39    1
    56    45    47   ar
    57    45    43   ar
    58   146   138   am
    59   139   138    2
    60    42    39    1
    61    42    43    1
    62    12    13    1
    63    19    17    1
    64   125   124    2
    65    47    48   ar
    66    78    77    1
    67    78    81    1
    68    39    38    1
    69   138   137    1
    70    82    81    1
    71    82    83    1
    72    43    44   ar
    73   126   127    1
    74   126   123    1
    75    17    16    1
    76   127   128   ar
    77   127   129   ar
    78   124   123    1
    79   124   136   am
    80   128   130   ar
    81    13    16    1
    82    13    14    1
    83    74    73    2
    84    48    49    1
    85    48    46   ar
    86    83    84    1
    87    38    31   am
    88   123   122    1
    89    16    18    1
    90    32    31    2
    91   129   132   ar
    92   129   131   ar
    93   137   136    1
    94   137   140    1
    95   130   131   ar
    96    44    46   ar
    97   132   134   ar
    98    84    85    2
    99   131   133   ar
   100   140   141    1
   101    31    30    1
   102    14    15    2
   103    14    20   am
   104    73    72    1
   105   134   135   ar
   106    67    66    2
   107    23    22    2
   108   133   135   ar
   109    85    87    1
   110    85    86    1
   111    20    21    1
   112   141   142   ar
   113   141   143   ar
   114   142   144   ar
   115    72    71    1
   116    72    75    1
   117    22    29   am
   118    22    21    1
   119    76    75    1
   120    30    29    1
   121    30    33    1
   122    66    71   am
   123    66    65    1
   124    21    24    1
   125    33    34    1
   126   144   145   ar
   127   143   145   ar
   128    65    64    1
   129    65    68    1
   130    69    68    1
   131    24    25    1
   132    68    70    1
   133    34    35    1
   134    25    26    1
   135    35    36    1
   136    26    27    1
   137    53    52    2
   138    27    28    1
   139    52    51    1
   140    36    37    1
   141    62    60   ar
   142    62    63   ar
   143    60    57   ar
   144    51    54    1
   145    51    50    1
   146    63    61   ar
   147    54    55    1
   148    57    55   ar
   149    57    59   ar
   150    55    56   ar
   151    61    59   ar
   152    59    58   ar
   153    56    58   ar
