@<TRIPOS>MOLECULE
tmp/4y63A01.pdb
 110 108 0 0 0
SMALL
GASTEIGER

@<TRIPOS>ATOM
      1  N         17.5420   26.1650    1.5070 N.3    58  PHE58      -0.1241
      2  CA        17.7710   26.7520    2.8230 C.3    58  PHE58       0.1605
      3  C         18.8480   25.9520    3.5410 C.2    58  PHE58       0.2264
      4  O         18.7850   24.7270    3.6080 O.2    58  PHE58      -0.2867
      5  CB        16.4640   26.8070    3.6230 C.3    58  PHE58       0.0534
      6  CG        15.5000   27.8310    3.0990 C.ar   58  PHE58      -0.0203
      7  CD1       14.8100   27.6090    1.9160 C.ar   58  PHE58      -0.0042
      8  CD2       15.2960   29.0320    3.7680 C.ar   58  PHE58      -0.0042
      9  CE1       13.9400   28.5540    1.4130 C.ar   58  PHE58      -0.0003
     10  CE2       14.4240   29.9830    3.2670 C.ar   58  PHE58      -0.0003
     11  CZ        13.7440   29.7450    2.0860 C.ar   58  PHE58      -0.0000
     12  N         20.3310   26.5350    7.0050 N.3    60  ILE60      -0.1231
     13  CA        20.2370   27.2790    8.2540 C.3    60  ILE60       0.1692
     14  C         20.8990   26.4320    9.3370 C.2    60  ILE60       0.2592
     15  O         20.7010   25.2170    9.3960 O.2    60  ILE60      -0.2718
     16  CB        18.7510   27.5630    8.5990 C.3    60  ILE60       0.0266
     17  CG1       18.0660   28.3700    7.4830 C.3    60  ILE60       0.0019
     18  CG2       18.6080   28.2590    9.9460 C.3    60  ILE60       0.0020
     19  CD1       18.5010   29.8090    7.3580 C.3    60  ILE60       0.0001
     20  N         21.6770   27.0830   10.1990 N.am   61  LYS61      -0.1966
     21  CA        22.3800   26.4260   11.2970 C.3    61  LYS61       0.1728
     22  C         23.2540   25.2740   10.7710 C.2    61  LYS61       0.2616
     23  O         24.0380   25.5000    9.8520 O.2    61  LYS61      -0.2715
     24  CB        21.3990   26.0330   12.4170 C.3    61  LYS61       0.0311
     25  CG        20.7340   27.2440   13.0570 C.3    61  LYS61       0.0038
     26  CD        19.7870   26.8700   14.1860 C.3    61  LYS61       0.0206
     27  CE        18.4880   26.2910   13.6510 C.3    61  LYS61       0.1093
     28  NZ        17.5410   25.9660   14.7510 N.3    61  LYS61      -0.1314
     29  N         23.0980   24.0530   11.2780 N.am   62  LYS62      -0.1963
     30  CA        24.0220   22.9640   10.9410 C.3    62  LYS62       0.1728
     31  C         23.8580   22.4350    9.5100 C.2    62  LYS62       0.2616
     32  O         24.7260   21.7140    9.0130 O.2    62  LYS62      -0.2715
     33  CB        23.8880   21.8140   11.9370 C.3    62  LYS62       0.0311
     34  CG        24.2270   22.2130   13.3670 C.3    62  LYS62       0.0038
     35  CD        24.1030   21.0290   14.3130 C.3    62  LYS62       0.0206
     36  CE        24.4360   21.4230   15.7430 C.3    62  LYS62       0.1093
     37  NZ        24.3250   20.2720   16.6810 N.3    62  LYS62      -0.1314
     38  N         22.7680   22.8130    8.8460 N.am   63  TYR63      -0.1974
     39  CA        22.4890   22.3360    7.4940 C.3    63  TYR63       0.1639
     40  C         23.3790   22.9620    6.4170 C.2    63  TYR63       0.2290
     41  O         23.3530   22.5080    5.2730 O.2    63  TYR63      -0.2864
     42  CB        21.0020   22.5060    7.1530 C.3    63  TYR63       0.0560
     43  CG        20.1370   21.4360    7.7760 C.ar   63  TYR63      -0.0198
     44  CD1       19.9720   21.3630    9.1620 C.ar   63  TYR63      -0.0009
     45  CD2       19.5010   20.4790    6.9890 C.ar   63  TYR63      -0.0009
     46  CE1       19.1920   20.3810    9.7410 C.ar   63  TYR63       0.0417
     47  CE2       18.7120   19.4880    7.5640 C.ar   63  TYR63       0.0417
     48  CZ        18.5640   19.4470    8.9380 C.ar   63  TYR63       0.1957
     49  OH        17.7940   18.4740    9.5230 O.3    63  TYR63      -0.2866
     50  N         13.3170   23.4830   14.5210 N.3   118  TRP118     -0.1241
     51  CA        13.4200   22.9720   13.1480 C.3   118  TRP118      0.1605
     52  C         12.0980   23.0670   12.3970 C.2   118  TRP118      0.2264
     53  O         12.0930   23.3010   11.1880 O.2   118  TRP118     -0.2867
     54  CB        13.9540   21.5350   13.1090 C.3   118  TRP118      0.0550
     55  CG        13.0590   20.4330   13.6690 C.ar  118  TRP118      0.0003
     56  CD1       13.1630   19.8550   14.9010 C.ar  118  TRP118      0.0946
     57  CD2       11.9880   19.7400   12.9950 C.ar  118  TRP118      0.0152
     58  NE1       12.2200   18.8660   15.0470 N.ar  118  TRP118     -0.2442
     59  CE2       11.4870   18.7730   13.8940 C.ar  118  TRP118      0.0810
     60  CE3       11.4000   19.8460   11.7280 C.ar  118  TRP118      0.0012
     61  CZ2       10.4190   17.9270   13.5700 C.ar  118  TRP118      0.0191
     62  CZ3       10.3420   18.9970   11.4010 C.ar  118  TRP118      0.0001
     63  CH2        9.8670   18.0510   12.3190 C.ar  118  TRP118      0.0015
     64  N         11.9310   26.6360   11.1790 N.3   121  VAL121     -0.1231
     65  CA        12.8830   26.8290   10.0790 C.3   121  VAL121      0.1692
     66  C         12.2630   26.2800    8.7860 C.2   121  VAL121      0.2592
     67  O         12.2510   26.9600    7.7660 O.2   121  VAL121     -0.2718
     68  CB        14.2510   26.1480   10.3270 C.3   121  VAL121      0.0266
     69  CG1       15.1530   26.3040    9.1060 C.3   121  VAL121      0.0020
     70  CG2       14.9450   26.7310   11.5550 C.3   121  VAL121      0.0020
     71  N         11.7230   25.0650    8.8550 N.am  122  SER122     -0.1952
     72  CA        11.0740   24.4360    7.7040 C.3   122  SER122      0.1924
     73  C          9.8690   25.2340    7.2080 C.2   122  SER122      0.2314
     74  O          9.7370   25.4910    6.0050 O.2   122  SER122     -0.2863
     75  CB        10.6430   23.0090    8.0570 C.3   122  SER122      0.2116
     76  OG        10.1560   22.3300    6.9180 O.3   122  SER122     -0.2180
     77  N         10.2440   28.8450    5.4230 N.3   125  ARG125     -0.1245
     78  CA        10.6420   28.8490    4.0150 C.3   125  ARG125      0.1563
     79  C          9.5480   29.4360    3.1200 C.2   125  ARG125      0.2260
     80  O          9.8440   30.1390    2.1670 O.2   125  ARG125     -0.2867
     81  CB        11.0060   27.4450    3.5500 C.3   125  ARG125      0.0307
     82  CG        12.2170   26.8660    4.2650 C.3   125  ARG125      0.0489
     83  CD        12.6420   25.5500    3.6610 C.3   125  ARG125      0.2205
     84  NE        11.6500   24.5010    3.8850 N.pl3 125  ARG125     -0.0865
     85  CZ        11.6980   23.2920    3.3310 C.cat 125  ARG125      0.5346
     86  NH1       12.6840   22.9680    2.5040 N.pl3 125  ARG125      0.1354
     87  NH2       10.7480   22.4060    3.5940 N.pl3 125  ARG125      0.1354
     88  N         14.6670   20.7890   -0.5010 N.3   148  ASP148     -0.1225
     89  CA        15.4760   20.5270    0.6990 C.3   148  ASP148      0.1805
     90  C         16.9640   20.4540    0.3400 C.2   148  ASP148      0.2598
     91  O         17.3280   20.0590   -0.7770 O.2   148  ASP148     -0.2718
     92  CB        15.0780   19.1910    1.3450 C.3   148  ASP148      0.1424
     93  CG        13.7900   19.2560    2.1420 C.2   148  ASP148      0.3668
     94  OD1       13.0620   20.2590    2.1060 O.co2 148  ASP148     -0.2456
     95  OD2       13.5160   18.2610    2.8310 O.co2 148  ASP148     -0.2456
     96  N         17.8120   20.7960    1.3090 N.am  149  VAL149     -0.1966
     97  CA        19.2600   20.8600    1.1040 C.3   149  VAL149      0.1727
     98  C         19.9680   19.5480    1.4200 C.2   149  VAL149      0.2616
     99  O         21.0440   19.2870    0.8690 O.2   149  VAL149     -0.2715
    100  CB        19.9120   22.0010    1.9310 C.3   149  VAL149      0.0290
    101  CG1       19.9980   21.6800    3.4210 C.3   149  VAL149      0.0023
    102  CG2       21.2960   22.3590    1.3870 C.3   149  VAL149      0.0023
    103  N         19.3810   18.7280    2.2960 N.am  150  ASP150     -0.1971
    104  CA        20.0200   17.4780    2.7600 C.3   150  ASP150      0.1709
    105  C         19.7980   16.3450    1.7640 C.2   150  ASP150      0.2293
    106  O         19.2730   15.2750    2.0850 O.2   150  ASP150     -0.2864
    107  CB        19.5940   17.0980    4.1950 C.3   150  ASP150      0.1436
    108  CG        18.0820   17.1010    4.4150 C.2   150  ASP150      0.3671
    109  OD1       17.3300   17.7020    3.6250 O.co2 150  ASP150     -0.2456
    110  OD2       17.6430   16.5110    5.4240 O.co2 150  ASP150     -0.2456
@<TRIPOS>BOND
     1    91    90    2
     2    88    89    1
     3    90    89    1
     4    90    96   am
     5    89    92    1
     6    99    98    2
     7    97    96    1
     8    97    98    1
     9    97   100    1
    10    92    93    1
    11   102   100    1
    12     9     7   ar
    13     9    11   ar
    14    98   103   am
    15     1     2    1
    16   105   106    2
    17   105   104    1
    18     7     6   ar
    19   100   101    1
    20    11    10   ar
    21    94    93   ar
    22    93    95   ar
    23    80    79    2
    24   103   104    1
    25    86    85    1
    26   104   107    1
    27     2     3    1
    28     2     5    1
    29     6     5    1
    30     6     8   ar
    31    79    78    1
    32    10     8   ar
    33    85    87    1
    34    85    84    2
    35     3     4    2
    36    81    78    1
    37    81    82    1
    38   109   108   ar
    39    83    84    1
    40    83    82    1
    41    78    77    1
    42   107   108    1
    43   108   110   ar
    44    41    40    2
    45    74    73    2
    46    40    39    1
    47    76    75    1
    48    45    47   ar
    49    45    43   ar
    50    12    13    1
    51    42    39    1
    52    42    43    1
    53    73    72    1
    54    19    17    1
    55    17    16    1
    56    39    38    1
    57    47    48   ar
    58    72    75    1
    59    72    71    1
    60    67    66    2
    61    43    44   ar
    62    13    16    1
    63    13    14    1
    64    16    18    1
    65    66    71   am
    66    66    65    1
    67    38    31   am
    68    48    49    1
    69    48    46   ar
    70    32    31    2
    71    69    68    1
    72    44    46   ar
    73    14    15    2
    74    14    20   am
    75    31    30    1
    76    23    22    2
    77    65    68    1
    78    65    64    1
    79    20    21    1
    80    68    70    1
    81    22    29   am
    82    22    21    1
    83    30    29    1
    84    30    33    1
    85    53    52    2
    86    21    24    1
    87    62    60   ar
    88    62    63   ar
    89    60    57   ar
    90    33    34    1
    91    63    61   ar
    92    52    51    1
    93    24    25    1
    94    57    55   ar
    95    57    59   ar
    96    25    26    1
    97    54    51    1
    98    54    55    1
    99    51    50    1
   100    34    35    1
   101    61    59   ar
   102    27    26    1
   103    27    28    1
   104    55    56   ar
   105    59    58   ar
   106    35    36    1
   107    56    58   ar
   108    36    37    1
