@<TRIPOS>MOLECULE
tmp/4y64A01.pdb
 114 110 0 0 0
SMALL
GASTEIGER

@<TRIPOS>ATOM
      1  N         17.4580   26.3530    1.5290 N.3    58  PHE58      -0.1241
      2  CA        17.7260   26.9030    2.8620 C.3    58  PHE58       0.1605
      3  C         18.7890   26.0920    3.5890 C.2    58  PHE58       0.2264
      4  O         18.7070   24.8620    3.6910 O.2    58  PHE58      -0.2867
      5  CB        16.4230   26.9950    3.6670 C.3    58  PHE58       0.0534
      6  CG        15.4930   28.0580    3.1600 C.ar   58  PHE58      -0.0203
      7  CD1       14.7850   27.8700    1.9780 C.ar   58  PHE58      -0.0042
      8  CD2       15.3060   29.2570    3.8590 C.ar   58  PHE58      -0.0042
      9  CE1       13.9400   28.8540    1.4760 C.ar   58  PHE58      -0.0003
     10  CE2       14.4480   30.2260    3.3790 C.ar   58  PHE58      -0.0003
     11  CZ        13.7540   30.0270    2.1860 C.ar   58  PHE58      -0.0000
     12  N         20.3310   26.6160    7.0860 N.3    60  ILE60      -0.1231
     13  CA        20.2320   27.3780    8.3360 C.3    60  ILE60       0.1692
     14  C         20.8620   26.5230    9.4270 C.2    60  ILE60       0.2591
     15  O         20.6750   25.3070    9.4540 O.2    60  ILE60      -0.2718
     16  CB        18.7560   27.7640    8.5970 C.3    60  ILE60       0.0266
     17  CG1       18.3840   28.9290    7.6660 C.3    60  ILE60       0.0019
     18  CG2       18.5060   28.1800   10.0440 C.3    60  ILE60       0.0020
     19  CD1       16.9250   28.9850    7.3390 C.3    60  ILE60       0.0001
     20  N         21.6290   27.1810   10.2920 N.am   61  LYS61      -0.1980
     21  CA        22.3820   26.5710   11.3730 C.3    61  LYS61       0.1596
     22  C         23.2450   25.4440   10.8060 C.2    61  LYS61       0.2287
     23  O         23.9840   25.6820    9.8610 O.2    61  LYS61      -0.2864
     24  CB        21.4470   26.1810   12.5250 C.3    61  LYS61       0.0298
     25  CG        20.6670   27.3780   13.0720 C.3    61  LYS61       0.0038
     26  CD        19.7670   27.0250   14.2570 C.3    61  LYS61       0.0206
     27  CE        18.4140   26.5210   13.8040 C.3    61  LYS61       0.1093
     28  NZ        17.4720   26.3320   14.9250 N.3    61  LYS61      -0.1314
     29  N         22.7250   22.9500    8.9280 N.3    63  TYR63      -0.1241
     30  CA        22.4570   22.5020    7.5470 C.3    63  TYR63       0.1605
     31  C         23.3370   23.1480    6.4470 C.2    63  TYR63       0.2264
     32  O         23.2880   22.7200    5.2800 O.2    63  TYR63      -0.2867
     33  CB        20.9720   22.6660    7.2120 C.3    63  TYR63       0.0534
     34  CG        20.1070   21.5840    7.7940 C.ar   63  TYR63      -0.0201
     35  CD1       19.8800   21.5140    9.1910 C.ar   63  TYR63      -0.0009
     36  CD2       19.4980   20.6310    6.9810 C.ar   63  TYR63      -0.0009
     37  CE1       19.1100   20.5180    9.7390 C.ar   63  TYR63       0.0417
     38  CE2       18.7110   19.6230    7.5360 C.ar   63  TYR63       0.0417
     39  CZ        18.5200   19.5830    8.9060 C.ar   63  TYR63       0.1957
     40  OH        17.7360   18.6140    9.4490 O.3    63  TYR63      -0.2866
     41  N         13.2690   23.8120   14.6200 N.3   118  TRP118     -0.1241
     42  CA        13.4210   23.3270   13.2490 C.3   118  TRP118      0.1605
     43  C         12.0990   23.3730   12.4910 C.2   118  TRP118      0.2264
     44  O         12.0940   23.6050   11.2840 O.2   118  TRP118     -0.2867
     45  CB        14.0170   21.9170   13.1940 C.3   118  TRP118      0.0550
     46  CG        13.1440   20.7890   13.7120 C.ar  118  TRP118      0.0003
     47  CD1       13.2300   20.1840   14.9350 C.ar  118  TRP118      0.0946
     48  CD2       12.0900   20.1100   13.0020 C.ar  118  TRP118      0.0152
     49  NE1       12.3070   19.1760   15.0270 N.ar  118  TRP118     -0.2442
     50  CE2       11.5980   19.1050   13.8560 C.ar  118  TRP118      0.0810
     51  CE3       11.5290   20.2470   11.7250 C.ar  118  TRP118      0.0012
     52  CZ2       10.5490   18.2570   13.4900 C.ar  118  TRP118      0.0191
     53  CZ3       10.4970   19.3980   11.3550 C.ar  118  TRP118      0.0001
     54  CH2       10.0210   18.4090   12.2340 C.ar  118  TRP118      0.0015
     55  N         11.8990   26.8290   11.2230 N.3   121  VAL121     -0.1231
     56  CA        12.8670   26.9960   10.1380 C.3   121  VAL121      0.1692
     57  C         12.2250   26.4400    8.8570 C.2   121  VAL121      0.2592
     58  O         12.1790   27.1090    7.8450 O.2   121  VAL121     -0.2718
     59  CB        14.2100   26.2780   10.4120 C.3   121  VAL121      0.0266
     60  CG1       15.1050   26.3780    9.1930 C.3   121  VAL121      0.0020
     61  CG2       14.9310   26.8810   11.6490 C.3   121  VAL121      0.0020
     62  N         11.6970   25.2300    8.9470 N.am  122  SER122     -0.1952
     63  CA        11.0400   24.5710    7.8020 C.3   122  SER122      0.1924
     64  C          9.8780   25.4120    7.2960 C.2   122  SER122      0.2314
     65  O          9.7920   25.7250    6.1080 O.2   122  SER122     -0.2863
     66  CB        10.5400   23.1840    8.2260 C.3   122  SER122      0.2116
     67  OG        10.0350   22.4400    7.1410 O.3   122  SER122     -0.2180
     68  N         10.2240   28.9920    5.4760 N.3   125  ARG125     -0.1245
     69  CA        10.6430   29.0070    4.0900 C.3   125  ARG125      0.1563
     70  C          9.5580   29.6210    3.1710 C.2   125  ARG125      0.2260
     71  O          9.8630   30.3280    2.2200 O.2   125  ARG125     -0.2867
     72  CB        11.0160   27.5970    3.6310 C.3   125  ARG125      0.0307
     73  CG        12.2620   27.0480    4.3150 C.3   125  ARG125      0.0489
     74  CD        12.7040   25.7390    3.7100 C.3   125  ARG125      0.2205
     75  NE        11.7580   24.6600    3.9670 N.pl3 125  ARG125     -0.0865
     76  CZ        11.8370   23.4420    3.4170 C.cat 125  ARG125      0.5346
     77  NH1       12.7980   23.1470    2.5600 N.pl3 125  ARG125      0.1354
     78  NH2       10.9330   22.5240    3.7080 N.pl3 125  ARG125      0.1354
     79  N         14.6940   20.9790   -0.5090 N.3   148  ASP148     -0.1225
     80  CA        15.4900   20.6920    0.6910 C.3   148  ASP148      0.1805
     81  C         17.0010   20.6180    0.3420 C.2   148  ASP148      0.2598
     82  O         17.3770   20.1930   -0.7550 O.2   148  ASP148     -0.2718
     83  CB        15.0560   19.3590    1.3210 C.3   148  ASP148      0.1424
     84  CG        13.7690   19.4490    2.1370 C.2   148  ASP148      0.3668
     85  OD1       13.0430   20.4550    2.1560 O.co2 148  ASP148     -0.2456
     86  OD2       13.4570   18.4240    2.7790 O.co2 148  ASP148     -0.2456
     87  N         17.8490   21.0200    1.2950 N.am  149  VAL149     -0.1966
     88  CA        19.2920   21.0630    1.1030 C.3   149  VAL149      0.1727
     89  C         20.0140   19.7380    1.3980 C.2   149  VAL149      0.2616
     90  O         21.1010   19.5130    0.8490 O.2   149  VAL149     -0.2715
     91  CB        19.9640   22.1820    1.9660 C.3   149  VAL149      0.0290
     92  CG1       20.0020   21.8200    3.4700 C.3   149  VAL149      0.0023
     93  CG2       21.3640   22.4580    1.4520 C.3   149  VAL149      0.0023
     94  N         19.4420   18.8940    2.2780 N.am  150  ASP150     -0.1957
     95  CA        20.1040   17.6490    2.7110 C.3   150  ASP150      0.1840
     96  C         19.8220   16.4910    1.7470 C.2   150  ASP150      0.2621
     97  O         19.3420   15.3900    2.1140 O.2   150  ASP150     -0.2715
     98  CB        19.7720   17.2990    4.1830 C.3   150  ASP150      0.1450
     99  CG        18.2860   17.2490    4.4780 C.2   150  ASP150      0.3671
    100  OD1       17.4630   17.7980    3.7110 O.co2 150  ASP150     -0.2456
    101  OD2       17.9370   16.6310    5.5000 O.co2 150  ASP150     -0.2456
    102  N         20.2310   16.7580    0.5090 N.am  151  MET151     -0.1977
    103  CA        19.8940   15.9760   -0.6590 C.3   151  MET151      0.1605
    104  C         21.0770   16.0640   -1.5980 C.2   151  MET151      0.2287
    105  O         21.9300   16.9390   -1.4580 O.2   151  MET151     -0.2864
    106  CB        18.6900   16.6080   -1.3700 C.3   151  MET151      0.0413
    107  CG        17.3970   16.7450   -0.5840 C.3   151  MET151      0.0598
    108  SD        16.6670   15.1800   -0.0560 S.3   151  MET151     -0.1393
    109  CE        15.9520   14.5690   -1.6000 C.3   151  MET151      0.0692
    110  N          9.5580   18.7990    0.1170 N.3   205  ALA205     -0.1245
    111  CA        10.9610   18.9370   -0.2200 C.3   205  ALA205      0.1562
    112  C         11.2690   19.2660   -1.6860 C.2   205  ALA205      0.2260
    113  O         12.4150   19.4900   -2.0240 O.2   205  ALA205     -0.2867
    114  CB        11.6850   17.6620    0.1830 C.3   205  ALA205      0.0290
@<TRIPOS>BOND
     1   113   112    2
     2   112   111    1
     3   109   108    1
     4   104   105    2
     5   104   103    1
     6   106   103    1
     7   106   107    1
     8    82    81    2
     9   103   102    1
    10   107   108    1
    11    79    80    1
    12   111   110    1
    13   111   114    1
    14    81    80    1
    15    81    87   am
    16   102    96   am
    17    80    83    1
    18    90    89    2
    19    88    87    1
    20    88    89    1
    21    88    91    1
    22    83    84    1
    23    89    94   am
    24    93    91    1
    25     9     7   ar
    26     9    11   ar
    27     1     2    1
    28    96    97    2
    29    96    95    1
    30    91    92    1
    31     7     6   ar
    32    84    85   ar
    33    84    86   ar
    34    11    10   ar
    35    71    70    2
    36    94    95    1
    37    77    76    1
    38    95    98    1
    39     2     3    1
    40     2     5    1
    41     6     5    1
    42     6     8   ar
    43    70    69    1
    44    10     8   ar
    45    76    78    1
    46    76    75    2
    47     3     4    2
    48    72    69    1
    49    72    73    1
    50    74    75    1
    51    74    73    1
    52   100    99   ar
    53    69    68    1
    54    98    99    1
    55    99   101   ar
    56    32    31    2
    57    65    64    2
    58    31    30    1
    59    36    38   ar
    60    36    34   ar
    61    12    13    1
    62    67    66    1
    63    33    30    1
    64    33    34    1
    65    64    63    1
    66    19    17    1
    67    38    39   ar
    68    30    29    1
    69    17    16    1
    70    34    35   ar
    71    63    66    1
    72    63    62    1
    73    58    57    2
    74    13    16    1
    75    13    14    1
    76    16    18    1
    77    57    62   am
    78    57    56    1
    79    39    40    1
    80    39    37   ar
    81    35    37   ar
    82    60    59    1
    83    14    15    2
    84    14    20   am
    85    23    22    2
    86    56    59    1
    87    56    55    1
    88    20    21    1
    89    59    61    1
    90    22    21    1
    91    44    43    2
    92    53    51   ar
    93    53    54   ar
    94    21    24    1
    95    51    48   ar
    96    54    52   ar
    97    43    42    1
    98    24    25    1
    99    48    46   ar
   100    48    50   ar
   101    25    26    1
   102    45    42    1
   103    45    46    1
   104    42    41    1
   105    52    50   ar
   106    46    47   ar
   107    27    26    1
   108    27    28    1
   109    50    49   ar
   110    47    49   ar
