@<TRIPOS>MOLECULE
tmp/4y68D01.pdb
 81 80 0 0 0
SMALL
GASTEIGER

@<TRIPOS>ATOM
      1  N         61.8200  159.3470   -5.2160 N.3     7  PRO7       -0.2103
      2  CA        61.8980  160.2320   -6.3900 C.3     7  PRO7        0.1489
      3  C         61.2440  161.6110   -6.1650 C.2     7  PRO7        0.2418
      4  O         60.3330  161.7230   -5.3690 O.2     7  PRO7       -0.2734
      5  CB        61.1450  159.4470   -7.4690 C.3     7  PRO7        0.0282
      6  CG        61.1570  157.9930   -6.9810 C.3     7  PRO7        0.0208
      7  CD        61.1080  158.0850   -5.4990 C.3     7  PRO7        0.0893
      8  N         61.6960  162.6450   -6.8870 N.am    8  PRO8       -0.2718
      9  CA        61.0990  163.9790   -6.7830 C.3     8  PRO8        0.1535
     10  C         59.6290  164.0220   -7.2150 C.2     8  PRO8        0.2599
     11  O         59.1880  163.2070   -8.0230 O.2     8  PRO8       -0.2715
     12  CB        61.9480  164.8100   -7.7400 C.3     8  PRO8        0.0310
     13  CG        62.4520  163.8200   -8.7410 C.3     8  PRO8        0.0237
     14  CD        62.7440  162.6000   -7.9170 C.3     8  PRO8        0.0939
     15  N         58.8780  164.9680   -6.6620 N.am    9  SER9       -0.1936
     16  CA        57.5430  165.2710   -7.1570 C.3     9  SER9        0.2055
     17  C         57.6170  165.8050   -8.5750 C.2     9  SER9        0.2643
     18  O         58.6890  166.2310   -9.0330 O.2     9  SER9       -0.2714
     19  CB        56.8650  166.3040   -6.2650 C.3     9  SER9        0.2130
     20  OG        57.5800  167.5300   -6.3570 O.3     9  SER9       -0.2179
     21  N         56.4790  165.8240   -9.2600 N.am   10  SER10      -0.1949
     22  CA        56.4240  166.4000  -10.6040 C.3    10  SER10       0.1924
     23  C         56.8760  167.8630  -10.6180 C.2    10  SER10       0.2314
     24  O         57.5720  168.3060  -11.5340 O.2    10  SER10      -0.2863
     25  CB        55.0150  166.2860  -11.1940 C.3    10  SER10       0.2116
     26  OG        54.5900  164.9360  -11.2700 O.3    10  SER10      -0.2180
     27  N         51.0510  166.9830  -13.0290 N.3    48  LYS48      -0.1231
     28  CA        50.7610  165.6670  -12.4890 C.3    48  LYS48       0.1693
     29  C         51.7200  164.5670  -12.9940 C.2    48  LYS48       0.2593
     30  O         51.5000  163.4070  -12.7240 O.2    48  LYS48      -0.2718
     31  CB        49.3190  165.2660  -12.8300 C.3    48  LYS48       0.0285
     32  CG        48.2530  166.3730  -12.6440 C.3    48  LYS48       0.0035
     33  CD        47.6330  166.3460  -11.2410 C.3    48  LYS48       0.0206
     34  CE        46.3000  167.1100  -11.1650 C.3    48  LYS48       0.1093
     35  NZ        46.4140  168.5820  -11.4320 N.3    48  LYS48      -0.1314
     36  N         52.7570  164.9250  -13.7390 N.am   49  SER49      -0.1938
     37  CA        53.7520  163.9470  -14.1730 C.3    49  SER49       0.2055
     38  C         55.0090  164.6330  -14.6770 C.2    49  SER49       0.2643
     39  O         54.9860  165.8180  -14.9760 O.2    49  SER49      -0.2714
     40  CB        53.1960  163.0440  -15.2760 C.3    49  SER49       0.2130
     41  OG        53.2160  163.7040  -16.5360 O.3    49  SER49      -0.2179
     42  N         56.0900  163.8710  -14.7880 N.am   50  TYR50      -0.1959
     43  CA        57.3300  164.3610  -15.3750 C.3    50  TYR50       0.1771
     44  C         57.1370  164.8550  -16.8170 C.2    50  TYR50       0.2619
     45  O         57.7200  165.8760  -17.2060 O.2    50  TYR50      -0.2715
     46  CB        58.4110  163.2700  -15.3380 C.3    50  TYR50       0.0574
     47  CG        58.8540  162.8440  -13.9390 C.ar   50  TYR50      -0.0198
     48  CD1       58.4630  163.5480  -12.8150 C.ar   50  TYR50      -0.0009
     49  CD2       59.6730  161.7410  -13.7570 C.ar   50  TYR50      -0.0009
     50  CE1       58.8610  163.1730  -11.5570 C.ar   50  TYR50       0.0417
     51  CE2       60.0650  161.3470  -12.4950 C.ar   50  TYR50       0.0417
     52  CZ        59.6570  162.0730  -11.4010 C.ar   50  TYR50       0.1957
     53  OH        60.0530  161.6950  -10.1490 O.3    50  TYR50      -0.2866
     54  N         56.3500  164.1360  -17.6180 N.am   51  GLN51      -0.1977
     55  CA        56.2190  164.5130  -19.0300 C.3    51  GLN51       0.1601
     56  C         55.4950  165.8410  -19.0890 C.2    51  GLN51       0.2287
     57  O         55.8800  166.7400  -19.8250 O.2    51  GLN51      -0.2864
     58  CB        55.4820  163.4530  -19.8700 C.3    51  GLN51       0.0394
     59  CG        55.3550  163.8310  -21.3960 C.3    51  GLN51       0.0908
     60  CD        56.6100  163.5040  -22.2750 C.2    51  GLN51       0.2608
     61  OE1       57.1990  162.4220  -22.1710 O.2    51  GLN51      -0.2717
     62  NE2       56.9920  164.4410  -23.1560 N.am   51  GLN51      -0.0878
     63  N         57.9640  168.4580  -18.2150 N.3    54  ARG54      -0.1245
     64  CA        58.7840  168.7690  -19.3770 C.3    54  ARG54       0.1563
     65  C         58.0370  169.7040  -20.3280 C.2    54  ARG54       0.2260
     66  O         58.6400  170.6420  -20.8490 O.2    54  ARG54      -0.2867
     67  CB        59.2310  167.4940  -20.1020 C.3    54  ARG54       0.0307
     68  CG        60.2440  166.6760  -19.2960 C.3    54  ARG54       0.0489
     69  CD        60.9260  165.6010  -20.1350 C.3    54  ARG54       0.2205
     70  NE        59.9720  164.5800  -20.5410 N.pl3  54  ARG54      -0.0865
     71  CZ        59.5980  163.5700  -19.7700 C.cat  54  ARG54       0.5346
     72  NH1       60.0970  163.4310  -18.5450 N.pl3  54  ARG54       0.1354
     73  NH2       58.7300  162.6940  -20.2290 N.pl3  54  ARG54       0.1354
     74  N         64.3990  160.5010  -14.5360 N.3   242  ASP242     -0.1239
     75  CA        63.7510  159.3870  -15.1990 C.3   242  ASP242      0.1674
     76  C         64.4810  158.9350  -16.4670 C.2   242  ASP242      0.2266
     77  O         63.9860  158.0820  -17.1930 O.2   242  ASP242     -0.2867
     78  CB        62.3100  159.7510  -15.5430 C.3   242  ASP242      0.1410
     79  CG        62.2220  160.9310  -16.4710 C.2   242  ASP242      0.3668
     80  OD1       63.2160  161.6820  -16.5780 O.co2 242  ASP242     -0.2456
     81  OD2       61.1600  161.1150  -17.0920 O.co2 242  ASP242     -0.2456
@<TRIPOS>BOND
     1    62    60   am
     2    60    61    2
     3    60    59    1
     4    59    58    1
     5    66    65    2
     6    70    69    1
     7    70    71    2
     8    65    64    1
     9    73    71    1
    10    69    68    1
    11    67    64    1
    12    67    68    1
    13    58    55    1
    14    57    56    2
    15    71    72    1
    16    64    63    1
    17    56    55    1
    18    55    54    1
    19    54    44   am
    20    45    44    2
    21    77    76    2
    22    81    79   ar
    23    44    43    1
    24    80    79   ar
    25    41    40    1
    26    79    78    1
    27    76    75    1
    28    78    75    1
    29    43    46    1
    30    43    42    1
    31    46    47    1
    32    40    37    1
    33    75    74    1
    34    39    38    2
    35    42    38   am
    36    38    37    1
    37    37    36    1
    38    47    49   ar
    39    47    48   ar
    40    49    51   ar
    41    36    29   am
    42    27    28    1
    43    29    30    2
    44    29    28    1
    45    31    32    1
    46    31    28    1
    47    48    50   ar
    48    32    33    1
    49    51    52   ar
    50    50    52   ar
    51    24    23    2
    52    35    34    1
    53    52    53    1
    54    26    25    1
    55    33    34    1
    56    25    22    1
    57    23    22    1
    58    22    21    1
    59    21    17   am
    60    18    17    2
    61    13    14    1
    62    13    12    1
    63    17    16    1
    64    11    10    2
    65    14     8    1
    66    12     9    1
    67     5     6    1
    68     5     2    1
    69    10     9    1
    70    10    15   am
    71    16    15    1
    72    16    19    1
    73     6     7    1
    74     8     9    1
    75     8     3   am
    76     2     3    1
    77     2     1    1
    78    20    19    1
    79     3     4    2
    80     7     1    1
