@<TRIPOS>MOLECULE
tmp/4y6aN00.pdb
 120 111 0 0 0
SMALL
GASTEIGER

@<TRIPOS>ATOM
      1  N         43.9670 -143.4550   63.0670 N.3     1  THR1       -0.1218
      2  CA        43.7900 -142.7890   64.3770 C.3     1  THR1        0.1862
      3  C         42.8780 -143.3910   65.4620 C.2     1  THR1        0.2287
      4  O         41.8890 -143.9910   65.1820 O.2     1  THR1       -0.2866
      5  CB        43.3100 -141.3900   64.0760 C.3     1  THR1        0.1770
      6  OG1       44.3610 -140.8160   63.4000 O.3     1  THR1       -0.2211
      7  CG2       42.9780 -140.5490   65.2870 C.3     1  THR1        0.0375
      8  N         50.2960 -142.0020   65.9000 N.3    19  ARG19      -0.1231
      9  CA        50.6870 -142.6580   64.6460 C.3    19  ARG19       0.1694
     10  C         50.0530 -141.9790   63.4270 C.2    19  ARG19       0.2593
     11  O         48.8470 -141.7360   63.3970 O.2    19  ARG19      -0.2718
     12  CB        50.3150 -144.1520   64.6860 C.3    19  ARG19       0.0321
     13  CG        50.7600 -144.9570   63.4700 C.3    19  ARG19       0.0489
     14  CD        50.6350 -146.4620   63.6890 C.3    19  ARG19       0.2205
     15  NE        51.6410 -146.9800   64.6190 N.pl3  19  ARG19      -0.0865
     16  CZ        51.8450 -148.2710   64.8770 C.cat  19  ARG19       0.5346
     17  NH1       51.1160 -149.2110   64.2780 N.pl3  19  ARG19       0.1354
     18  NH2       52.7920 -148.6270   65.7390 N.pl3  19  ARG19       0.1354
     19  N         50.8790 -141.6630   62.4330 N.am   20  THR20      -0.1939
     20  CA        50.4100 -141.1580   61.1420 C.3    20  THR20       0.2028
     21  C         50.9210 -142.0860   60.0490 C.2    20  THR20       0.2643
     22  O         52.1230 -142.3250   59.9550 O.2    20  THR20      -0.2714
     23  CB        50.9340 -139.7350   60.8640 C.3    20  THR20       0.1808
     24  OG1       50.5280 -138.8550   61.9190 O.3    20  THR20      -0.2208
     25  CG2       50.4040 -139.2050   59.5390 C.3    20  THR20       0.0379
     26  N         50.0140 -142.5920   59.2190 N.am   21  THR21      -0.1936
     27  CA        50.3650 -143.6000   58.2180 C.3    21  THR21       0.2028
     28  C         50.1760 -143.1230   56.7820 C.2    21  THR21       0.2642
     29  O         49.2830 -142.3300   56.4920 O.2    21  THR21      -0.2714
     30  CB        49.5180 -144.8740   58.3960 C.3    21  THR21       0.1808
     31  OG1       48.1300 -144.5230   58.4170 O.3    21  THR21      -0.2208
     32  CG2       49.8840 -145.5960   59.6900 C.3    21  THR21       0.0379
     33  N         51.0170 -143.6300   55.8940 N.am   22  THR22      -0.1950
     34  CA        50.8230 -143.6140   54.4530 C.3    22  THR22       0.1897
     35  C         50.8040 -145.0520   53.9800 C.2    22  THR22       0.2313
     36  O         51.8070 -145.6130   53.6730 O.2    22  THR22      -0.2863
     37  CB        51.9590 -142.9170   53.7070 C.3    22  THR22       0.1794
     38  OG1       52.0060 -141.5480   54.0510 O.3    22  THR22      -0.2208
     39  CG2       51.7020 -142.9660   52.2580 C.3    22  THR22       0.0378
     40  N         54.4680 -142.9000   58.6900 N.3    27  ALA27      -0.1245
     41  CA        55.1470 -141.6700   58.2670 C.3    27  ALA27       0.1562
     42  C         55.6030 -140.7960   59.4390 C.2    27  ALA27       0.2260
     43  O         56.5400 -140.0160   59.3000 O.2    27  ALA27      -0.2867
     44  CB        54.2530 -140.8680   57.3300 C.3    27  ALA27       0.0290
     45  N         53.3810 -138.1300   66.3640 N.3    31  THR31      -0.1218
     46  CA        52.4990 -137.0440   65.9270 C.3    31  THR31       0.1862
     47  C         51.6940 -136.4660   67.0940 C.2    31  THR31       0.2287
     48  O         51.3190 -137.1930   68.0130 O.2    31  THR31      -0.2866
     49  CB        51.5000 -137.5490   64.8610 C.3    31  THR31       0.1770
     50  OG1       52.1880 -138.3520   63.8910 O.3    31  THR31      -0.2211
     51  CG2       50.8040 -136.3890   64.1560 C.3    31  THR31       0.0375
     52  N         48.1950 -135.0300   67.7240 N.3    33  LYS33      -0.1245
     53  CA        46.8500 -134.9300   67.1510 C.3    33  LYS33       0.1561
     54  C         45.9240 -134.0530   67.9950 C.2    33  LYS33       0.2260
     55  O         44.7960 -133.7730   67.5890 O.2    33  LYS33      -0.2867
     56  CB        46.2500 -136.3310   66.9870 C.3    33  LYS33       0.0271
     57  CG        47.0960 -137.2450   66.1120 C.3    33  LYS33       0.0035
     58  CD        46.4880 -138.6280   65.9520 C.3    33  LYS33       0.0206
     59  CE        47.3980 -139.5240   65.1270 C.3    33  LYS33       0.1093
     60  NZ        46.7810 -140.8490   64.8370 N.3    33  LYS33      -0.1314
     61  N         41.9830 -134.6030   66.0410 N.3    45  ARG45      -0.1231
     62  CA        41.8950 -134.7150   64.5830 C.3    45  ARG45       0.1694
     63  C         41.9880 -136.1620   64.1030 C.2    45  ARG45       0.2593
     64  O         42.8260 -136.9290   64.5800 O.2    45  ARG45      -0.2718
     65  CB        43.0060 -133.9010   63.9190 C.3    45  ARG45       0.0321
     66  CG        43.2180 -132.5210   64.5220 C.3    45  ARG45       0.0489
     67  CD        44.2360 -131.7100   63.7340 C.3    45  ARG45       0.2205
     68  NE        45.6130 -132.0810   64.0700 N.pl3  45  ARG45      -0.0865
     69  CZ        46.4300 -132.8130   63.3150 C.cat  45  ARG45       0.5346
     70  NH1       46.0460 -133.3100   62.1390 N.pl3  45  ARG45       0.1354
     71  NH2       47.6600 -133.0600   63.7590 N.pl3  45  ARG45       0.1354
     72  N         41.1210 -136.5160   63.1540 N.am   46  SER46      -0.1938
     73  CA        41.1900 -137.8000   62.4560 C.3    46  SER46       0.2055
     74  C         40.7770 -137.6110   61.0000 C.2    46  SER46       0.2644
     75  O         40.0040 -136.7060   60.6810 O.2    46  SER46      -0.2714
     76  CB        40.2970 -138.8440   63.1320 C.3    46  SER46       0.2130
     77  OG        38.9220 -138.5480   62.9620 O.3    46  SER46      -0.2179
     78  N         41.2940 -138.4760   60.1300 N.am   47  GLY47      -0.1939
     79  CA        41.0610 -138.3820   58.6900 C.3    47  GLY47       0.2014
     80  C         42.2920 -137.8360   57.9970 C.2    47  GLY47       0.2640
     81  O         43.4130 -138.0510   58.4620 O.2    47  GLY47      -0.2714
     82  N         42.0870 -137.1320   56.8860 N.am   48  SER48      -0.1935
     83  CA        43.1910 -136.5230   56.1450 C.3    48  SER48       0.2055
     84  C         43.9330 -135.5150   57.0190 C.2    48  SER48       0.2643
     85  O         43.3220 -134.6000   57.5770 O.2    48  SER48      -0.2714
     86  CB        42.6800 -135.8280   54.8780 C.3    48  SER48       0.2130
     87  OG        43.6860 -135.0050   54.3050 O.3    48  SER48      -0.2179
     88  N         45.2480 -135.6880   57.1320 N.am   49  ALA49      -0.1963
     89  CA        46.0840 -134.8020   57.9470 C.3    49  ALA49       0.1728
     90  C         46.1350 -133.3930   57.3650 C.2    49  ALA49       0.2616
     91  O         46.1490 -132.4140   58.1110 O.2    49  ALA49      -0.2715
     92  CB        47.4890 -135.3660   58.0740 C.3    49  ALA49       0.0334
     93  N         46.1610 -133.2960   56.0370 N.am   50  ALA50      -0.1977
     94  CA        46.1190 -132.0040   55.3590 C.3    50  ALA50       0.1597
     95  C         44.8180 -131.2670   55.6730 C.2    50  ALA50       0.2287
     96  O         44.8410 -130.1010   56.0780 O.2    50  ALA50      -0.2864
     97  CB        46.2680 -132.1880   53.8550 C.3    50  ALA50       0.0319
     98  N         42.4770 -131.6810   58.0890 N.3    52  THR52      -0.1218
     99  CA        42.2320 -131.3360   59.4940 C.3    52  THR52       0.1862
    100  C         43.1620 -130.2350   60.0010 C.2    52  THR52       0.2287
    101  O         42.7840 -129.4590   60.8820 O.2    52  THR52      -0.2866
    102  CB        42.3480 -132.5620   60.4270 C.3    52  THR52       0.1770
    103  OG1       43.6630 -133.1260   60.3400 O.3    52  THR52      -0.2211
    104  CG2       41.3000 -133.6160   60.0660 C.3    52  THR52       0.0375
    105  N         38.0010 -142.0340   64.9850 N.3   128  GLY128     -0.1210
    106  CA        39.1800 -142.6030   64.3350 C.3   128  GLY128      0.1956
    107  C         38.9810 -144.0810   64.0520 C.2   128  GLY128      0.2612
    108  O         38.0720 -144.7060   64.5940 O.2   128  GLY128     -0.2717
    109  N         39.8440 -144.6400   63.2070 N.am  129  SER129     -0.1952
    110  CA        39.7530 -146.0490   62.8170 C.3   129  SER129      0.1924
    111  C         39.7610 -147.0030   64.0180 C.2   129  SER129      0.2314
    112  O         39.0330 -147.9940   64.0280 O.2   129  SER129     -0.2863
    113  CB        40.8900 -146.4120   61.8570 C.3   129  SER129      0.2116
    114  OG        42.1520 -146.0890   62.4110 O.3   129  SER129     -0.2180
    115  N         46.5280 -149.0830   62.3820 N.3   168  SER168     -0.1217
    116  CA        46.6540 -147.6630   62.0560 C.3   168  SER168      0.1889
    117  C         46.9550 -146.7830   63.2740 C.2   168  SER168      0.2288
    118  O         47.4270 -145.6600   63.1160 O.2   168  SER168     -0.2866
    119  CB        45.3810 -147.1620   61.3650 C.3   168  SER168      0.2089
    120  OG        45.0640 -147.9560   60.2300 O.3   168  SER168     -0.2183
@<TRIPOS>BOND
     1    39    37    1
     2    36    35    2
     3    37    38    1
     4    37    34    1
     5    97    94    1
     6    35    34    1
     7    87    86    1
     8    34    33    1
     9    86    83    1
    10    94    95    1
    11    94    93    1
    12    95    96    2
    13    33    28   am
    14    93    90   am
    15    83    82    1
    16    83    84    1
    17    29    28    2
    18    28    27    1
    19    82    80   am
    20    84    88   am
    21    84    85    2
    22    88    89    1
    23    44    41    1
    24    90    89    1
    25    90    91    2
    26    89    92    1
    27    80    81    2
    28    80    79    1
    29    98    99    1
    30    27    30    1
    31    27    26    1
    32    41    40    1
    33    41    42    1
    34    30    31    1
    35    30    32    1
    36    79    78    1
    37    26    21   am
    38    43    42    2
    39    99   100    1
    40    99   102    1
    41    25    23    1
    42    22    21    2
    43   100   101    2
    44    21    20    1
    45   104   102    1
    46    78    74   am
    47   120   119    1
    48   103   102    1
    49    75    74    2
    50    23    20    1
    51    23    24    1
    52    74    73    1
    53    20    19    1
    54   119   116    1
    55   113   114    1
    56   113   110    1
    57   116   115    1
    58   116   117    1
    59    70    69    1
    60    19    10   am
    61    73    76    1
    62    73    72    1
    63   110   109    1
    64   110   111    1
    65    77    76    1
    66     1     2    1
    67   118   117    2
    68    72    63   am
    69   109   107   am
    70    69    71    1
    71    69    68    2
    72    11    10    2
    73     6     5    1
    74    10     9    1
    75    13    14    1
    76    13    12    1
    77    14    15    1
    78    67    68    1
    79    67    66    1
    80    50    49    1
    81    65    66    1
    82    65    62    1
    83   111   112    2
    84   107   106    1
    85   107   108    2
    86     5     2    1
    87     5     7    1
    88    63    64    2
    89    63    62    1
    90    51    49    1
    91    17    16    1
    92   106   105    1
    93     2     3    1
    94    62    61    1
    95    15    16    2
    96     9    12    1
    97     9     8    1
    98    60    59    1
    99    49    46    1
   100    16    18    1
   101    59    58    1
   102     4     3    2
   103    46    45    1
   104    46    47    1
   105    58    57    1
   106    57    56    1
   107    56    53    1
   108    47    48    2
   109    53    52    1
   110    53    54    1
   111    55    54    2
