@<TRIPOS>MOLECULE
tmp/4y6gB01.pdb
 185 179 0 0 0
SMALL
GASTEIGER

@<TRIPOS>ATOM
      1  N         -7.2120   21.3450  -26.9880 N.3    86  LYS86      -0.1245
      2  CA        -8.6130   21.6410  -27.3250 C.3    86  LYS86       0.1561
      3  C         -9.0410   20.9380  -28.5980 C.2    86  LYS86       0.2260
      4  O        -10.1860   20.5640  -28.7520 O.2    86  LYS86      -0.2867
      5  CB        -8.8300   23.1490  -27.4820 C.3    86  LYS86       0.0271
      6  CG        -8.7250   23.9010  -26.1410 C.3    86  LYS86       0.0035
      7  CD        -9.2060   25.3240  -26.3180 C.3    86  LYS86       0.0206
      8  CE        -9.2720   26.1150  -25.0370 C.3    86  LYS86       0.1093
      9  NZ        -7.9550   26.3890  -24.4080 N.3    86  LYS86      -0.1314
     10  N        -18.1660   29.7090  -28.3460 N.3   108  GLU108     -0.1231
     11  CA       -17.7270   30.8800  -27.6210 C.3   108  GLU108      0.1699
     12  C        -16.2240   30.8270  -27.5580 C.2   108  GLU108      0.2593
     13  O        -15.6630   29.7300  -27.5900 O.2   108  GLU108     -0.2718
     14  CB       -18.2970   30.8260  -26.1820 C.3   108  GLU108      0.0402
     15  CG       -17.4690   29.9960  -25.1830 C.3   108  GLU108      0.1161
     16  CD       -17.5110   28.4770  -25.4010 C.2   108  GLU108      0.3649
     17  OE1      -18.3720   27.9650  -26.2050 O.co2 108  GLU108     -0.2457
     18  OE2      -16.6570   27.7770  -24.7450 O.co2 108  GLU108     -0.2457
     19  N        -15.5700   31.9770  -27.4130 N.am  109  THR109     -0.1939
     20  CA       -14.1290   31.9940  -27.1190 C.3   109  THR109      0.2028
     21  C        -13.7310   33.2680  -26.3560 C.2   109  THR109      0.2643
     22  O        -14.3060   34.3390  -26.5840 O.2   109  THR109     -0.2714
     23  CB       -13.3210   31.8360  -28.4380 C.3   109  THR109      0.1808
     24  OG1      -11.9700   31.4330  -28.1570 O.3   109  THR109     -0.2208
     25  CG2      -13.2760   33.1100  -29.2420 C.3   109  THR109      0.0379
     26  N        -12.7430   33.1440  -25.4590 N.am  110  GLY110     -0.1939
     27  CA       -12.1910   34.3060  -24.7570 C.3   110  GLY110      0.2014
     28  C        -10.8170   34.6620  -25.3190 C.2   110  GLY110      0.2639
     29  O        -10.6600   35.6560  -25.9870 O.2   110  GLY110     -0.2714
     30  N         -9.8370   33.8070  -25.0510 N.am  111  ALA111     -0.1963
     31  CA        -8.4690   34.0080  -25.5220 C.3   111  ALA111      0.1728
     32  C         -8.3580   33.6870  -27.0100 C.2   111  ALA111      0.2617
     33  O         -7.3380   33.9800  -27.6230 O.2   111  ALA111     -0.2715
     34  CB        -7.5050   33.1230  -24.7260 C.3   111  ALA111      0.0334
     35  N         -9.4090   33.0830  -27.5760 N.am  112  GLY112     -0.1940
     36  CA        -9.4060   32.7360  -28.9860 C.3   112  GLY112      0.2014
     37  C         -9.0010   31.3250  -29.3230 C.2   112  GLY112      0.2639
     38  O         -9.1590   30.9220  -30.4980 O.2   112  GLY112     -0.2714
     39  N         -8.4320   30.5630  -28.3590 N.am  113  GLN113     -0.1963
     40  CA        -7.9500   29.2080  -28.6790 C.3   113  GLN113      0.1733
     41  C         -9.0890   28.2580  -28.9750 C.2   113  GLN113      0.2616
     42  O         -8.9940   27.4690  -29.8930 O.2   113  GLN113     -0.2715
     43  CB        -7.0180   28.5660  -27.6160 C.3   113  GLN113      0.0408
     44  CG        -6.4920   27.1430  -28.0140 C.3   113  GLN113      0.0908
     45  CD        -5.6730   27.0790  -29.3070 C.2   113  GLN113      0.2608
     46  OE1       -5.8890   26.2110  -30.1720 O.2   113  GLN113     -0.2717
     47  NE2       -4.7570   28.0040  -29.4590 N.am  113  GLN113     -0.0878
     48  N        -10.1520   28.3050  -28.1750 N.am  114  HIS114     -0.1973
     49  CA       -11.2850   27.4610  -28.4580 C.3   114  HIS114      0.1656
     50  C        -11.9440   27.8590  -29.7680 C.2   114  HIS114      0.2291
     51  O        -12.4000   26.9740  -30.4930 O.2   114  HIS114     -0.2864
     52  CB       -12.3230   27.4170  -27.3480 C.3   114  HIS114      0.0771
     53  CG       -13.4430   26.4830  -27.6480 C.ar  114  HIS114      0.0820
     54  ND1      -13.2580   25.1370  -27.8790 N.ar  114  HIS114     -0.2267
     55  CD2      -14.7590   26.7250  -27.8380 C.ar  114  HIS114      0.1154
     56  CE1      -14.4240   24.5890  -28.1650 C.ar  114  HIS114      0.1986
     57  NE2      -15.3450   25.5360  -28.1610 N.ar  114  HIS114     -0.2212
     58  N        -15.5590   37.0050  -22.0560 N.3   165  LEU165     -0.1245
     59  CA       -15.9520   35.6050  -22.2190 C.3   165  LEU165      0.1561
     60  C        -17.3650   35.2970  -21.7380 C.2   165  LEU165      0.2260
     61  O        -18.1200   34.6370  -22.4330 O.2   165  LEU165     -0.2867
     62  CB       -14.9390   34.6960  -21.5150 C.3   165  LEU165      0.0270
     63  CG       -15.2550   33.1990  -21.4450 C.3   165  LEU165      0.0019
     64  CD1      -15.3800   32.5930  -22.8380 C.3   165  LEU165      0.0001
     65  CD2      -14.1930   32.4520  -20.6410 C.3   165  LEU165      0.0001
     66  N        -20.3830   33.7000  -23.9900 N.3   169  CYS169     -0.1221
     67  CA       -21.0590   32.4600  -23.6190 C.3   169  CYS169      0.1808
     68  C        -22.5620   32.7040  -23.6610 C.2   169  CYS169      0.2601
     69  O        -23.3130   31.9010  -24.2080 O.2   169  CYS169     -0.2717
     70  CB       -20.6790   32.0260  -22.2040 C.3   169  CYS169      0.0970
     71  SG       -18.9730   31.4220  -22.0180 S.3   169  CYS169     -0.0800
     72  N        -22.9910   33.8290  -23.0920 N.am  170  ASN170     -0.1974
     73  CA       -24.4410   34.0930  -23.0360 C.3   170  ASN170      0.1688
     74  C        -25.0490   34.3100  -24.4080 C.2   170  ASN170      0.2292
     75  O        -26.1370   33.7950  -24.7060 O.2   170  ASN170     -0.2864
     76  CB       -24.7240   35.2560  -22.0920 C.3   170  ASN170      0.1181
     77  CG       -24.5510   34.8460  -20.6440 C.2   170  ASN170      0.2629
     78  OD1      -24.9970   33.7740  -20.2530 O.2   170  ASN170     -0.2716
     79  ND2      -23.8850   35.6610  -19.8700 N.am  170  ASN170     -0.0877
     80  N        -25.4480   30.9450  -26.1070 N.3   173  LEU173     -0.1245
     81  CA       -26.6060   30.1870  -25.5980 C.3   173  LEU173      0.1561
     82  C        -27.9210   30.7780  -26.1070 C.2   173  LEU173      0.2260
     83  O        -28.8480   30.0360  -26.4490 O.2   173  LEU173     -0.2867
     84  CB       -26.6210   30.1500  -24.0880 C.3   173  LEU173      0.0270
     85  CG       -25.5790   29.2120  -23.4550 C.3   173  LEU173      0.0019
     86  CD1      -25.5150   29.5040  -21.9770 C.3   173  LEU173      0.0001
     87  CD2      -25.9260   27.7480  -23.6950 C.3   173  LEU173      0.0001
     88  N        -24.0750   23.6230  -30.3240 N.3   185  TYR185     -0.1241
     89  CA       -23.2640   24.4730  -29.4810 C.3   185  TYR185      0.1605
     90  C        -22.0240   23.7280  -28.9980 C.2   185  TYR185      0.2264
     91  O        -22.1180   22.8290  -28.1840 O.2   185  TYR185     -0.2867
     92  CB       -24.0460   24.9940  -28.2710 C.3   185  TYR185      0.0534
     93  CG       -23.2080   25.8560  -27.3570 C.ar  185  TYR185     -0.0201
     94  CD1      -22.2590   26.7450  -27.8620 C.ar  185  TYR185     -0.0009
     95  CD2      -23.3070   25.7210  -25.9810 C.ar  185  TYR185     -0.0009
     96  CE1      -21.4470   27.5000  -27.0230 C.ar  185  TYR185      0.0417
     97  CE2      -22.5240   26.4910  -25.1380 C.ar  185  TYR185      0.0417
     98  CZ       -21.5890   27.3680  -25.6530 C.ar  185  TYR185      0.1957
     99  OH       -20.7850   28.0960  -24.7680 O.3   185  TYR185     -0.2866
    100  N        -19.3130   23.7670  -26.8510 N.3   187  LEU187     -0.1231
    101  CA       -18.8170   24.3970  -25.6070 C.3   187  LEU187      0.1693
    102  C        -17.3470   24.0170  -25.4280 C.2   187  LEU187      0.2593
    103  O        -16.9360   22.8800  -25.7520 O.2   187  LEU187     -0.2718
    104  CB       -19.6870   23.9360  -24.4470 C.3   187  LEU187      0.0284
    105  CG       -19.8170   24.7900  -23.1920 C.3   187  LEU187      0.0019
    106  CD1      -21.0850   24.4070  -22.4360 C.3   187  LEU187      0.0001
    107  CD2      -18.6030   24.6470  -22.2830 C.3   187  LEU187      0.0001
    108  N        -16.5540   24.9450  -24.9060 N.am  188  GLY188     -0.1942
    109  CA       -15.1340   24.7920  -24.9460 C.3   188  GLY188      0.2014
    110  C        -14.3900   24.2740  -23.7380 C.2   188  GLY188      0.2639
    111  O        -13.1800   24.3010  -23.7320 O.2   188  GLY188     -0.2714
    112  N        -15.0960   23.8450  -22.7100 N.am  189  THR189     -0.1950
    113  CA       -14.3800   23.2490  -21.5740 C.3   189  THR189      0.1897
    114  C        -15.2810   22.2120  -20.8750 C.2   189  THR189      0.2313
    115  O        -16.4180   21.9920  -21.3180 O.2   189  THR189     -0.2863
    116  CB       -13.8750   24.3030  -20.6040 C.3   189  THR189      0.1794
    117  OG1      -12.9840   23.6760  -19.6560 O.3   189  THR189     -0.2208
    118  CG2      -15.0080   25.0020  -19.8980 C.3   189  THR189      0.0378
    119  N        -17.1880   22.0760  -18.4480 N.3   191  ALA191     -0.1231
    120  CA       -18.0480   22.8170  -17.5390 C.3   191  ALA191      0.1694
    121  C        -19.3490   23.1540  -18.2990 C.2   191  ALA191      0.2593
    122  O        -19.5540   22.6860  -19.4140 O.2   191  ALA191     -0.2718
    123  CB       -17.3560   24.0690  -17.0490 C.3   191  ALA191      0.0304
    124  N        -20.2140   23.9270  -17.6670 N.am  192  GLY192     -0.1943
    125  CA       -21.5050   24.2300  -18.2490 C.3   192  GLY192      0.1998
    126  C        -22.5030   23.1520  -17.8660 C.2   192  GLY192      0.2480
    127  O        -22.2290   22.2810  -17.0290 O.2   192  GLY192     -0.2729
    128  N        -23.7070   23.1950  -18.4620 N.am  193  PRO193     -0.2726
    129  CA       -24.7060   22.2450  -18.1050 C.3   193  PRO193      0.1402
    130  C        -24.4390   20.8360  -18.6240 C.2   193  PRO193      0.2269
    131  O        -23.8270   20.6600  -19.6820 O.2   193  PRO193     -0.2865
    132  CB       -25.9500   22.7960  -18.8020 C.3   193  PRO193      0.0296
    133  CG       -25.4250   23.4850  -19.9890 C.3   193  PRO193      0.0237
    134  CD       -24.1090   24.0520  -19.6000 C.3   193  PRO193      0.0939
    135  N        -11.0640   25.9020  -17.0300 N.3   232  GLY232     -0.1225
    136  CA       -12.3710   25.3320  -16.9100 C.3   232  GLY232      0.1811
    137  C        -12.3270   23.8610  -16.5260 C.2   232  GLY232      0.2280
    138  O        -13.2690   23.3570  -15.9450 O.2   232  GLY232     -0.2866
    139  N        -24.3640   29.2000  -11.9410 N.3   278  TYR278     -0.1227
    140  CA       -24.1580   30.0640  -13.1060 C.3   278  TYR278      0.1736
    141  C        -23.5170   29.2240  -14.2100 C.2   278  TYR278      0.2595
    142  O        -23.0290   28.1380  -13.9500 O.2   278  TYR278     -0.2718
    143  CB       -23.3140   31.3170  -12.7920 C.3   278  TYR278      0.0548
    144  CG       -23.1030   32.1690  -14.0430 C.ar  278  TYR278     -0.0200
    145  CD1      -24.1240   32.3290  -14.9950 C.ar  278  TYR278     -0.0009
    146  CD2      -21.9020   32.7740  -14.2930 C.ar  278  TYR278     -0.0009
    147  CE1      -23.9290   33.0610  -16.1570 C.ar  278  TYR278      0.0417
    148  CE2      -21.7030   33.5300  -15.4440 C.ar  278  TYR278      0.0417
    149  CZ       -22.7090   33.6650  -16.3750 C.ar  278  TYR278      0.1957
    150  OH       -22.4740   34.4180  -17.5160 O.3   278  TYR278     -0.2866
    151  N        -23.6070   29.6880  -15.4590 N.am  279  PHE279     -0.1962
    152  CA       -23.0270   28.9510  -16.5790 C.3   279  PHE279      0.1771
    153  C        -23.7510   27.5960  -16.6970 C.2   279  PHE279      0.2620
    154  O        -23.1680   26.6360  -17.1400 O.2   279  PHE279     -0.2715
    155  CB       -21.5100   28.7110  -16.4220 C.3   279  PHE279      0.0574
    156  CG       -20.7020   29.9520  -16.1640 C.ar  279  PHE279     -0.0200
    157  CD1      -20.5370   30.9230  -17.1630 C.ar  279  PHE279     -0.0042
    158  CD2      -20.1090   30.1720  -14.9360 C.ar  279  PHE279     -0.0042
    159  CE1      -19.7810   32.0750  -16.9260 C.ar  279  PHE279     -0.0003
    160  CE2      -19.3720   31.3330  -14.6930 C.ar  279  PHE279     -0.0003
    161  CZ       -19.2030   32.2800  -15.6920 C.ar  279  PHE279     -0.0000
    162  N        -25.0090   27.5020  -16.2660 N.am  280  GLY280     -0.1954
    163  CA       -25.7280   26.2720  -16.3430 C.3   280  GLY280      0.1869
    164  C        -25.4200   25.1770  -15.3410 C.2   280  GLY280      0.2309
    165  O        -25.9070   24.0560  -15.4890 O.2   280  GLY280     -0.2863
    166  N         -4.5590   34.2690  -20.4510 N.3   301  ALA301     -0.1231
    167  CA        -5.9830   34.4740  -20.7750 C.3   301  ALA301      0.1694
    168  C         -6.7490   33.1700  -20.8450 C.2   301  ALA301      0.2592
    169  O         -7.9530   33.0990  -20.5070 O.2   301  ALA301     -0.2718
    170  CB        -6.1240   35.2470  -22.0900 C.3   301  ALA301      0.0304
    171  N         -6.0500   32.0890  -21.1900 N.am  302  GLY302     -0.1957
    172  CA        -6.7250   30.8200  -21.2970 C.3   302  GLY302      0.1869
    173  C         -7.2050   30.2310  -19.9660 C.2   302  GLY302      0.2309
    174  O         -7.9970   29.2900  -19.9540 O.2   302  GLY302     -0.2863
    175  N        -11.6590   31.4670  -17.0860 N.3   305  PHE305     -0.1241
    176  CA       -12.9810   31.1070  -16.6450 C.3   305  PHE305      0.1605
    177  C        -13.1720   31.2920  -15.1060 C.2   305  PHE305      0.2264
    178  O        -12.4550   30.6930  -14.2940 O.2   305  PHE305     -0.2867
    179  CB       -13.2490   29.7020  -17.0980 C.3   305  PHE305      0.0534
    180  CG       -14.6260   29.2610  -16.8680 C.ar  305  PHE305     -0.0203
    181  CD1      -15.7000   30.0080  -17.3660 C.ar  305  PHE305     -0.0042
    182  CD2      -14.8710   28.1010  -16.1800 C.ar  305  PHE305     -0.0042
    183  CE1      -16.9890   29.5750  -17.1580 C.ar  305  PHE305     -0.0003
    184  CE2      -16.1380   27.6550  -15.9960 C.ar  305  PHE305     -0.0003
    185  CZ       -17.2090   28.3950  -16.4610 C.ar  305  PHE305     -0.0000
@<TRIPOS>BOND
     1    38    37    2
     2    51    50    2
     3    88    89    1
     4    46    45    2
     5    42    41    2
     6    50    49    1
     7    89    90    1
     8    89    92    1
     9    47    45   am
    10    37    36    1
    11    37    39   am
    12    45    44    1
    13    25    23    1
    14    90    91    2
    15    36    35    1
    16    41    40    1
    17    41    48   am
    18     4     3    2
    19    40    39    1
    20    40    43    1
    21     3     2    1
    22    49    48    1
    23    49    52    1
    24    23    24    1
    25    23    20    1
    26    10    11    1
    27    92    93    1
    28    56    57   ar
    29    56    54   ar
    30    57    55   ar
    31    44    43    1
    32    54    53   ar
    33    94    93   ar
    34    94    96   ar
    35    55    53   ar
    36    53    52    1
    37    33    32    2
    38    11    12    1
    39    11    14    1
    40    13    12    2
    41    35    32   am
    42    12    19   am
    43     5     2    1
    44     5     6    1
    45    19    20    1
    46    93    95   ar
    47     2     1    1
    48    20    21    1
    49    96    98   ar
    50    32    31    1
    51   100   101    1
    52    22    21    2
    53    83    82    2
    54    21    26   am
    55     7     6    1
    56     7     8    1
    57    17    16   ar
    58    14    15    1
    59    80    81    1
    60    82    81    1
    61    29    28    2
    62    95    97   ar
    63   103   102    2
    64    98    97   ar
    65    98    99    1
    66   101   102    1
    67   101   104    1
    68    81    84    1
    69    31    30    1
    70    31    34    1
    71    26    27    1
    72   102   108   am
    73    16    15    1
    74    16    18   ar
    75    28    30   am
    76    28    27    1
    77     8     9    1
    78   109   108    1
    79   109   110    1
    80    75    74    2
    81   104   105    1
    82    74    73    1
    83    69    68    2
    84    84    85    1
    85    66    67    1
    86   110   111    2
    87   110   112   am
    88    87    85    1
    89    68    67    1
    90    68    72   am
    91    67    70    1
    92    85    86    1
    93   105   106    1
    94   105   107    1
    95    72    73    1
    96    73    76    1
    97    64    63    1
    98   112   113    1
    99    61    60    2
   100    59    58    1
   101    59    60    1
   102    59    62    1
   103    70    71    1
   104    76    77    1
   105   170   167    1
   106   113   114    1
   107   113   116    1
   108    62    63    1
   109    63    65    1
   110   115   114    2
   111   172   171    1
   112   172   173    1
   113   171   168   am
   114   168   167    1
   115   168   169    2
   116   167   166    1
   117    77    78    2
   118    77    79   am
   119   116   118    1
   120   116   117    1
   121   133   134    1
   122   133   132    1
   123   173   174    2
   124   131   130    2
   125   134   128    1
   126   122   121    2
   127   132   129    1
   128   130   129    1
   129   128   129    1
   130   128   126   am
   131   119   120    1
   132   121   124   am
   133   121   120    1
   134   125   126    1
   135   125   124    1
   136   126   127    2
   137   120   123    1
   138   150   149    1
   139   181   183   ar
   140   181   180   ar
   141   157   159   ar
   142   157   156   ar
   143   183   185   ar
   144   154   153    2
   145   179   180    1
   146   179   176    1
   147   175   176    1
   148   135   136    1
   149   159   161   ar
   150   136   137    1
   151   180   182   ar
   152   153   152    1
   153   153   162   am
   154   176   177    1
   155   152   155    1
   156   152   151    1
   157   137   138    2
   158   185   184   ar
   159   155   156    1
   160   149   147   ar
   161   149   148   ar
   162   163   162    1
   163   163   164    1
   164   182   184   ar
   165   156   158   ar
   166   147   145   ar
   167   161   160   ar
   168   165   164    2
   169   151   141   am
   170   148   146   ar
   171   177   178    2
   172   145   144   ar
   173   158   160   ar
   174   146   144   ar
   175   141   142    2
   176   141   140    1
   177   144   143    1
   178   140   143    1
   179   140   139    1
