@<TRIPOS>MOLECULE
tmp/4y6gB00.pdb
 133 124 0 0 0
SMALL
GASTEIGER

@<TRIPOS>ATOM
      1  N         -2.6900   22.8660  -29.0660 N.3    84  ALA84      -0.1231
      2  CA        -3.2700   22.7150  -27.6990 C.3    84  ALA84       0.1694
      3  C         -4.2300   21.5350  -27.7240 C.2    84  ALA84       0.2592
      4  O         -4.7450   21.1100  -28.7940 O.2    84  ALA84      -0.2718
      5  CB        -3.9920   23.9710  -27.2580 C.3    84  ALA84       0.0304
      6  N         -4.4960   21.0130  -26.5340 N.am   85  HIS85      -0.1962
      7  CA        -5.3680   19.8600  -26.3420 C.3    85  HIS85       0.1787
      8  C         -6.7850   20.0950  -26.8340 C.2    85  HIS85       0.2620
      9  O         -7.5040   19.1450  -27.0290 O.2    85  HIS85      -0.2715
     10  CB        -5.4450   19.4910  -24.8460 C.3    85  HIS85       0.0785
     11  CG        -6.1780   20.5010  -24.0560 C.ar   85  HIS85       0.0821
     12  ND1       -5.6910   21.7600  -23.8690 N.ar   85  HIS85      -0.2267
     13  CD2       -7.4150   20.4880  -23.4960 C.ar   85  HIS85       0.1154
     14  CE1       -6.5620   22.4810  -23.1880 C.ar   85  HIS85       0.1986
     15  NE2       -7.6280   21.7360  -22.9710 N.ar   85  HIS85      -0.2212
     16  N         -7.2120   21.3450  -26.9880 N.am   86  LYS86      -0.1977
     17  CA        -8.6130   21.6410  -27.3250 C.3    86  LYS86       0.1596
     18  C         -9.0410   20.9380  -28.5980 C.2    86  LYS86       0.2287
     19  O        -10.1860   20.5640  -28.7520 O.2    86  LYS86      -0.2864
     20  CB        -8.8300   23.1490  -27.4820 C.3    86  LYS86       0.0298
     21  CG        -8.7250   23.9010  -26.1410 C.3    86  LYS86       0.0038
     22  CD        -9.2060   25.3240  -26.3180 C.3    86  LYS86       0.0206
     23  CE        -9.2720   26.1150  -25.0370 C.3    86  LYS86       0.1093
     24  NZ        -7.9550   26.3890  -24.4080 N.3    86  LYS86      -0.1314
     25  N         -9.8370   33.8070  -25.0510 N.3   111  ALA111     -0.1245
     26  CA        -8.4690   34.0080  -25.5220 C.3   111  ALA111      0.1562
     27  C         -8.3580   33.6870  -27.0100 C.2   111  ALA111      0.2260
     28  O         -7.3380   33.9800  -27.6230 O.2   111  ALA111     -0.2867
     29  CB        -7.5050   33.1230  -24.7260 C.3   111  ALA111      0.0290
     30  N         -8.4320   30.5630  -28.3590 N.3   113  GLN113     -0.1245
     31  CA        -7.9500   29.2080  -28.6790 C.3   113  GLN113      0.1566
     32  C         -9.0890   28.2580  -28.9750 C.2   113  GLN113      0.2260
     33  O         -8.9940   27.4690  -29.8930 O.2   113  GLN113     -0.2867
     34  CB        -7.0180   28.5660  -27.6160 C.3   113  GLN113      0.0367
     35  CG        -6.4920   27.1430  -28.0140 C.3   113  GLN113      0.0905
     36  CD        -5.6730   27.0790  -29.3070 C.2   113  GLN113      0.2608
     37  OE1       -5.8890   26.2110  -30.1720 O.2   113  GLN113     -0.2717
     38  NE2       -4.7570   28.0040  -29.4590 N.am  113  GLN113     -0.0878
     39  N        -16.5540   24.9450  -24.9060 N.3   188  GLY188     -0.1210
     40  CA       -15.1340   24.7920  -24.9460 C.3   188  GLY188      0.1956
     41  C        -14.3900   24.2740  -23.7380 C.2   188  GLY188      0.2612
     42  O        -13.1800   24.3010  -23.7320 O.2   188  GLY188     -0.2717
     43  N        -15.0960   23.8450  -22.7100 N.am  189  THR189     -0.1952
     44  CA       -14.3800   23.2490  -21.5740 C.3   189  THR189      0.1897
     45  C        -15.2810   22.2120  -20.8750 C.2   189  THR189      0.2313
     46  O        -16.4180   21.9920  -21.3180 O.2   189  THR189     -0.2863
     47  CB       -13.8750   24.3030  -20.6040 C.3   189  THR189      0.1794
     48  OG1      -12.9840   23.6760  -19.6560 O.3   189  THR189     -0.2208
     49  CG2      -15.0080   25.0020  -19.8980 C.3   189  THR189      0.0378
     50  N         -2.9120   22.1500  -15.3720 N.3   229  CYS229     -0.1221
     51  CA        -3.5730   23.4020  -15.0890 C.3   229  CYS229      0.1808
     52  C         -5.0810   23.2830  -15.2220 C.2   229  CYS229      0.2601
     53  O         -5.5690   22.4010  -15.9320 O.2   229  CYS229     -0.2717
     54  CB        -2.9800   24.5160  -15.9550 C.3   229  CYS229      0.0970
     55  SG        -3.4010   24.4380  -17.7300 S.3   229  CYS229     -0.0800
     56  N         -5.8000   24.1780  -14.5440 N.am  230  VAL230     -0.1965
     57  CA        -7.2500   24.1290  -14.4680 C.3   230  VAL230      0.1727
     58  C         -7.7860   25.5490  -14.7220 C.2   230  VAL230      0.2617
     59  O         -7.7010   26.4210  -13.8450 O.2   230  VAL230     -0.2715
     60  CB        -7.7490   23.5780  -13.1130 C.3   230  VAL230      0.0290
     61  CG1       -9.2690   23.6820  -13.0490 C.3   230  VAL230      0.0023
     62  CG2       -7.2870   22.1440  -12.9070 C.3   230  VAL230      0.0023
     63  N         -8.3340   25.7640  -15.9220 N.am  231  GLY231     -0.1940
     64  CA        -9.0810   26.9760  -16.2460 C.3   231  GLY231      0.2014
     65  C        -10.5660   26.7360  -16.1310 C.2   231  GLY231      0.2639
     66  O        -11.2270   27.2710  -15.2430 O.2   231  GLY231     -0.2714
     67  N        -11.0640   25.9020  -17.0300 N.am  232  GLY232     -0.1939
     68  CA       -12.3710   25.3320  -16.9100 C.3   232  GLY232      0.2014
     69  C        -12.3270   23.8610  -16.5260 C.2   232  GLY232      0.2639
     70  O        -13.2690   23.3570  -15.9450 O.2   232  GLY232     -0.2714
     71  N        -11.2430   23.1580  -16.8420 N.am  233  GLY233     -0.1939
     72  CA       -11.0820   21.8120  -16.4340 C.3   233  GLY233      0.2014
     73  C        -10.8860   20.7310  -17.4750 C.2   233  GLY233      0.2640
     74  O        -10.7030   19.5720  -17.0970 O.2   233  GLY233     -0.2714
     75  N        -10.8610   21.0620  -18.7820 N.am  234  SER234     -0.1935
     76  CA       -10.8260   20.0190  -19.7630 C.3   234  SER234      0.2055
     77  C         -9.5050   19.2760  -19.9140 C.2   234  SER234      0.2643
     78  O         -9.5230   18.0690  -19.9450 O.2   234  SER234     -0.2714
     79  CB       -11.3210   20.5280  -21.1190 C.3   234  SER234      0.2130
     80  OG       -10.4740   21.4790  -21.7300 O.3   234  SER234     -0.2179
     81  N         -8.3770   19.9680  -20.0090 N.am  235  ASN235     -0.1971
     82  CA        -7.1160   19.2500  -20.1380 C.3   235  ASN235      0.1688
     83  C         -6.8390   18.4350  -18.8790 C.2   235  ASN235      0.2292
     84  O         -6.3260   17.2980  -18.9730 O.2   235  ASN235     -0.2864
     85  CB        -5.9270   20.1690  -20.5250 C.3   235  ASN235      0.1181
     86  CG        -5.2090   20.7570  -19.3290 C.2   235  ASN235      0.2629
     87  OD1       -4.2590   20.1600  -18.8180 O.2   235  ASN235     -0.2716
     88  ND2       -5.6010   21.9560  -18.9380 N.am  235  ASN235     -0.0877
     89  N         -6.0500   32.0890  -21.1900 N.3   302  GLY302     -0.1210
     90  CA        -6.7250   30.8200  -21.2970 C.3   302  GLY302      0.1956
     91  C         -7.2050   30.2310  -19.9660 C.2   302  GLY302      0.2611
     92  O         -7.9970   29.2900  -19.9540 O.2   302  GLY302     -0.2717
     93  N         -6.7030   30.7620  -18.8450 N.am  303  LEU303     -0.1979
     94  CA        -7.1700   30.3330  -17.5140 C.3   303  LEU303      0.1596
     95  C         -8.1910   31.2720  -16.8580 C.2   303  LEU303      0.2287
     96  O         -8.4220   31.1560  -15.6520 O.2   303  LEU303     -0.2864
     97  CB        -5.9800   30.1100  -16.5570 C.3   303  LEU303      0.0297
     98  CG        -4.9150   29.1430  -17.0090 C.3   303  LEU303      0.0022
     99  CD1       -3.8090   28.9930  -15.9750 C.3   303  LEU303      0.0001
    100  CD2       -5.4950   27.7630  -17.2680 C.3   303  LEU303      0.0001
    101  N          2.8800   26.8490  -23.4000 N.3   347  ALA347     -0.1245
    102  CA         1.8350   27.8040  -23.1850 C.3   347  ALA347      0.1562
    103  C          1.9310   28.3220  -21.7370 C.2   347  ALA347      0.2260
    104  O          2.2860   27.5640  -20.8060 O.2   347  ALA347     -0.2867
    105  CB         0.5010   27.1170  -23.3810 C.3   347  ALA347      0.0290
    106  N         -0.5680   28.8600  -19.9150 N.3   349  GLU349     -0.1245
    107  CA        -1.4890   28.0130  -19.1580 C.3   349  GLU349      0.1567
    108  C         -0.7550   26.8290  -18.5690 C.2   349  GLU349      0.2260
    109  O         -0.7220   26.6600  -17.3410 O.2   349  GLU349     -0.2867
    110  CB        -2.6350   27.4890  -20.0490 C.3   349  GLU349      0.0388
    111  CG        -3.5640   28.5960  -20.5740 C.3   349  GLU349      0.1160
    112  CD        -3.1140   29.2540  -21.8830 C.2   349  GLU349      0.3649
    113  OE1       -1.9330   29.1390  -22.3080 O.co2 349  GLU349     -0.2457
    114  OE2       -3.9860   29.8950  -22.5220 O.co2 349  GLU349     -0.2457
    115  N         -0.2990   21.2250  -21.8970 N.3   376  SER376     -0.1202
    116  CA        -1.5690   21.3610  -22.5990 C.3   376  SER376      0.2020
    117  C         -1.4280   22.1260  -23.9110 C.2   376  SER376      0.2619
    118  O         -2.2460   21.9430  -24.8120 O.2   376  SER376     -0.2717
    119  CB        -2.5980   21.9780  -21.6470 C.3   376  SER376      0.2103
    120  OG        -2.1870   23.2490  -21.1690 O.3   376  SER376     -0.2182
    121  N         -0.3990   22.9680  -24.0320 N.am  377  GLY377     -0.1956
    122  CA        -0.2450   23.7130  -25.3060 C.3   377  GLY377      0.1869
    123  C          1.1310   24.2830  -25.4600 C.2   377  GLY377      0.2309
    124  O          1.9390   24.2950  -24.5090 O.2   377  GLY377     -0.2863
    125  N          2.3270   31.6350  -28.9700 N.3   381  LYS381     -0.1245
    126  CA         1.3400   32.6710  -28.7830 C.3   381  LYS381      0.1561
    127  C          1.6550   33.6110  -27.6220 C.2   381  LYS381      0.2260
    128  O          1.1340   34.7180  -27.5820 O.2   381  LYS381     -0.2867
    129  CB        -0.0410   32.0340  -28.5430 C.3   381  LYS381      0.0271
    130  CG        -0.1270   31.3370  -27.1710 C.3   381  LYS381      0.0035
    131  CD        -1.3760   30.4760  -27.0350 C.3   381  LYS381      0.0206
    132  CE        -1.3100   29.6700  -25.7290 C.3   381  LYS381      0.1093
    133  NZ        -1.5050   30.5350  -24.5790 N.3   381  LYS381     -0.1314
@<TRIPOS>BOND
     1    37    36    2
     2    33    32    2
     3    38    36   am
     4    36    35    1
     5     1     2    1
     6    32    31    1
     7   125   126    1
     8     4     3    2
     9   126   129    1
    10   126   127    1
    11    19    18    2
    12    31    30    1
    13    31    34    1
    14    18    17    1
    15   129   130    1
    16    35    34    1
    17     3     2    1
    18     3     6   am
    19     2     5    1
    20    28    27    2
    21   127   128    2
    22    20    17    1
    23    20    21    1
    24    17    16    1
    25   130   131    1
    26   131   132    1
    27     9     8    2
    28    27    26    1
    29    16     8   am
    30     8     7    1
    31     6     7    1
    32     7    10    1
    33    22    21    1
    34    22    23    1
    35   132   133    1
    36    26    25    1
    37    26    29    1
    38   123   122    1
    39   123   124    2
    40   122   121    1
    41    23    24    1
    42    40    39    1
    43    40    41    1
    44    10    11    1
    45   118   117    2
    46    11    12   ar
    47    11    13   ar
    48   121   117   am
    49   117   116    1
    50    12    14   ar
    51    41    42    2
    52    41    43   am
    53    13    15   ar
    54   101   102    1
    55   105   102    1
    56    14    15   ar
    57   102   103    1
    58    43    44    1
    59   116   115    1
    60   116   119    1
    61   114   112   ar
    62   113   112   ar
    63   112   111    1
    64   103   104    2
    65    80    79    1
    66   119   120    1
    67    44    45    1
    68    44    47    1
    69    46    45    2
    70    90    89    1
    71    90    91    1
    72    79    76    1
    73    47    49    1
    74    47    48    1
    75   111   110    1
    76    85    82    1
    77    85    86    1
    78    82    81    1
    79    82    83    1
    80   110   107    1
    81    81    77   am
    82    91    92    2
    83    91    93   am
    84    78    77    2
    85   106   107    1
    86    77    76    1
    87    76    75    1
    88    86    88   am
    89    86    87    2
    90   107   108    1
    91    84    83    2
    92    93    94    1
    93    75    73   am
    94   108   109    2
    95    55    54    1
    96    94    95    1
    97    94    97    1
    98    73    74    2
    99    73    72    1
   100   100    98    1
   101    67    68    1
   102    67    65   am
   103    98    97    1
   104    98    99    1
   105    68    69    1
   106    95    96    2
   107    71    69   am
   108    71    72    1
   109    69    70    2
   110    64    65    1
   111    64    63    1
   112    65    66    2
   113    54    51    1
   114    53    52    2
   115    63    58   am
   116    50    51    1
   117    52    51    1
   118    52    56   am
   119    58    57    1
   120    58    59    2
   121    56    57    1
   122    57    60    1
   123    60    61    1
   124    60    62    1
