@<TRIPOS>MOLECULE
tmp/4y6kC00.pdb
 168 157 0 0 0
SMALL
GASTEIGER

@<TRIPOS>ATOM
      1  N        140.3330  119.1710  116.2990 N.3    38  PHE38      -0.1241
      2  CA       141.2350  119.5100  115.2140 C.3    38  PHE38       0.1605
      3  C        142.6260  119.1310  115.6490 C.2    38  PHE38       0.2264
      4  O        143.2570  118.2470  115.0480 O.2    38  PHE38      -0.2867
      5  CB       141.1550  120.9980  114.8660 C.3    38  PHE38       0.0534
      6  CG       142.1250  121.4280  113.8030 C.ar   38  PHE38      -0.0203
      7  CD1      141.8440  121.2500  112.4620 C.ar   38  PHE38      -0.0042
      8  CD2      143.3230  122.0260  114.1550 C.ar   38  PHE38      -0.0042
      9  CE1      142.7460  121.6560  111.4970 C.ar   38  PHE38      -0.0003
     10  CE2      144.2220  122.4330  113.1960 C.ar   38  PHE38      -0.0003
     11  CZ       143.9330  122.2480  111.8640 C.ar   38  PHE38      -0.0000
     12  N        145.0450  116.2040  114.2670 N.3    42  LEU42      -0.1245
     13  CA       146.3410  116.5950  113.7520 C.3    42  LEU42       0.1561
     14  C        147.4260  115.7420  114.3660 C.2    42  LEU42       0.2260
     15  O        148.2740  115.1990  113.6460 O.2    42  LEU42      -0.2867
     16  CB       146.6110  118.0770  114.0330 C.3    42  LEU42       0.0270
     17  CG       147.8830  118.6880  113.4360 C.3    42  LEU42       0.0019
     18  CD1      148.0350  118.3100  111.9720 C.3    42  LEU42       0.0001
     19  CD2      147.8850  120.2010  113.6030 C.3    42  LEU42       0.0001
     20  N        147.5160  112.4410  112.7250 N.3    45  PHE45      -0.1227
     21  CA       148.0670  112.5940  111.3920 C.3    45  PHE45       0.1736
     22  C        149.5800  112.5730  111.5350 C.2    45  PHE45       0.2596
     23  O        150.2700  111.8080  110.8520 O.2    45  PHE45      -0.2718
     24  CB       147.5430  113.8730  110.7350 C.3    45  PHE45       0.0547
     25  CG       148.2220  114.2230  109.4460 C.ar   45  PHE45      -0.0202
     26  CD1      147.7070  113.7620  108.2440 C.ar   45  PHE45      -0.0042
     27  CD2      149.3390  115.0340  109.4220 C.ar   45  PHE45      -0.0042
     28  CE1      148.3090  114.0790  107.0450 C.ar   45  PHE45      -0.0003
     29  CE2      149.9410  115.3560  108.2260 C.ar   45  PHE45      -0.0003
     30  CZ       149.4280  114.8790  107.0360 C.ar   45  PHE45      -0.0000
     31  N        150.0760  113.3370  112.5010 N.am   46  THR46      -0.1953
     32  CA       151.5070  113.4190  112.7480 C.3    46  THR46       0.1897
     33  C        151.9570  112.0160  113.1270 C.2    46  THR46       0.2313
     34  O        152.9010  111.4950  112.5320 O.2    46  THR46      -0.2863
     35  CB       151.8700  114.4300  113.8470 C.3    46  THR46       0.1794
     36  OG1      151.5890  115.7580  113.3880 O.3    46  THR46      -0.2208
     37  CG2      153.3490  114.3260  114.1870 C.3    46  THR46       0.0378
     38  N        152.4430  110.0230  110.0840 N.3    49  LEU49      -0.1231
     39  CA       153.6020  110.4020  109.2780 C.3    49  LEU49       0.1693
     40  C        154.9050  109.9590  109.9050 C.2    49  LEU49       0.2591
     41  O        155.8370  109.5210  109.2210 O.2    49  LEU49      -0.2718
     42  CB       153.6950  111.9180  109.1570 C.3    49  LEU49       0.0284
     43  CG       155.0520  112.2560  108.5190 C.3    49  LEU49       0.0019
     44  CD1      155.2280  111.7900  107.0500 C.3    49  LEU49       0.0001
     45  CD2      155.6500  113.6120  108.8590 C.3    49  LEU49       0.0001
     46  N        154.9300  109.9920  111.2250 N.am   50  LEU50      -0.1980
     47  CA       156.1080  109.5830  111.9470 C.3    50  LEU50       0.1596
     48  C        156.2260  108.0920  111.7270 C.2    50  LEU50       0.2287
     49  O        157.2470  107.6150  111.2360 O.2    50  LEU50      -0.2864
     50  CB       156.0060  109.9460  113.4300 C.3    50  LEU50       0.0297
     51  CG       156.0290  111.4380  113.8010 C.3    50  LEU50       0.0022
     52  CD1      156.8670  111.6700  115.0500 C.3    50  LEU50       0.0001
     53  CD2      156.5320  112.3210  112.6570 C.3    50  LEU50       0.0001
     54  N        157.2820  107.0250  108.4150 N.3    53  LEU53      -0.1245
     55  CA       158.6920  107.3380  108.2080 C.3    53  LEU53       0.1561
     56  C        159.6490  106.4090  108.9560 C.2    53  LEU53       0.2260
     57  O        160.6090  105.8910  108.3850 O.2    53  LEU53      -0.2867
     58  CB       158.9680  108.7910  108.6080 C.3    53  LEU53       0.0270
     59  CG       159.0400  109.8060  107.4630 C.3    53  LEU53       0.0019
     60  CD1      158.7560  111.2140  107.9650 C.3    53  LEU53       0.0001
     61  CD2      160.3860  109.7430  106.7560 C.3    53  LEU53       0.0001
     62  N        147.7280  127.6610  118.6900 N.3   146  LEU146     -0.1231
     63  CA       148.7700  127.0330  117.9030 C.3   146  LEU146      0.1693
     64  C        149.9930  127.9590  117.7650 C.2   146  LEU146      0.2591
     65  O        151.1420  127.5220  117.9130 O.2   146  LEU146     -0.2718
     66  CB       148.2250  126.6580  116.5260 C.3   146  LEU146      0.0284
     67  CG       148.3660  125.1660  116.1960 C.3   146  LEU146      0.0019
     68  CD1      149.7020  124.5740  116.6230 C.3   146  LEU146      0.0001
     69  CD2      147.1920  124.3730  116.7680 C.3   146  LEU146      0.0001
     70  N        149.7350  129.2380  117.4800 N.am  147  ALA147     -0.1980
     71  CA       150.8010  130.2370  117.3320 C.3   147  ALA147      0.1597
     72  C        151.6170  130.3700  118.6140 C.2   147  ALA147      0.2287
     73  O        152.8630  130.3540  118.5950 O.2   147  ALA147     -0.2864
     74  CB       150.2170  131.5860  116.9380 C.3   147  ALA147      0.0319
     75  N        151.8440  128.2120  120.9890 N.3   149  TYR149     -0.1227
     76  CA       152.6230  126.9800  121.0850 C.3   149  TYR149      0.1736
     77  C        153.9330  127.1220  120.3130 C.2   149  TYR149      0.2595
     78  O        154.9940  126.8060  120.8530 O.2   149  TYR149     -0.2718
     79  CB       151.8330  125.7720  120.5660 C.3   149  TYR149      0.0548
     80  CG       152.7110  124.6000  120.1700 C.ar  149  TYR149     -0.0200
     81  CD1      153.1100  123.6580  121.1100 C.ar  149  TYR149     -0.0009
     82  CD2      153.1420  124.4360  118.8590 C.ar  149  TYR149     -0.0009
     83  CE1      153.9150  122.5870  120.7540 C.ar  149  TYR149      0.0417
     84  CE2      153.9500  123.3760  118.4990 C.ar  149  TYR149      0.0417
     85  CZ       154.3320  122.4540  119.4450 C.ar  149  TYR149      0.1957
     86  OH       155.1340  121.3980  119.0720 O.3   149  TYR149     -0.2866
     87  N        153.8660  127.5580  119.0540 N.am  150  ASP150     -0.1974
     88  CA       155.0840  127.6220  118.2440 C.3   150  ASP150      0.1709
     89  C        156.1200  128.4980  118.9130 C.2   150  ASP150      0.2293
     90  O        157.2650  128.0820  119.0960 O.2   150  ASP150     -0.2864
     91  CB       154.8570  128.1490  116.8330 C.3   150  ASP150      0.1436
     92  CG       156.0640  127.8890  115.9280 C.2   150  ASP150      0.3671
     93  OD1      157.0770  127.3570  116.4230 O.co2 150  ASP150     -0.2456
     94  OD2      156.0350  128.2430  114.7380 O.co2 150  ASP150     -0.2456
     95  N        157.7750  126.6730  121.7130 N.3   153  SER153     -0.1217
     96  CA       158.6790  125.5800  121.3350 C.3   153  SER153      0.1889
     97  C        159.9940  126.0750  120.7210 C.2   153  SER153      0.2288
     98  O        161.0790  125.5380  120.9990 O.2   153  SER153     -0.2866
     99  CB       157.9870  124.6240  120.3660 C.3   153  SER153      0.2089
    100  OG       158.6770  123.3860  120.3080 O.3   153  SER153     -0.2183
    101  N        161.6340  118.2510  102.5170 N.3   166  GLY166     -0.1210
    102  CA       160.8080  117.9160  103.6610 C.3   166  GLY166      0.1956
    103  C        160.4000  119.1410  104.4540 C.2   166  GLY166      0.2611
    104  O        159.4630  119.0960  105.2510 O.2   166  GLY166     -0.2717
    105  N        161.1190  120.2380  104.2440 N.am  167  ALA167     -0.1979
    106  CA       160.8080  121.5000  104.9030 C.3   167  ALA167      0.1597
    107  C        159.4650  122.0870  104.4630 C.2   167  ALA167      0.2287
    108  O        158.7650  122.7040  105.2690 O.2   167  ALA167     -0.2864
    109  CB       161.9230  122.5070  104.6530 C.3   167  ALA167      0.0319
    110  N        156.4150  120.7480  103.5350 N.3   169  VAL169     -0.1231
    111  CA       155.1760  120.2560  104.1390 C.3   169  VAL169      0.1692
    112  C        154.8490  121.2740  105.2350 C.2   169  VAL169      0.2591
    113  O        153.7480  121.8090  105.2950 O.2   169  VAL169     -0.2718
    114  CB       155.2440  118.8550  104.6800 C.3   169  VAL169      0.0266
    115  CG1      153.8230  118.4710  105.0480 C.3   169  VAL169      0.0020
    116  CG2      155.7000  117.9070  103.5950 C.3   169  VAL169      0.0020
    117  N        155.8240  121.5000  106.1090 N.am  170  MET170     -0.1979
    118  CA       155.7330  122.5080  107.1600 C.3   170  MET170      0.1605
    119  C        155.6170  123.9240  106.5990 C.2   170  MET170      0.2287
    120  O        154.8960  124.7490  107.1630 O.2   170  MET170     -0.2864
    121  CB       156.9780  122.4140  108.0540 C.3   170  MET170      0.0413
    122  CG       156.9870  123.2630  109.3140 C.3   170  MET170      0.0598
    123  SD       155.7510  123.0330  110.5900 S.3   170  MET170     -0.1393
    124  CE       155.5030  124.7570  110.9980 C.3   170  MET170      0.0692
    125  N        152.3660  124.2800  104.8250 N.3   173  GLY173     -0.1210
    126  CA       151.5620  123.9610  105.9900 C.3   173  GLY173      0.1956
    127  C        151.2710  125.1200  106.9290 C.2   173  GLY173      0.2611
    128  O        150.1500  125.2230  107.4270 O.2   173  GLY173     -0.2717
    129  N        152.2420  125.9990  107.1810 N.am  174  ASP174     -0.1973
    130  CA       151.9280  127.1490  108.0290 C.3   174  ASP174      0.1709
    131  C        151.4820  128.3270  107.1660 C.2   174  ASP174      0.2293
    132  O        150.8670  129.2730  107.6600 O.2   174  ASP174     -0.2864
    133  CB       153.1130  127.5630  108.9140 C.3   174  ASP174      0.1436
    134  CG       154.4170  127.6800  108.1510 C.2   174  ASP174      0.3671
    135  OD1      154.4910  128.5010  107.2130 O.co2 174  ASP174     -0.2456
    136  OD2      155.3840  126.9840  108.5200 O.co2 174  ASP174     -0.2456
    137  N        149.1780  127.9420  105.2160 N.3   176  ILE176     -0.1231
    138  CA       147.7440  127.6700  105.2400 C.3   176  ILE176      0.1692
    139  C        146.9620  128.4340  106.3160 C.2   176  ILE176      0.2591
    140  O        145.9150  129.0130  106.0390 O.2   176  ILE176     -0.2718
    141  CB       147.4890  126.1560  105.4420 C.3   176  ILE176      0.0266
    142  CG1      147.9750  125.3580  104.2350 C.3   176  ILE176      0.0019
    143  CG2      146.0260  125.8810  105.6680 C.3   176  ILE176      0.0020
    144  CD1      148.0120  123.8640  104.4710 C.3   176  ILE176      0.0001
    145  N        147.4860  128.4270  107.5370 N.am  177  MET177     -0.1979
    146  CA       146.7750  128.8830  108.7390 C.3   177  MET177      0.1605
    147  C        146.0110  130.2280  108.6820 C.2   177  MET177      0.2287
    148  O        144.8170  130.2470  108.9800 O.2   177  MET177     -0.2864
    149  CB       147.7580  128.9150  109.9090 C.3   177  MET177      0.0413
    150  CG       147.9570  127.5570  110.5620 C.3   177  MET177      0.0598
    151  SD       146.4860  126.6730  111.0890 S.3   177  MET177     -0.1393
    152  CE       147.2000  125.0630  111.4250 C.3   177  MET177      0.0692
    153  N        155.5020  132.3410  113.4560 N.3   220  LEU220     -0.1245
    154  CA       154.0630  132.1950  113.3300 C.3   220  LEU220      0.1561
    155  C        153.2240  133.2670  114.0610 C.2   220  LEU220      0.2260
    156  O        152.2450  133.7390  113.5020 O.2   220  LEU220     -0.2867
    157  CB       153.7300  130.7610  113.7240 C.3   220  LEU220      0.0270
    158  CG       154.4700  129.9590  112.6240 C.3   220  LEU220      0.0019
    159  CD1      154.0860  128.5200  112.5190 C.3   220  LEU220      0.0001
    160  CD2      154.2620  130.5840  111.2190 C.3   220  LEU220      0.0001
    161  N        150.0160  134.7900  112.0830 N.3   224  ASN224     -0.1240
    162  CA       148.7170  134.6810  112.7450 C.3   224  ASN224      0.1653
    163  C        148.2550  135.9520  113.4420 C.2   224  ASN224      0.2266
    164  O        147.2070  136.4860  113.1080 O.2   224  ASN224     -0.2867
    165  CB       148.7390  133.5270  113.7390 C.3   224  ASN224      0.1155
    166  CG       148.6280  132.1930  113.0530 C.2   224  ASN224      0.2627
    167  OD1      149.2470  131.9740  112.0140 O.2   224  ASN224     -0.2716
    168  ND2      147.8550  131.2860  113.6340 N.am  224  ASN224     -0.0877
@<TRIPOS>BOND
     1   101   102    1
     2   110   111    1
     3   116   114    1
     4   102   103    1
     5   111   114    1
     6   111   112    1
     7   142   144    1
     8   142   141    1
     9   105   103   am
    10   105   106    1
    11   103   104    2
    12   107   106    1
    13   107   108    2
    14   109   106    1
    15   114   115    1
    16   125   126    1
    17   137   138    1
    18   112   113    2
    19   112   117   am
    20   138   141    1
    21   138   139    1
    22   141   143    1
    23   126   127    1
    24   140   139    2
    25   117   118    1
    26   139   145   am
    27   119   118    1
    28   119   120    2
    29    61    59    1
    30   127   129   am
    31   127   128    2
    32    30    28   ar
    33    30    29   ar
    34    28    26   ar
    35    44    43    1
    36   118   121    1
    37   131   132    2
    38   131   130    1
    39   129   130    1
    40   135   134   ar
    41    59    60    1
    42    59    58    1
    43   145   146    1
    44   130   133    1
    45   121   122    1
    46   134   136   ar
    47   134   133    1
    48    55    54    1
    49    55    58    1
    50    55    56    1
    51    29    27   ar
    52    26    25   ar
    53    57    56    2
    54    43    45    1
    55    43    42    1
    56   147   146    1
    57   147   148    2
    58   146   149    1
    59    42    39    1
    60    41    40    2
    61    39    40    1
    62    39    38    1
    63   122   123    1
    64    27    25   ar
    65    25    24    1
    66    40    46   am
    67   149   150    1
    68   150   151    1
    69   123   124    1
    70    24    21    1
    71    23    22    2
    72   151   152    1
    73   160   158    1
    74    46    47    1
    75    49    48    2
    76    21    22    1
    77    21    20    1
    78     9    11   ar
    79     9     7   ar
    80    22    31   am
    81    48    47    1
    82    11    10   ar
    83    47    50    1
    84    18    17    1
    85   167   166    2
    86   161   162    1
    87     7     6   ar
    88    31    32    1
    89   159   158    1
    90    34    33    2
    91   158   157    1
    92    53    51    1
    93   162   163    1
    94   162   165    1
    95    32    33    1
    96    32    35    1
    97   166   168   am
    98   166   165    1
    99   164   163    2
   100    10     8   ar
   101   154   153    1
   102   154   157    1
   103   154   155    1
   104    36    35    1
   105    50    51    1
   106    17    19    1
   107    17    16    1
   108   156   155    2
   109    15    14    2
   110    13    16    1
   111    13    12    1
   112    13    14    1
   113    51    52    1
   114     6     8   ar
   115     6     5    1
   116    35    37    1
   117    94    92   ar
   118     5     2    1
   119     4     3    2
   120     2     3    1
   121     2     1    1
   122    92    93   ar
   123    92    91    1
   124    67    66    1
   125    67    68    1
   126    67    69    1
   127    66    63    1
   128    91    88    1
   129    74    71    1
   130    71    70    1
   131    71    72    1
   132    70    64   am
   133    64    63    1
   134    64    65    2
   135    63    62    1
   136    88    89    1
   137    88    87    1
   138    84    82   ar
   139    84    85   ar
   140    73    72    2
   141    82    80   ar
   142    89    90    2
   143    87    77   am
   144    86    85    1
   145    85    83   ar
   146    80    79    1
   147    80    81   ar
   148   100    99    1
   149    77    78    2
   150    77    76    1
   151    99    96    1
   152    79    76    1
   153    97    98    2
   154    97    96    1
   155    83    81   ar
   156    75    76    1
   157    96    95    1
