@<TRIPOS>MOLECULE
tmp/4y6pB00.pdb
 186 177 0 0 0
SMALL
GASTEIGER

@<TRIPOS>ATOM
      1  N         -4.6360   23.1460  -20.1630 N.3   129  LYS129     -0.1245
      2  CA        -4.4620   21.7020  -19.9540 C.3   129  LYS129      0.1561
      3  C         -4.6890   20.9010  -21.2340 C.2   129  LYS129      0.2260
      4  O         -4.0720   19.8530  -21.4450 O.2   129  LYS129     -0.2867
      5  CB        -5.3710   21.1580  -18.8280 C.3   129  LYS129      0.0271
      6  CG        -6.8500   20.9810  -19.1600 C.3   129  LYS129      0.0035
      7  CD        -7.6840   20.8630  -17.8870 C.3   129  LYS129      0.0206
      8  CE        -7.7740   22.2130  -17.1830 C.3   129  LYS129      0.1093
      9  NZ        -8.3840   22.1290  -15.8270 N.3   129  LYS129     -0.1314
     10  N         -2.3690   25.0280  -13.7030 N.3   155  ASP155     -0.1225
     11  CA        -3.6060   24.3120  -13.3170 C.3   155  ASP155      0.1805
     12  C         -3.5010   24.0640  -11.7950 C.2   155  ASP155      0.2598
     13  O         -2.4780   23.5930  -11.3310 O.2   155  ASP155     -0.2718
     14  CB        -3.7380   23.0020  -14.1230 C.3   155  ASP155      0.1424
     15  CG        -5.1800   22.4730  -14.2090 C.2   155  ASP155      0.3668
     16  OD1       -6.0640   22.9790  -13.4930 O.co2 155  ASP155     -0.2456
     17  OD2       -5.4270   21.5350  -15.0240 O.co2 155  ASP155     -0.2456
     18  N         -4.5400   24.3940  -11.0180 N.am  156  SER156     -0.1938
     19  CA        -4.4020   24.4710   -9.5580 C.3   156  SER156      0.2055
     20  C         -3.8780   23.1860   -8.8950 C.2   156  SER156      0.2642
     21  O         -3.0780   23.2570   -7.9450 O.2   156  SER156     -0.2714
     22  CB        -5.7170   24.8950   -8.8870 C.3   156  SER156      0.2130
     23  OG        -6.7080   23.9180   -9.0630 O.3   156  SER156     -0.2179
     24  N         -4.3380   22.0350   -9.3820 N.am  157  GLU157     -0.1976
     25  CA        -3.9770   20.7460   -8.7950 C.3   157  GLU157      0.1602
     26  C         -2.5080   20.4340   -9.1080 C.2   157  GLU157      0.2287
     27  O         -1.7720   19.8610   -8.3000 O.2   157  GLU157     -0.2864
     28  CB        -4.8810   19.6180   -9.3250 C.3   157  GLU157      0.0415
     29  CG        -6.3730   19.8220   -9.1130 C.3   157  GLU157      0.1163
     30  CD        -6.9820   20.7020  -10.1820 C.2   157  GLU157      0.3649
     31  OE1       -6.2390   21.1320  -11.0860 O.co2 157  GLU157     -0.2457
     32  OE2       -8.2000   20.9620  -10.1020 O.co2 157  GLU157     -0.2457
     33  N         -7.2720   16.1440   -6.3030 N.3   192  CYS192     -0.1221
     34  CA        -8.5010   16.5640   -5.6270 C.3   192  CYS192      0.1808
     35  C         -9.4380   17.3030   -6.5540 C.2   192  CYS192      0.2602
     36  O         -9.0100   18.1510   -7.3390 O.2   192  CYS192     -0.2717
     37  CB        -8.1800   17.4770   -4.4470 C.3   192  CYS192      0.0970
     38  SG        -7.4050   16.5920   -3.0930 S.3   192  CYS192     -0.0800
     39  N        -10.7260   16.9950   -6.4350 N.am  193  SER193     -0.1938
     40  CA       -11.7350   17.5540   -7.3220 C.3   193  SER193      0.2055
     41  C        -12.8570   18.1530   -6.4920 C.2   193  SER193      0.2644
     42  O        -13.2410   17.5740   -5.4780 O.2   193  SER193     -0.2714
     43  CB       -12.3090   16.4390   -8.2040 C.3   193  SER193      0.2130
     44  OG       -13.3920   16.9360   -8.9720 O.3   193  SER193     -0.2179
     45  N        -13.3970   19.2890   -6.9190 N.am  194  SER194     -0.1935
     46  CA       -14.6270   19.8240   -6.3080 C.3   194  SER194      0.2055
     47  C        -15.7890   18.8350   -6.4030 C.2   194  SER194      0.2644
     48  O        -16.7170   18.8480   -5.5640 O.2   194  SER194     -0.2714
     49  CB       -15.0360   21.1460   -6.9830 C.3   194  SER194      0.2130
     50  OG       -15.7320   20.9550   -8.2140 O.3   194  SER194     -0.2179
     51  N        -15.7520   17.9970   -7.4330 N.am  195  GLY195     -0.1939
     52  CA       -16.8440   17.1010   -7.7380 C.3   195  GLY195      0.2014
     53  C        -17.8990   17.6670   -8.6800 C.2   195  GLY195      0.2639
     54  O        -18.6980   16.9240   -9.2310 O.2   195  GLY195     -0.2714
     55  N        -17.9140   18.9810   -8.8610 N.am  196  GLY196     -0.1954
     56  CA       -18.8100   19.6140   -9.8290 C.3   196  GLY196      0.1869
     57  C        -20.2290   19.7370   -9.2890 C.2   196  GLY196      0.2309
     58  O        -20.5430   19.2060   -8.2290 O.2   196  GLY196     -0.2863
     59  N        -22.3250   26.7450  -10.5720 N.3   217  HIS217     -0.1241
     60  CA       -21.3640   25.9870   -9.7570 C.3   217  HIS217      0.1621
     61  C        -21.4270   26.4100   -8.2850 C.2   217  HIS217      0.2264
     62  O        -20.9780   27.4910   -7.9090 O.2   217  HIS217     -0.2867
     63  CB       -19.9350   26.1400  -10.3090 C.3   217  HIS217      0.0745
     64  CG       -18.9990   25.0460   -9.8890 C.ar  217  HIS217      0.0817
     65  ND1      -18.1590   24.4030  -10.7770 N.ar  217  HIS217     -0.2268
     66  CD2      -18.7790   24.4710   -8.6820 C.ar  217  HIS217      0.1154
     67  CE1      -17.4550   23.4900  -10.1310 C.ar  217  HIS217      0.1986
     68  NE2      -17.8130   23.5090   -8.8590 N.ar  217  HIS217     -0.2212
     69  N        -19.1070   26.4290   -6.0150 N.3   219  LYS219     -0.1231
     70  CA       -17.8650   27.0190   -5.4450 C.3   219  LYS219      0.1693
     71  C        -17.3960   28.2550   -6.2140 C.2   219  LYS219      0.2592
     72  O        -17.0540   29.2700   -5.5990 O.2   219  LYS219     -0.2718
     73  CB       -16.6850   26.0100   -5.4060 C.3   219  LYS219      0.0285
     74  CG       -16.7250   24.9740   -4.2930 C.3   219  LYS219      0.0035
     75  CD       -16.4950   25.5570   -2.9010 C.3   219  LYS219      0.0206
     76  CE       -17.3710   24.8210   -1.8840 C.3   219  LYS219      0.1093
     77  NZ       -17.0240   25.0950   -0.4670 N.3   219  LYS219     -0.1314
     78  N        -17.3760   28.1670   -7.5470 N.am  220  TRP220     -0.1976
     79  CA       -16.6890   29.1610   -8.3650 C.3   220  TRP220      0.1640
     80  C        -17.5220   29.6320   -9.5640 C.2   220  TRP220      0.2290
     81  O        -18.5620   29.0450   -9.8730 O.2   220  TRP220     -0.2864
     82  CB       -15.3370   28.5740   -8.8210 C.3   220  TRP220      0.0576
     83  CG       -14.1720   29.5540   -8.7650 C.ar  220  TRP220      0.0006
     84  CD1      -13.3010   29.8550   -9.7790 C.ar  220  TRP220      0.0946
     85  CD2      -13.7600   30.3440   -7.6350 C.ar  220  TRP220      0.0152
     86  NE1      -12.3770   30.7800   -9.3530 N.ar  220  TRP220     -0.2442
     87  CE2      -12.6370   31.1050   -8.0450 C.ar  220  TRP220      0.0810
     88  CE3      -14.2310   30.4900   -6.3220 C.ar  220  TRP220      0.0012
     89  CZ2      -11.9810   32.0010   -7.1840 C.ar  220  TRP220      0.0191
     90  CZ3      -13.5820   31.3840   -5.4700 C.ar  220  TRP220      0.0001
     91  CH2      -12.4690   32.1300   -5.9120 C.ar  220  TRP220      0.0015
     92  N        -16.7150   30.3520  -13.5640 N.3   222  MET222     -0.1245
     93  CA       -15.6880   30.1300  -14.5610 C.3   222  MET222      0.1570
     94  C        -16.2790   30.1200  -15.9610 C.2   222  MET222      0.2261
     95  O        -17.4940   30.2290  -16.1420 O.2   222  MET222     -0.2867
     96  CB       -15.0100   28.7860  -14.3240 C.3   222  MET222      0.0387
     97  CG       -15.0540   28.2910  -12.8910 C.3   222  MET222      0.0595
     98  SD       -14.3590   26.6330  -12.7920 S.3   222  MET222     -0.1393
     99  CE       -15.8480   25.6330  -12.7240 C.3   222  MET222      0.0692
    100  N        -15.0230   24.8190  -19.1580 N.3   226  ILE226     -0.1245
    101  CA       -14.5260   24.1350  -17.9690 C.3   226  ILE226      0.1561
    102  C        -15.6440   23.8230  -16.9660 C.2   226  ILE226      0.2260
    103  O        -15.5700   22.8090  -16.2680 O.2   226  ILE226     -0.2867
    104  CB       -13.3520   24.8720  -17.2900 C.3   226  ILE226      0.0252
    105  CG1      -12.7080   23.9680  -16.2240 C.3   226  ILE226      0.0019
    106  CG2      -13.8210   26.1730  -16.6630 C.3   226  ILE226      0.0019
    107  CD1      -11.3410   24.4270  -15.7720 C.3   226  ILE226      0.0001
    108  N        -16.3150   20.2430  -15.5150 N.3   230  SER230     -0.1217
    109  CA       -16.3650   19.9800  -14.0920 C.3   230  SER230      0.1889
    110  C        -17.6300   19.1890  -13.7940 C.2   230  SER230      0.2288
    111  O        -17.6270   18.2990  -12.9430 O.2   230  SER230     -0.2866
    112  CB       -16.3130   21.2990  -13.2910 C.3   230  SER230      0.2089
    113  OG       -16.4810   21.0800  -11.9000 O.3   230  SER230     -0.2183
    114  N        -17.0820   15.6920  -14.8790 N.3   233  MET233     -0.1245
    115  CA       -15.7610   15.2840  -14.3810 C.3   233  MET233      0.1570
    116  C        -14.7630   14.9170  -15.4750 C.2   233  MET233      0.2261
    117  O        -13.7460   14.2960  -15.1820 O.2   233  MET233     -0.2867
    118  CB       -15.8560   14.1690  -13.3300 C.3   233  MET233      0.0387
    119  CG       -16.6150   14.6040  -12.0990 C.3   233  MET233      0.0595
    120  SD       -16.3830   13.5800  -10.6380 S.3   233  MET233     -0.1393
    121  CE       -14.7250   14.0140  -10.1060 C.3   233  MET233      0.0692
    122  N        -13.1680   17.1340  -16.7390 N.3   235  ASN235     -0.1225
    123  CA       -12.0900   18.0050  -16.3370 C.3   235  ASN235      0.1785
    124  C        -11.0250   17.2200  -15.5950 C.2   235  ASN235      0.2597
    125  O         -9.8280   17.3420  -15.9100 O.2   235  ASN235     -0.2718
    126  CB       -12.5580   19.1590  -15.4630 C.3   235  ASN235      0.1169
    127  CG       -11.4180   20.0940  -15.1200 C.2   235  ASN235      0.2627
    128  OD1      -10.8370   20.7210  -16.0030 O.2   235  ASN235     -0.2716
    129  ND2      -11.0530   20.1500  -13.8500 N.am  235  ASN235     -0.0877
    130  N        -11.4430   16.4270  -14.6070 N.am  236  LYS236     -0.1980
    131  CA       -10.4840   15.6230  -13.8540 C.3   236  LYS236      0.1596
    132  C         -9.8840   14.5360  -14.7220 C.2   236  LYS236      0.2287
    133  O         -8.7340   14.1730  -14.5200 O.2   236  LYS236     -0.2864
    134  CB       -11.0910   14.9810  -12.6000 C.3   236  LYS236      0.0298
    135  CG       -10.9220   15.7940  -11.3370 C.3   236  LYS236      0.0038
    136  CD        -9.4850   16.1830  -11.0390 C.3   236  LYS236      0.0206
    137  CE        -9.4350   17.2700   -9.9810 C.3   236  LYS236      0.1093
    138  NZ        -9.7030   18.6580  -10.4440 N.3   236  LYS236     -0.1314
    139  N         -7.1780   16.1280  -16.4370 N.3   239  GLU239     -0.1245
    140  CA        -6.1310   16.4440  -15.4600 C.3   239  GLU239      0.1567
    141  C         -5.3220   15.2190  -15.0520 C.2   239  GLU239      0.2260
    142  O         -4.1620   15.3420  -14.6550 O.2   239  GLU239     -0.2867
    143  CB        -6.7240   17.1350  -14.2410 C.3   239  GLU239      0.0388
    144  CG        -7.1280   18.5510  -14.5460 C.3   239  GLU239      0.1160
    145  CD        -7.7770   19.2480  -13.3740 C.2   239  GLU239      0.3649
    146  OE1       -7.9600   18.6270  -12.2910 O.co2 239  GLU239     -0.2457
    147  OE2       -8.1260   20.4220  -13.5600 O.co2 239  GLU239     -0.2457
    148  N        -12.7340   22.1780   -1.4130 N.3   262  CYS262     -0.1235
    149  CA       -11.7310   22.8460   -2.2610 C.3   262  CYS262      0.1677
    150  C        -10.6780   23.6480   -1.4850 C.2   262  CYS262      0.2270
    151  O        -10.2690   24.7300   -1.8980 O.2   262  CYS262     -0.2867
    152  CB       -12.4240   23.7410   -3.2810 C.3   262  CYS262      0.0956
    153  SG       -13.5040   22.7930   -4.3780 S.3   262  CYS262     -0.0801
    154  N         -5.5900   21.0900   -2.4180 N.3   265  HIS265     -0.1241
    155  CA        -5.6900   21.2060   -3.8650 C.3   265  HIS265      0.1621
    156  C         -5.1160   20.0240   -4.6140 C.2   265  HIS265      0.2264
    157  O         -5.4210   19.8240   -5.7850 O.2   265  HIS265     -0.2867
    158  CB        -5.1350   22.5410   -4.3310 C.3   265  HIS265      0.0745
    159  CG        -5.9620   23.6810   -3.8540 C.ar  265  HIS265      0.0817
    160  ND1       -7.3060   23.7690   -4.1350 N.ar  265  HIS265     -0.2268
    161  CD2       -5.6760   24.7330   -3.0570 C.ar  265  HIS265      0.1154
    162  CE1       -7.8100   24.8410   -3.5500 C.ar  265  HIS265      0.1986
    163  NE2       -6.8400   25.4500   -2.8990 N.ar  265  HIS265     -0.2212
    164  N        -10.1110   28.4710   -2.3670 N.3   282  PRO282     -0.2102
    165  CA       -10.1800   28.4100   -3.8230 C.3   282  PRO282      0.1504
    166  C         -9.8450   29.7740   -4.4580 C.2   282  PRO282      0.2576
    167  O        -10.6220   30.7220   -4.3420 O.2   282  PRO282     -0.2718
    168  CB       -11.6220   27.9690   -4.1120 C.3   282  PRO282      0.0282
    169  CG       -12.3510   27.9480   -2.8170 C.3   282  PRO282      0.0208
    170  CD       -11.3630   28.0650   -1.7010 C.3   282  PRO282      0.0893
    171  N         -8.6950   29.8490   -5.1090 N.am  283  ASP283     -0.1960
    172  CA        -8.1980   31.0910   -5.6580 C.3   283  ASP283      0.1840
    173  C         -7.0650   30.7660   -6.6080 C.2   283  ASP283      0.2621
    174  O         -6.1170   30.0760   -6.2460 O.2   283  ASP283     -0.2715
    175  CB        -7.6800   31.9980   -4.5490 C.3   283  ASP283      0.1450
    176  CG        -6.6410   32.9720   -5.0410 C.2   283  ASP283      0.3671
    177  OD1       -6.9680   33.8850   -5.8280 O.co2 283  ASP283     -0.2456
    178  OD2       -5.4770   32.8200   -4.6400 O.co2 283  ASP283     -0.2456
    179  N         -7.1750   31.2430   -7.8340 N.am  284  MET284     -0.1977
    180  CA        -6.1670   30.9590   -8.8450 C.3   284  MET284      0.1605
    181  C         -4.9430   31.8600   -8.7230 C.2   284  MET284      0.2287
    182  O         -3.9540   31.6420   -9.4090 O.2   284  MET284     -0.2864
    183  CB        -6.7730   31.0970  -10.2510 C.3   284  MET284      0.0413
    184  CG        -7.5850   29.8910  -10.6760 C.3   284  MET284      0.0598
    185  SD        -6.6600   28.3440  -10.5710 S.3   284  MET284     -0.1393
    186  CE        -5.4520   28.5670  -11.8810 C.3   284  MET284      0.0692
@<TRIPOS>BOND
     1     4     3    2
     2     3     2    1
     3     1     2    1
     4     2     5    1
     5     6     5    1
     6     6     7    1
     7   100   101    1
     8   101   104    1
     9   101   102    1
    10     7     8    1
    11   104   106    1
    12   104   105    1
    13     8     9    1
    14   102   103    2
    15   122   123    1
    16   139   140    1
    17   123   124    1
    18   123   126    1
    19   105   107    1
    20    95    94    2
    21   128   127    2
    22    94    93    1
    23   125   124    2
    24   124   130   am
    25   108   109    1
    26   116   117    2
    27   116   115    1
    28   126   127    1
    29   140   141    1
    30   140   143    1
    31   127   129   am
    32   141   142    2
    33    17    15   ar
    34   114   115    1
    35   132   133    2
    36   132   131    1
    37   130   131    1
    38    93    96    1
    39    93    92    1
    40   144   143    1
    41   144   145    1
    42   115   118    1
    43    96    97    1
    44    15    14    1
    45    15    16   ar
    46    14    11    1
    47   109   110    1
    48   109   112    1
    49   131   134    1
    50   110   111    2
    51    10    11    1
    52   147   145   ar
    53   145   146   ar
    54   118   119    1
    55    11    12    1
    56   112   113    1
    57    97    98    1
    58    98    99    1
    59   134   135    1
    60   119   120    1
    61   186   185    1
    62    12    13    2
    63    12    18   am
    64   135   136    1
    65    31    30   ar
    66   136   137    1
    67    18    19    1
    68    65    67   ar
    69    65    64   ar
    70   184   185    1
    71   184   183    1
    72   120   121    1
    73    59    60    1
    74   138   137    1
    75    63    64    1
    76    63    60    1
    77   183   180    1
    78    30    32   ar
    79    30    29    1
    80    67    68   ar
    81    64    66   ar
    82    81    80    2
    83    56    57    1
    84    56    55    1
    85    84    86   ar
    86    84    83   ar
    87    60    61    1
    88    80    79    1
    89    19    20    1
    90    19    22    1
    91   182   181    2
    92    24    20   am
    93    24    25    1
    94    86    87   ar
    95    28    29    1
    96    28    25    1
    97    57    58    2
    98    54    53    2
    99    26    25    1
   100    26    27    2
   101    23    22    1
   102    44    43    1
   103    20    21    2
   104    55    53   am
   105    68    66   ar
   106   180   181    1
   107   180   179    1
   108    82    83    1
   109    82    79    1
   110    83    85   ar
   111    53    52    1
   112    79    78    1
   113    61    62    2
   114    50    49    1
   115    43    40    1
   116    87    85   ar
   117    87    89   ar
   118   179   173   am
   119    52    51    1
   120    85    88   ar
   121    78    71   am
   122    51    47   am
   123    36    35    2
   124    40    41    1
   125    40    39    1
   126    89    91   ar
   127    49    46    1
   128    45    41   am
   129    45    46    1
   130   173   174    2
   131   173   172    1
   132    35    39   am
   133    35    34    1
   134    41    42    2
   135    47    46    1
   136    47    48    2
   137    88    90   ar
   138    33    34    1
   139    71    72    2
   140    71    70    1
   141    69    70    1
   142    91    90   ar
   143   177   176   ar
   144   157   156    2
   145   172   171    1
   146   172   175    1
   147    34    37    1
   148    70    73    1
   149    73    74    1
   150   171   166   am
   151   176   178   ar
   152   176   175    1
   153   156   155    1
   154   166   167    2
   155   166   165    1
   156    37    38    1
   157   153   152    1
   158   158   155    1
   159   158   159    1
   160    74    75    1
   161   160   159   ar
   162   160   162   ar
   163   168   165    1
   164   168   169    1
   165   155   154    1
   166   159   161   ar
   167   165   164    1
   168   162   163   ar
   169   152   149    1
   170   161   163   ar
   171    75    76    1
   172   169   170    1
   173   164   170    1
   174   149   150    1
   175   149   148    1
   176   151   150    2
   177    76    77    1
