@<TRIPOS>MOLECULE
tmp/4y6sA00.pdb
 179 173 0 0 0
SMALL
GASTEIGER

@<TRIPOS>ATOM
      1  N         12.3080   15.8070   24.2340 N.3   129  LYS129     -0.1245
      2  CA        11.9890   17.2280   24.0850 C.3   129  LYS129      0.1561
      3  C         12.2580   18.0180   25.3580 C.2   129  LYS129      0.2260
      4  O         12.3190   19.2480   25.3460 O.2   129  LYS129     -0.2867
      5  CB        10.5140   17.3800   23.6820 C.3   129  LYS129      0.0271
      6  CG         9.5290   17.2640   24.8440 C.3   129  LYS129      0.0035
      7  CD         8.0940   17.0380   24.3840 C.3   129  LYS129      0.0206
      8  CE         7.8610   15.5820   24.0030 C.3   129  LYS129      0.1093
      9  NZ         6.5020   15.3140   23.4600 N.3   129  LYS129     -0.1314
     10  N         10.5210   13.8830   17.7700 N.3   155  ASP155     -0.1225
     11  CA         9.1860   14.1280   18.2930 C.3   155  ASP155      0.1805
     12  C          8.2970   14.3560   17.0730 C.2   155  ASP155      0.2598
     13  O          8.6490   15.1430   16.1850 O.2   155  ASP155     -0.2718
     14  CB         9.2110   15.3460   19.2140 C.3   155  ASP155      0.1424
     15  CG         7.9830   15.4460   20.0890 C.2   155  ASP155      0.3668
     16  OD1        7.0790   14.6030   19.9370 O.co2 155  ASP155     -0.2456
     17  OD2        7.9310   16.3730   20.9250 O.co2 155  ASP155     -0.2456
     18  N          7.1700   13.6510   17.0100 N.am  156  SER156     -0.1938
     19  CA         6.4860   13.4530   15.7350 C.3   156  SER156      0.2055
     20  C          5.9230   14.7330   15.0950 C.2   156  SER156      0.2642
     21  O          5.9020   14.8290   13.8710 O.2   156  SER156     -0.2714
     22  CB         5.4000   12.3840   15.8470 C.3   156  SER156      0.2130
     23  OG         4.2640   12.8940   16.5170 O.3   156  SER156     -0.2179
     24  N          5.4770   15.7000   15.8980 N.am  157  GLU157     -0.1976
     25  CA         4.9910   16.9830   15.3640 C.3   157  GLU157      0.1602
     26  C          6.1610   17.7600   14.7720 C.2   157  GLU157      0.2287
     27  O          6.0100   18.5030   13.8090 O.2   157  GLU157     -0.2864
     28  CB         4.3000   17.8520   16.4410 C.3   157  GLU157      0.0415
     29  CG         3.1340   17.2020   17.1690 C.3   157  GLU157      0.1163
     30  CD         3.5970   16.2620   18.2740 C.2   157  GLU157      0.3649
     31  OE1        4.8180   16.1340   18.4420 O.co2 157  GLU157     -0.2457
     32  OE2        2.7580   15.6680   18.9810 O.co2 157  GLU157     -0.2457
     33  N         -2.3990   18.4610   18.0210 N.3   193  SER193     -0.1202
     34  CA        -2.4680   17.6550   19.2300 C.3   193  SER193      0.2020
     35  C         -3.6550   16.7240   19.1050 C.2   193  SER193      0.2619
     36  O         -4.6630   17.0710   18.4790 O.2   193  SER193     -0.2717
     37  CB        -2.6740   18.5110   20.4750 C.3   193  SER193      0.2103
     38  OG        -2.8690   17.6900   21.6310 O.3   193  SER193     -0.2182
     39  N         -3.5140   15.5400   19.7000 N.am  194  SER194     -0.1937
     40  CA        -4.5840   14.5610   19.7600 C.3   194  SER194      0.2055
     41  C         -5.6890   15.1100   20.6430 C.2   194  SER194      0.2644
     42  O         -6.8550   14.7740   20.4660 O.2   194  SER194     -0.2714
     43  CB        -4.0620   13.2140   20.2980 C.3   194  SER194      0.2130
     44  OG        -4.2050   13.0920   21.7040 O.3   194  SER194     -0.2179
     45  N         -5.3130   15.9760   21.5830 N.am  195  GLY195     -0.1939
     46  CA        -6.2630   16.5460   22.5490 C.3   195  GLY195      0.2014
     47  C         -6.4080   15.7540   23.8450 C.2   195  GLY195      0.2639
     48  O         -6.9480   16.2570   24.8320 O.2   195  GLY195     -0.2714
     49  N         -5.9170   14.5180   23.8430 N.am  196  GLY196     -0.1940
     50  CA        -6.0240   13.6370   25.0040 C.3   196  GLY196      0.1998
     51  C         -7.4700   13.2280   25.2110 C.2   196  GLY196      0.2480
     52  O         -8.3180   13.4980   24.3640 O.2   196  GLY196     -0.2729
     53  N         -7.7610   12.5540   26.3280 N.am  197  PRO197     -0.2726
     54  CA        -9.1130   12.0180   26.5030 C.3   197  PRO197      0.1402
     55  C        -10.1170   12.9820   27.1400 C.2   197  PRO197      0.2269
     56  O        -11.2810   12.6230   27.2950 O.2   197  PRO197     -0.2865
     57  CB        -8.8900   10.7800   27.4030 C.3   197  PRO197      0.0296
     58  CG        -7.5420   10.9560   28.0230 C.3   197  PRO197      0.0237
     59  CD        -6.7450   11.8140   27.0990 C.3   197  PRO197      0.0939
     60  N         -6.6800    6.0760   29.6480 N.3   216  LYS216     -0.1231
     61  CA        -7.6110    5.4140   28.7360 C.3   216  LYS216      0.1693
     62  C         -7.6020    6.1090   27.3800 C.2   216  LYS216      0.2592
     63  O         -7.1920    7.2620   27.2480 O.2   216  LYS216     -0.2718
     64  CB        -9.0480    5.4430   29.2590 C.3   216  LYS216      0.0285
     65  CG        -9.3170    4.6650   30.5190 C.3   216  LYS216      0.0035
     66  CD        -9.3110    3.1870   30.3160 C.3   216  LYS216      0.0206
     67  CE        -9.1910    2.4900   31.6470 C.3   216  LYS216      0.1093
     68  NZ       -10.2350    3.0510   32.5570 N.3   216  LYS216     -0.1314
     69  N         -8.0490    5.3610   26.3800 N.am  217  HIS217     -0.1962
     70  CA        -8.1850    5.8350   25.0060 C.3   217  HIS217      0.1772
     71  C         -6.8010    6.1500   24.4320 C.2   217  HIS217      0.2462
     72  O         -6.6190    7.1670   23.7720 O.2   217  HIS217     -0.2730
     73  CB        -9.1200    7.0590   24.8980 C.3   217  HIS217      0.0785
     74  CG       -10.4030    6.9200   25.6670 C.ar  217  HIS217      0.0821
     75  ND1      -10.6180    7.5310   26.8780 N.ar  217  HIS217     -0.2267
     76  CD2      -11.5220    6.2070   25.4050 C.ar  217  HIS217      0.1154
     77  CE1      -11.8200    7.2070   27.3270 C.ar  217  HIS217      0.1986
     78  NE2      -12.3880    6.4030   26.4500 N.ar  217  HIS217     -0.2212
     79  N         -5.8170    5.2520   24.6590 N.am  218  PRO218     -0.2716
     80  CA        -4.4790    5.5650   24.1470 C.3   218  PRO218      0.1536
     81  C         -4.4190    5.5600   22.6230 C.2   218  PRO218      0.2598
     82  O         -4.4330    4.4960   22.0030 O.2   218  PRO218     -0.2715
     83  CB        -3.6040    4.4340   24.7050 C.3   218  PRO218      0.0310
     84  CG        -4.5270    3.2900   24.8870 C.3   218  PRO218      0.0237
     85  CD        -5.8610    3.8990   25.2610 C.3   218  PRO218      0.0939
     86  N         -4.3250    6.7500   22.0360 N.am  219  LYS219     -0.1964
     87  CA        -4.2770    6.9060   20.5760 C.3   219  LYS219      0.1728
     88  C         -2.8990    6.6610   19.9710 C.2   219  LYS219      0.2616
     89  O         -2.7830    6.3010   18.7950 O.2   219  LYS219     -0.2715
     90  CB        -4.7770    8.2800   20.1700 C.3   219  LYS219      0.0311
     91  CG        -6.2750    8.3330   20.1820 C.3   219  LYS219      0.0038
     92  CD        -6.7800    9.4430   19.3190 C.3   219  LYS219      0.0206
     93  CE        -8.0790    9.8460   19.9140 C.3   219  LYS219      0.1093
     94  NZ        -8.5170   11.0290   19.1680 N.3   219  LYS219     -0.1314
     95  N         -1.8580    6.8870   20.7670 N.am  220  TRP220     -0.1974
     96  CA        -0.5260    6.3760   20.4570 C.3   220  TRP220      0.1640
     97  C         -0.1130    5.4300   21.5830 C.2   220  TRP220      0.2290
     98  O         -0.6140    5.5280   22.7040 O.2   220  TRP220     -0.2864
     99  CB         0.5160    7.4930   20.3510 C.3   220  TRP220      0.0576
    100  CG         0.1990    8.6230   19.4140 C.ar  220  TRP220      0.0006
    101  CD1       -0.8180    9.5270   19.5260 C.ar  220  TRP220      0.0946
    102  CD2        0.9530    9.0110   18.2570 C.ar  220  TRP220      0.0152
    103  NE1       -0.7570   10.4400   18.4980 N.ar  220  TRP220     -0.2442
    104  CE2        0.3200   10.1460   17.7050 C.ar  220  TRP220      0.0810
    105  CE3        2.0930    8.5010   17.6260 C.ar  220  TRP220      0.0012
    106  CZ2        0.7900   10.7780   16.5490 C.ar  220  TRP220      0.0191
    107  CZ3        2.5560    9.1290   16.4810 C.ar  220  TRP220      0.0001
    108  CH2        1.9050   10.2530   15.9530 C.ar  220  TRP220      0.0015
    109  N          2.2290    4.6830   24.2690 N.3   222  MET222     -0.1245
    110  CA         3.1470    5.5840   24.9630 C.3   222  MET222      0.1570
    111  C          3.2920    5.3090   26.4600 C.2   222  MET222      0.2261
    112  O          2.4580    4.6570   27.0800 O.2   222  MET222     -0.2867
    113  CB         2.7140    7.0390   24.7310 C.3   222  MET222      0.0387
    114  CG         2.8760    7.4950   23.2830 C.3   222  MET222      0.0595
    115  SD         4.2850    8.5710   22.9640 S.3   222  MET222     -0.1393
    116  CE         4.4360    8.4380   21.1820 C.3   222  MET222      0.0692
    117  N          4.2390   10.8380   29.5860 N.3   226  ILE226     -0.1231
    118  CA         3.8090   11.6490   28.4490 C.3   226  ILE226      0.1692
    119  C          2.2980   11.5040   28.2370 C.2   226  ILE226      0.2592
    120  O          1.6490   12.4000   27.6980 O.2   226  ILE226     -0.2718
    121  CB         4.6190   11.3390   27.1550 C.3   226  ILE226      0.0266
    122  CG1        4.3610   12.4290   26.0920 C.3   226  ILE226      0.0019
    123  CG2        4.3230    9.9450   26.6100 C.3   226  ILE226      0.0020
    124  CD1        4.9660   12.1520   24.7280 C.3   226  ILE226      0.0001
    125  N          1.7450   10.3780   28.6740 N.am  227  THR227     -0.1953
    126  CA         0.2910   10.1770   28.6310 C.3   227  THR227      0.1897
    127  C         -0.4270   11.1760   29.5730 C.2   227  THR227      0.2313
    128  O         -1.4420   11.7690   29.2070 O.2   227  THR227     -0.2863
    129  CB        -0.0700    8.7090   28.9540 C.3   227  THR227      0.1794
    130  OG1        0.5340    7.8410   27.9820 O.3   227  THR227     -0.2208
    131  CG2       -1.5570    8.4740   28.9260 C.3   227  THR227      0.0378
    132  N         -0.1660   14.4640   27.9650 N.3   230  SER230     -0.1217
    133  CA        -1.1240   14.5560   26.8610 C.3   230  SER230      0.1889
    134  C         -2.4920   14.9510   27.3960 C.2   230  SER230      0.2288
    135  O         -3.1970   15.7810   26.8140 O.2   230  SER230     -0.2866
    136  CB        -1.2080   13.2280   26.0860 C.3   230  SER230      0.2089
    137  OG        -2.2660   13.2500   25.1360 O.3   230  SER230     -0.2183
    138  N         -2.5000   18.4650   28.3980 N.3   233  MET233     -0.1245
    139  CA        -1.9390   19.2060   27.2690 C.3   233  MET233      0.1570
    140  C         -0.6600   19.9570   27.6530 C.2   233  MET233      0.2261
    141  O         -0.2280   20.8630   26.9310 O.2   233  MET233     -0.2867
    142  CB        -2.9810   20.1270   26.6170 C.3   233  MET233      0.0387
    143  CG        -4.1270   19.3630   25.9400 C.3   233  MET233      0.0595
    144  SD        -5.0330   20.3480   24.7200 S.3   233  MET233     -0.1393
    145  CE        -3.9090   20.0700   23.3480 C.3   233  MET233      0.0692
    146  N          1.9710   18.3630   27.4490 N.3   235  ASN235     -0.1225
    147  CA         2.8090   17.8640   26.3720 C.3   235  ASN235      0.1785
    148  C          2.8520   18.8910   25.2440 C.2   235  ASN235      0.2597
    149  O          3.9200   19.2960   24.7990 O.2   235  ASN235     -0.2718
    150  CB         2.3410   16.5130   25.8440 C.3   235  ASN235      0.1169
    151  CG         3.3410   15.9060   24.8920 C.2   235  ASN235      0.2627
    152  OD1        4.5410   15.9200   25.1600 O.2   235  ASN235     -0.2716
    153  ND2        2.8670   15.3910   23.7670 N.am  235  ASN235     -0.0877
    154  N          1.6970   19.3270   24.7790 N.am  236  LYS236     -0.1980
    155  CA         1.7030   20.3020   23.7060 C.3   236  LYS236      0.1596
    156  C          2.4230   21.5880   24.1230 C.2   236  LYS236      0.2287
    157  O          3.1140   22.1990   23.3160 O.2   236  LYS236     -0.2864
    158  CB         0.2890   20.5730   23.2070 C.3   236  LYS236      0.0298
    159  CG         0.2300   20.8550   21.7140 C.3   236  LYS236      0.0038
    160  CD         0.8780   19.7720   20.8420 C.3   236  LYS236      0.0206
    161  CE         0.6900   18.3370   21.3350 C.3   236  LYS236      0.1093
    162  NZ         1.0740   17.3960   20.2310 N.3   236  LYS236     -0.1314
    163  N          6.0670   21.1690   23.8240 N.3   239  GLU239     -0.1245
    164  CA         6.2740   21.1040   22.3770 C.3   239  GLU239      0.1567
    165  C          6.1370   22.4490   21.6940 C.2   239  GLU239      0.2260
    166  O          6.7030   22.6490   20.6270 O.2   239  GLU239     -0.2867
    167  CB         5.3090   20.1160   21.7220 C.3   239  GLU239      0.0388
    168  CG         5.6290   18.6620   22.0050 C.3   239  GLU239      0.1160
    169  CD         4.6350   17.7400   21.3450 C.2   239  GLU239      0.3649
    170  OE1        3.7950   18.2720   20.5910 O.co2 239  GLU239     -0.2457
    171  OE2        4.7080   16.5060   21.5600 O.co2 239  GLU239     -0.2457
    172  N          5.2180    5.9850   15.3680 N.3   284  MET284     -0.1245
    173  CA         6.4530    6.6940   15.6490 C.3   284  MET284      0.1570
    174  C          7.5580    6.2630   14.6890 C.2   284  MET284      0.2261
    175  O          8.6550    6.8160   14.7150 O.2   284  MET284     -0.2867
    176  CB         6.8800    6.5310   17.1140 C.3   284  MET284      0.0387
    177  CG         6.3330    7.6190   18.0390 C.3   284  MET284      0.0595
    178  SD         6.4110    9.3150   17.3780 S.3   284  MET284     -0.1393
    179  CE         8.1410    9.7950   17.5160 C.3   284  MET284      0.0692
@<TRIPOS>BOND
     1    27    26    2
     2    21    20    2
     3   174   175    2
     4   174   173    1
     5    26    25    1
     6    20    19    1
     7    20    24   am
     8    25    24    1
     9    25    28    1
    10   172   173    1
    11   173   176    1
    12    19    22    1
    13    19    18    1
    14    22    23    1
    15   108   107   ar
    16   108   106   ar
    17    13    12    2
    18    28    29    1
    19   107   105   ar
    20   106   104   ar
    21    18    12   am
    22    12    11    1
    23   176   177    1
    24    29    30    1
    25   178   179    1
    26   178   177    1
    27   105   102   ar
    28   104   102   ar
    29   104   103   ar
    30    10    11    1
    31    33    34    1
    32   102   100   ar
    33    30    31   ar
    34    30    32   ar
    35    11    14    1
    36    36    35    2
    37   103   101   ar
    38    89    88    2
    39    35    34    1
    40    35    39   am
    41    94    93    1
    42    14    15    1
    43    34    37    1
    44    92    93    1
    45    92    91    1
    46   100   101   ar
    47   100    99    1
    48    39    40    1
    49    40    43    1
    50    40    41    1
    51    16    15   ar
    52    88    87    1
    53    88    95   am
    54    15    17   ar
    55    90    91    1
    56    90    87    1
    57   162   161    1
    58    43    44    1
    59    99    96    1
    60    96    95    1
    61    96    97    1
    62    42    41    2
    63    37    38    1
    64    87    86    1
    65   170   169   ar
    66   166   165    2
    67    41    45   am
    68   160   161    1
    69   160   159    1
    70   116   115    1
    71   169   171   ar
    72   169   168    1
    73    97    98    2
    74    45    46    1
    75   165   164    1
    76   159   158    1
    77   167   168    1
    78   167   164    1
    79    82    81    2
    80    86    81   am
    81   164   163    1
    82    46    47    1
    83    81    80    1
    84   115   114    1
    85   158   155    1
    86   114   113    1
    87   157   156    2
    88   145   144    1
    89     9     8    1
    90     5     2    1
    91     5     6    1
    92   155   156    1
    93   155   154    1
    94   153   151   am
    95    72    71    2
    96    49    47   am
    97    49    50    1
    98    47    48    2
    99     8     7    1
   100     2     1    1
   101     2     3    1
   102    80    79    1
   103    80    83    1
   104   109   110    1
   105    52    51    2
   106     7     6    1
   107    71    79   am
   108    71    70    1
   109    79    85    1
   110    83    84    1
   111   144   143    1
   112   124   122    1
   113   113   110    1
   114   154   148   am
   115   149   148    2
   116    84    85    1
   117   151   152    2
   118   151   150    1
   119    73    70    1
   120    73    74    1
   121   110   111    1
   122    50    51    1
   123    70    69    1
   124   137   136    1
   125    51    53   am
   126   148   147    1
   127     4     3    2
   128    76    74   ar
   129    76    78   ar
   130    74    75   ar
   131   150   147    1
   132   143   142    1
   133   136   133    1
   134   122   121    1
   135    53    54    1
   136    53    59    1
   137   147   146    1
   138    69    62   am
   139    78    77   ar
   140   111   112    2
   141    54    55    1
   142    54    57    1
   143   123   121    1
   144   142   139    1
   145   135   134    2
   146   133   134    1
   147   133   132    1
   148    75    77   ar
   149   141   140    2
   150    59    58    1
   151    55    56    2
   152   121   118    1
   153    63    62    2
   154   139   140    1
   155   139   138    1
   156    62    61    1
   157    57    58    1
   158   120   119    2
   159   130   129    1
   160   119   118    1
   161   119   125   am
   162   118   117    1
   163   126   125    1
   164   126   129    1
   165   126   127    1
   166    61    64    1
   167    61    60    1
   168   131   129    1
   169   128   127    2
   170    64    65    1
   171    66    65    1
   172    66    67    1
   173    67    68    1
