@<TRIPOS>MOLECULE
tmp/4y6vN00.pdb
 129 120 0 0 0
SMALL
GASTEIGER

@<TRIPOS>ATOM
      1  N         43.4770 -142.9380   63.2610 N.3     1  THR1       -0.1218
      2  CA        43.3580 -142.0810   64.4330 C.3     1  THR1        0.1862
      3  C         42.5080 -142.7180   65.5000 C.2     1  THR1        0.2287
      4  O         41.5360 -143.3660   65.2290 O.2     1  THR1       -0.2866
      5  CB        42.7150 -140.8140   64.0400 C.3     1  THR1        0.1770
      6  OG1       43.5970 -140.2340   63.1440 O.3     1  THR1       -0.2211
      7  CG2       42.6500 -139.8860   65.1990 C.3     1  THR1        0.0375
      8  N         50.0190 -141.4100   65.8600 N.3    19  ARG19      -0.1231
      9  CA        50.4190 -142.0640   64.6100 C.3    19  ARG19       0.1694
     10  C         49.6800 -141.4740   63.4070 C.2    19  ARG19       0.2593
     11  O         48.4530 -141.3750   63.4160 O.2    19  ARG19      -0.2718
     12  CB        50.1640 -143.5790   64.6980 C.3    19  ARG19       0.0321
     13  CG        50.5920 -144.3680   63.4690 C.3    19  ARG19       0.0489
     14  CD        50.4530 -145.8710   63.6690 C.3    19  ARG19       0.2205
     15  NE        51.4530 -146.4090   64.5900 N.pl3  19  ARG19      -0.0865
     16  CZ        51.6360 -147.7030   64.8410 C.cat  19  ARG19       0.5346
     17  NH1       50.8880 -148.6260   64.2440 N.pl3  19  ARG19       0.1354
     18  NH2       52.5810 -148.0790   65.6960 N.pl3  19  ARG19       0.1354
     19  N         50.4550 -141.1380   62.3730 N.am   20  THR20      -0.1939
     20  CA        50.0240 -140.6620   61.0550 C.3    20  THR20       0.2028
     21  C         50.5680 -141.5560   59.9630 C.2    20  THR20       0.2643
     22  O         51.7390 -141.6540   59.8300 O.2    20  THR20      -0.2714
     23  CB        50.6450 -139.3050   60.7470 C.3    20  THR20       0.1808
     24  OG1       50.4620 -138.4290   61.8440 O.3    20  THR20      -0.2208
     25  CG2       50.0260 -138.6940   59.5580 C.3    20  THR20       0.0379
     26  N         49.7300 -142.1950   59.1630 N.am   21  THR21      -0.1936
     27  CA        50.2160 -143.1760   58.2070 C.3    21  THR21       0.2028
     28  C         49.9910 -142.7370   56.7620 C.2    21  THR21       0.2642
     29  O         49.0650 -141.9800   56.4690 O.2    21  THR21      -0.2714
     30  CB        49.5020 -144.5250   58.4180 C.3    21  THR21       0.1808
     31  OG1       48.0850 -144.3130   58.4440 O.3    21  THR21      -0.2208
     32  CG2       49.9370 -145.1750   59.7290 C.3    21  THR21       0.0379
     33  N         50.8690 -143.2070   55.8770 N.am   22  THR22      -0.1950
     34  CA        50.6630 -143.1380   54.4320 C.3    22  THR22       0.1897
     35  C         50.6490 -144.5750   53.9270 C.2    22  THR22       0.2313
     36  O         51.6990 -145.1480   53.6280 O.2    22  THR22      -0.2863
     37  CB        51.7800 -142.3460   53.7280 C.3    22  THR22       0.1794
     38  OG1       51.8860 -141.0430   54.3080 O.3    22  THR22      -0.2208
     39  CG2       51.4840 -142.1990   52.2400 C.3    22  THR22       0.0378
     40  N         54.3220 -142.2650   58.7010 N.3    27  ALA27      -0.1245
     41  CA        55.0200 -141.0470   58.2690 C.3    27  ALA27       0.1562
     42  C         55.4390 -140.1590   59.4350 C.2    27  ALA27       0.2260
     43  O         56.3860 -139.3850   59.3150 O.2    27  ALA27      -0.2867
     44  CB        54.1550 -140.2560   57.2990 C.3    27  ALA27       0.0290
     45  N         53.0620 -137.5110   66.3310 N.3    31  THR31      -0.1218
     46  CA        52.1620 -136.4340   65.9130 C.3    31  THR31       0.1862
     47  C         51.3760 -135.8450   67.0770 C.2    31  THR31       0.2287
     48  O         51.0020 -136.5630   68.0070 O.2    31  THR31      -0.2866
     49  CB        51.1340 -136.9600   64.8960 C.3    31  THR31       0.1770
     50  OG1       51.7770 -137.8860   64.0180 O.3    31  THR31      -0.2211
     51  CG2       50.5220 -135.8280   64.0810 C.3    31  THR31       0.0375
     52  N         47.8880 -134.4140   67.6640 N.3    33  LYS33      -0.1245
     53  CA        46.5490 -134.3250   67.0770 C.3    33  LYS33       0.1561
     54  C         45.5920 -133.4730   67.9130 C.2    33  LYS33       0.2260
     55  O         44.4410 -133.2650   67.5220 O.2    33  LYS33      -0.2867
     56  CB        45.9680 -135.7290   66.9020 C.3    33  LYS33       0.0271
     57  CG        46.8110 -136.6170   66.0040 C.3    33  LYS33       0.0035
     58  CD        46.2220 -138.0070   65.8710 C.3    33  LYS33       0.0206
     59  CE        47.1390 -138.8970   65.0510 C.3    33  LYS33       0.1093
     60  NZ        46.5600 -140.2550   64.8790 N.3    33  LYS33      -0.1314
     61  N         41.5590 -133.9250   65.7760 N.3    45  ARG45      -0.1231
     62  CA        41.4460 -134.0160   64.3510 C.3    45  ARG45       0.1694
     63  C         41.5870 -135.4460   63.8980 C.2    45  ARG45       0.2593
     64  O         42.4580 -136.1350   64.3310 O.2    45  ARG45      -0.2718
     65  CB        42.5490 -133.1990   63.7270 C.3    45  ARG45       0.0321
     66  CG        42.5880 -131.7660   64.1590 C.3    45  ARG45       0.0489
     67  CD        43.6540 -131.0270   63.4090 C.3    45  ARG45       0.2205
     68  NE        44.9750 -131.4010   63.8480 N.pl3  45  ARG45      -0.0865
     69  CZ        45.7950 -132.1710   63.1700 C.cat  45  ARG45       0.5346
     70  NH1       45.4380 -132.6670   62.0170 N.pl3  45  ARG45       0.1354
     71  NH2       46.9730 -132.4400   63.6420 N.pl3  45  ARG45       0.1354
     72  N         40.7130 -135.8760   63.0130 N.am   46  SER46      -0.1938
     73  CA        40.8460 -137.1490   62.3700 C.3    46  SER46       0.2055
     74  C         40.4400 -137.0300   60.9280 C.2    46  SER46       0.2644
     75  O         39.6240 -136.2350   60.5790 O.2    46  SER46      -0.2714
     76  CB        40.0220 -138.1910   63.0720 C.3    46  SER46       0.2130
     77  OG        38.6920 -138.1300   62.6730 O.3    46  SER46      -0.2179
     78  N         41.0570 -137.8180   60.0810 N.am   47  GLY47      -0.1939
     79  CA        40.7950 -137.7560   58.6730 C.3    47  GLY47       0.2014
     80  C         42.0350 -137.3920   57.9300 C.2    47  GLY47       0.2640
     81  O         43.0950 -137.8560   58.2290 O.2    47  GLY47      -0.2714
     82  N         41.8820 -136.5300   56.9550 N.am   48  SER48      -0.1935
     83  CA        42.9780 -136.0510   56.1770 C.3    48  SER48       0.2055
     84  C         43.6450 -134.9430   56.9150 C.2    48  SER48       0.2643
     85  O         43.0070 -134.0500   57.3530 O.2    48  SER48      -0.2714
     86  CB        42.4260 -135.5560   54.8610 C.3    48  SER48       0.2130
     87  OG        43.2340 -134.6050   54.2640 O.3    48  SER48      -0.2179
     88  N         44.9540 -135.0080   57.0410 N.am   49  ALA49      -0.1963
     89  CA        45.7200 -134.0030   57.7440 C.3    49  ALA49       0.1728
     90  C         45.7980 -132.6790   57.0560 C.2    49  ALA49       0.2616
     91  O         45.9130 -131.7120   57.7010 O.2    49  ALA49      -0.2715
     92  CB        47.1020 -134.5120   58.0370 C.3    49  ALA49       0.0334
     93  N         45.7160 -132.6230   55.7440 N.am   50  ALA50      -0.1977
     94  CA        45.7040 -131.3390   55.0550 C.3    50  ALA50       0.1597
     95  C         44.4090 -130.5810   55.3360 C.2    50  ALA50       0.2287
     96  O         44.4400 -129.3890   55.6480 O.2    50  ALA50      -0.2864
     97  CB        45.8820 -131.5410   53.5590 C.3    50  ALA50       0.0319
     98  N         42.0610 -131.0360   57.8180 N.3    52  THR52      -0.1203
     99  CA        41.8240 -130.7320   59.2110 C.3    52  THR52       0.1994
    100  C         42.7550 -129.7010   59.7380 C.2    52  THR52       0.2617
    101  O         42.3850 -128.9230   60.5640 O.2    52  THR52      -0.2717
    102  CB        41.9140 -131.9530   60.1280 C.3    52  THR52       0.1784
    103  OG1       43.2380 -132.4460   60.1340 O.3    52  THR52      -0.2211
    104  CG2       41.0150 -133.0120   59.7050 C.3    52  THR52       0.0376
    105  N         43.9760 -129.6950   59.2630 N.am   53  GLN53      -0.1979
    106  CA        44.9240 -128.6840   59.6380 C.3    53  GLN53       0.1601
    107  C         44.5530 -127.3660   59.0390 C.2    53  GLN53       0.2287
    108  O         44.9540 -126.3620   59.5150 O.2    53  GLN53      -0.2864
    109  CB        46.2890 -129.0430   59.1310 C.3    53  GLN53       0.0394
    110  CG        47.0660 -129.9900   59.9820 C.3    53  GLN53       0.0908
    111  CD        48.4310 -130.2250   59.4530 C.2    53  GLN53       0.2608
    112  OE1       48.9210 -129.4660   58.6820 O.2    53  GLN53      -0.2717
    113  NE2       49.0420 -131.2790   59.8680 N.am   53  GLN53      -0.0878
    114  N         37.7290 -141.3890   64.7690 N.3   128  GLY128     -0.1210
    115  CA        38.9100 -141.9660   64.1370 C.3   128  GLY128      0.1956
    116  C         38.7030 -143.4430   63.8760 C.2   128  GLY128      0.2612
    117  O         37.7680 -144.0470   64.4000 O.2   128  GLY128     -0.2717
    118  N         39.5860 -144.0240   63.0680 N.am  129  SER129     -0.1952
    119  CA        39.4950 -145.4350   62.6900 C.3   129  SER129      0.1924
    120  C         39.5330 -146.3720   63.9000 C.2   129  SER129      0.2314
    121  O         38.8560 -147.4010   63.9130 O.2   129  SER129     -0.2863
    122  CB        40.6230 -145.7930   61.7200 C.3   129  SER129      0.2116
    123  OG        41.8900 -145.4520   62.2600 O.3   129  SER129     -0.2180
    124  N         46.3650 -148.3290   62.3130 N.3   168  SER168     -0.1217
    125  CA        46.5090 -146.9120   61.9840 C.3   168  SER168      0.1889
    126  C         46.7250 -146.0290   63.2140 C.2   168  SER168      0.2288
    127  O         47.0290 -144.8460   63.0750 O.2   168  SER168     -0.2866
    128  CB        45.2830 -146.4280   61.2070 C.3   168  SER168      0.2089
    129  OG        45.1540 -147.1240   59.9820 O.3   168  SER168     -0.2183
@<TRIPOS>BOND
     1    39    37    1
     2    97    94    1
     3    36    35    2
     4    37    38    1
     5    37    34    1
     6    35    34    1
     7    87    86    1
     8    34    33    1
     9    86    83    1
    10    94    95    1
    11    94    93    1
    12    95    96    2
    13    93    90   am
    14    33    28   am
    15    83    84    1
    16    83    82    1
    17    29    28    2
    18    28    27    1
    19    84    88   am
    20    84    85    2
    21    82    80   am
    22    88    89    1
    23    90    91    2
    24    90    89    1
    25    44    41    1
    26    89    92    1
    27    98    99    1
    28    80    81    2
    29    80    79    1
    30    27    30    1
    31    27    26    1
    32    41    40    1
    33    41    42    1
    34    30    31    1
    35    30    32    1
    36    79    78    1
    37   112   111    2
    38   107   108    2
    39   107   106    1
    40   109   106    1
    41   109   110    1
    42    26    21   am
    43    99   100    1
    44    99   102    1
    45   105   106    1
    46   105   100   am
    47    43    42    2
    48   111   113   am
    49   111   110    1
    50    25    23    1
    51   104   102    1
    52   100   101    2
    53    22    21    2
    54    21    20    1
    55   129   128    1
    56    78    74   am
    57   102   103    1
    58    75    74    2
    59    23    20    1
    60    23    24    1
    61    74    73    1
    62    20    19    1
    63   128   125    1
    64   122   123    1
    65   122   119    1
    66   125   124    1
    67   125   126    1
    68    70    69    1
    69    73    72    1
    70    73    76    1
    71    19    10   am
    72    77    76    1
    73   119   118    1
    74   119   120    1
    75    72    63   am
    76   118   116   am
    77   127   126    2
    78     6     5    1
    79    69    71    1
    80    69    68    2
    81     1     2    1
    82    10    11    2
    83    10     9    1
    84    67    68    1
    85    67    66    1
    86    13    14    1
    87    13    12    1
    88    14    15    1
    89    65    66    1
    90    65    62    1
    91   116   115    1
    92   116   117    2
    93    63    64    2
    94    63    62    1
    95   120   121    2
    96    50    49    1
    97     5     2    1
    98     5     7    1
    99    51    49    1
   100   115   114    1
   101    17    16    1
   102    62    61    1
   103     2     3    1
   104    15    16    2
   105     9    12    1
   106     9     8    1
   107    16    18    1
   108    60    59    1
   109    49    46    1
   110    59    58    1
   111     4     3    2
   112    58    57    1
   113    46    45    1
   114    46    47    1
   115    57    56    1
   116    56    53    1
   117    53    52    1
   118    53    54    1
   119    47    48    2
   120    55    54    2
