@<TRIPOS>MOLECULE
tmp/4y70V00.pdb
 119 110 0 0 0
SMALL
GASTEIGER

@<TRIPOS>ATOM
      1  N          5.1820 -159.8050   43.4420 N.3     1  THR1       -0.1218
      2  CA         4.5950 -160.7790   44.4100 C.3     1  THR1        0.1862
      3  C          4.6070 -160.4560   45.9150 C.2     1  THR1        0.2287
      4  O          5.5630 -159.9790   46.4710 O.2     1  THR1       -0.2866
      5  CB         5.2740 -162.1160   44.2570 C.3     1  THR1        0.1770
      6  OG1        5.0820 -162.4650   42.9810 O.3     1  THR1       -0.2211
      7  CG2        4.6520 -163.1890   45.0970 C.3     1  THR1        0.0375
      8  N         -0.9240 -161.6860   40.9050 N.3    19  ARG19      -0.1231
      9  CA        -0.4280 -160.7940   39.8490 C.3    19  ARG19       0.1694
     10  C          0.9400 -161.2380   39.3250 C.2    19  ARG19       0.2593
     11  O          1.8170 -161.6050   40.1020 O.2    19  ARG19      -0.2718
     12  CB        -0.3430 -159.3500   40.3580 C.3    19  ARG19       0.0321
     13  CG         0.2530 -158.3680   39.3540 C.3    19  ARG19       0.0489
     14  CD         0.2480 -156.9390   39.8730 C.3    19  ARG19       0.2205
     15  NE        -1.1000 -156.3790   39.9400 N.pl3  19  ARG19      -0.0865
     16  CZ        -1.3830 -155.1110   40.2300 C.cat  19  ARG19       0.5346
     17  NH1       -0.4130 -154.2370   40.4840 N.pl3  19  ARG19       0.1354
     18  NH2       -2.6510 -154.7120   40.2630 N.pl3  19  ARG19       0.1354
     19  N          1.1120 -161.1860   38.0050 N.am   20  SER20      -0.1938
     20  CA         2.3970 -161.4670   37.3590 C.3    20  SER20       0.2055
     21  C          2.7710 -160.2890   36.4660 C.2    20  SER20       0.2644
     22  O          1.9900 -159.9050   35.5970 O.2    20  SER20      -0.2714
     23  CB         2.2980 -162.7420   36.5210 C.3    20  SER20       0.2130
     24  OG         3.5630 -163.3620   36.3920 O.3    20  SER20      -0.2179
     25  N          3.9570 -159.7170   36.6750 N.am   21  THR21      -0.1936
     26  CA         4.3560 -158.4970   35.9670 C.3    21  THR21       0.2028
     27  C          5.5430 -158.6850   35.0170 C.2    21  THR21       0.2642
     28  O          6.3590 -159.5900   35.1830 O.2    21  THR21      -0.2714
     29  CB         4.7080 -157.3670   36.9570 C.3    21  THR21       0.1808
     30  OG1        5.7540 -157.8030   37.8350 O.3    21  THR21      -0.2208
     31  CG2        3.4860 -156.9650   37.7730 C.3    21  THR21       0.0379
     32  N          5.6040 -157.8280   34.0170 N.am   22  GLN22      -0.1976
     33  CA         6.7380 -157.6620   33.1460 C.3    22  GLN22       0.1601
     34  C          7.0620 -156.1860   33.0860 C.2    22  GLN22       0.2287
     35  O          6.4660 -155.4930   32.3320 O.2    22  GLN22      -0.2864
     36  CB         6.3970 -158.1980   31.7690 C.3    22  GLN22       0.0394
     37  CG         7.4540 -158.0130   30.6990 C.3    22  GLN22       0.0908
     38  CD         8.6990 -158.8470   30.8880 C.2    22  GLN22       0.2608
     39  OE1        9.7320 -158.3370   31.2270 O.2    22  GLN22      -0.2717
     40  NE2        8.6010 -160.1210   30.6300 N.am   22  GLN22      -0.0878
     41  N          1.1140 -158.9010   33.2650 N.3    27  ALA27      -0.1231
     42  CA         1.0490 -159.9710   32.2690 C.3    27  ALA27       0.1694
     43  C         -0.0800 -160.9580   32.5730 C.2    27  ALA27       0.2592
     44  O         -0.8450 -161.3280   31.6770 O.2    27  ALA27      -0.2718
     45  CB         2.3810 -160.6980   32.1880 C.3    27  ALA27       0.0304
     46  N         -0.1740 -161.3850   33.8320 N.am   28  ASP28      -0.1974
     47  CA        -1.2210 -162.3120   34.2690 C.3    28  ASP28       0.1709
     48  C         -1.9530 -161.7510   35.4870 C.2    28  ASP28       0.2293
     49  O         -1.3320 -161.4490   36.5070 O.2    28  ASP28      -0.2864
     50  CB        -0.6140 -163.6780   34.6050 C.3    28  ASP28       0.1436
     51  CG        -1.6520 -164.7940   34.6470 C.2    28  ASP28       0.3671
     52  OD1       -1.2520 -165.9710   34.5210 O.co2  28  ASP28      -0.2456
     53  OD2       -2.8600 -164.5090   34.8100 O.co2  28  ASP28      -0.2456
     54  N         -2.6630 -165.5420   38.1230 N.3    31  CYS31      -0.1235
     55  CA        -1.7020 -166.6480   38.0820 C.3    31  CYS31       0.1677
     56  C         -1.6280 -167.3520   39.4370 C.2    31  CYS31       0.2270
     57  O         -1.9190 -166.7550   40.4740 O.2    31  CYS31      -0.2867
     58  CB        -0.3120 -166.1580   37.6510 C.3    31  CYS31       0.0956
     59  SG         0.7580 -165.5660   38.9810 S.3    31  CYS31      -0.0801
     60  N          0.4420 -168.9220   42.3400 N.3    33  LYS33      -0.1245
     61  CA         1.7560 -168.8810   42.9830 C.3    33  LYS33       0.1561
     62  C          1.8900 -169.9440   44.0710 C.2    33  LYS33       0.2260
     63  O          2.9580 -170.0920   44.6660 O.2    33  LYS33      -0.2867
     64  CB         2.0060 -167.4910   43.5640 C.3    33  LYS33       0.0271
     65  CG         1.6930 -166.3800   42.5760 C.3    33  LYS33       0.0035
     66  CD         2.1280 -165.0220   43.0830 C.3    33  LYS33       0.0206
     67  CE         1.6420 -163.9210   42.1590 C.3    33  LYS33       0.1093
     68  NZ         2.2440 -162.6040   42.4920 N.3    33  LYS33      -0.1314
     69  N          5.7200 -169.2210   45.9310 N.3    45  GLY45      -0.1210
     70  CA         6.9410 -168.8040   45.2380 C.3    45  GLY45       0.1956
     71  C          6.9110 -167.3950   44.6750 C.2    45  GLY45       0.2612
     72  O          6.0040 -167.0400   43.9250 O.2    45  GLY45      -0.2717
     73  N          7.9030 -166.5930   45.0590 N.am   46  ALA46      -0.1965
     74  CA         8.1290 -165.2730   44.4740 C.3    46  ALA46       0.1728
     75  C          9.4440 -165.2710   43.6920 C.2    46  ALA46       0.2617
     76  O         10.2550 -166.1860   43.8350 O.2    46  ALA46      -0.2715
     77  CB         8.1550 -164.2090   45.5570 C.3    46  ALA46       0.0334
     78  N          9.6520 -164.2410   42.8740 N.am   47  GLY47      -0.1940
     79  CA        10.8710 -164.1100   42.0660 C.3    47  GLY47       0.2014
     80  C         10.6120 -164.3390   40.5870 C.2    47  GLY47       0.2640
     81  O          9.5740 -163.9310   40.0660 O.2    47  GLY47      -0.2714
     82  N         11.5600 -164.9840   39.9090 N.am   48  THR48      -0.1936
     83  CA        11.4150 -165.3120   38.4890 C.3    48  THR48       0.2028
     84  C         10.3860 -166.4390   38.3270 C.2    48  THR48       0.2642
     85  O         10.5740 -167.5440   38.8320 O.2    48  THR48      -0.2714
     86  CB        12.7690 -165.7070   37.8640 C.3    48  THR48       0.1808
     87  OG1       13.7280 -164.6700   38.1150 O.3    48  THR48      -0.2208
     88  CG2       12.6460 -165.9160   36.3580 C.3    48  THR48       0.0379
     89  N          9.3030 -166.1420   37.6140 N.am   49  ALA49      -0.1963
     90  CA         8.1150 -167.0050   37.5700 C.3    49  ALA49       0.1728
     91  C          8.3660 -168.4100   37.0190 C.2    49  ALA49       0.2616
     92  O          7.8880 -169.3920   37.5880 O.2    49  ALA49      -0.2715
     93  CB         7.0070 -166.3250   36.7790 C.3    49  ALA49       0.0334
     94  N          9.0990 -168.5080   35.9130 N.am   50  ALA50      -0.1977
     95  CA         9.4370 -169.8120   35.3350 C.3    50  ALA50       0.1597
     96  C         10.3850 -170.6140   36.2290 C.2    50  ALA50       0.2287
     97  O         10.3640 -171.8470   36.2040 O.2    50  ALA50      -0.2864
     98  CB        10.0440 -169.6430   33.9540 C.3    50  ALA50       0.0319
     99  N         10.4890 -170.4630   39.7330 N.3    52  THR52      -0.1218
    100  CA         9.7290 -170.9860   40.8720 C.3    52  THR52       0.1862
    101  C          8.8670 -172.1770   40.4680 C.2    52  THR52       0.2287
    102  O          8.7010 -173.1050   41.2480 O.2    52  THR52      -0.2866
    103  CB         8.8160 -169.9260   41.5200 C.3    52  THR52       0.1770
    104  OG1        7.8420 -169.4750   40.5690 O.3    52  THR52      -0.2211
    105  CG2        9.6260 -168.7450   42.0320 C.3    52  THR52       0.0375
    106  N          8.7830 -161.6770   48.7490 N.3   128  GLY128     -0.1210
    107  CA         8.3490 -160.9390   47.5630 C.3   128  GLY128      0.1956
    108  C          8.4220 -159.4350   47.7440 C.2   128  GLY128      0.2612
    109  O          8.7680 -158.9420   48.8170 O.2   128  GLY128     -0.2717
    110  N          8.0860 -158.7010   46.6880 N.am  129  SER129     -0.1952
    111  CA         8.1500 -157.2390   46.7110 C.3   129  SER129      0.1924
    112  C          7.1310 -156.6140   47.6680 C.2   129  SER129      0.2314
    113  O          7.3030 -155.4760   48.1010 O.2   129  SER129     -0.2863
    114  CB         7.9540 -156.6720   45.3040 C.3   129  SER129      0.2116
    115  OG         6.6860 -157.0290   44.7800 O.3   129  SER129     -0.2180
    116  N          3.7380 -154.3210   42.7780 N.3   168  GLY168     -0.1225
    117  CA         4.0830 -155.6610   42.3200 C.3   168  GLY168      0.1811
    118  C          2.9920 -156.6900   42.5670 C.2   168  GLY168      0.2280
    119  O          2.9830 -157.7380   41.9330 O.2   168  GLY168     -0.2866
@<TRIPOS>BOND
     1    40    38   am
     2    37    38    1
     3    37    36    1
     4    38    39    2
     5    44    43    2
     6    36    33    1
     7    45    42    1
     8    42    43    1
     9    42    41    1
    10    35    34    2
    11    43    46   am
    12    34    33    1
    13    33    32    1
    14    46    47    1
    15    98    95    1
    16    32    27   am
    17    47    50    1
    18    47    48    1
    19    52    51   ar
    20    50    51    1
    21    51    53   ar
    22    27    28    2
    23    27    26    1
    24    95    94    1
    25    95    96    1
    26    48    49    2
    27    22    21    2
    28    94    91   am
    29    26    25    1
    30    26    29    1
    31    97    96    2
    32    88    86    1
    33    24    23    1
    34    21    25   am
    35    21    20    1
    36    23    20    1
    37    93    90    1
    38    29    31    1
    39    29    30    1
    40    91    90    1
    41    91    92    2
    42    20    19    1
    43    90    89    1
    44    89    84   am
    45    58    55    1
    46    58    59    1
    47    86    87    1
    48    86    83    1
    49    19    10   am
    50    55    54    1
    51    55    56    1
    52    84    83    1
    53    84    85    2
    54    83    82    1
    55    10     9    1
    56    10    11    2
    57    13    14    1
    58    13    12    1
    59    56    57    2
    60    99   100    1
    61     9    12    1
    62     9     8    1
    63    14    15    1
    64    82    80   am
    65    15    16    2
    66    81    80    2
    67    16    18    1
    68    16    17    1
    69   101   100    1
    70   101   102    2
    71   104   103    1
    72    80    79    1
    73   100   103    1
    74   103   105    1
    75   119   118    2
    76    79    78    1
    77    67    68    1
    78    67    66    1
    79   117   118    1
    80   117   116    1
    81    60    61    1
    82    65    66    1
    83    65    64    1
    84    78    75   am
    85     6     5    1
    86    61    64    1
    87    61    62    1
    88     1     2    1
    89    75    76    2
    90    75    74    1
    91    72    71    2
    92    62    63    2
    93     5     2    1
    94     5     7    1
    95     2     3    1
    96    74    73    1
    97    74    77    1
    98    71    73   am
    99    71    70    1
   100   115   114    1
   101    70    69    1
   102   114   111    1
   103     3     4    2
   104   110   111    1
   105   110   108   am
   106   111   112    1
   107   107   108    1
   108   107   106    1
   109   112   113    2
   110   108   109    2
