@<TRIPOS>MOLECULE
tmp/4y70Y00.pdb
 129 123 0 0 0
SMALL
GASTEIGER

@<TRIPOS>ATOM
      1  N         56.9230 -152.7820    8.3480 N.3     1  THR1       -0.1218
      2  CA        57.1230 -153.5410    7.0890 C.3     1  THR1        0.1862
      3  C         56.4950 -153.0240    5.8080 C.2     1  THR1        0.2287
      4  O         55.4060 -152.5280    5.7450 O.2     1  THR1       -0.2866
      5  CB        56.6260 -154.9640    7.2390 C.3     1  THR1        0.1770
      6  OG1       57.2960 -155.4670    8.3050 O.3     1  THR1       -0.2211
      7  CG2       56.9590 -155.8270    6.0530 C.3     1  THR1        0.0375
      8  N         63.3390 -154.2110    8.0340 N.3    19  ARG19      -0.1231
      9  CA        63.2690 -153.5330    9.3330 C.3    19  ARG19       0.1694
     10  C         62.2890 -154.1780   10.3140 C.2    19  ARG19       0.2592
     11  O         61.1710 -154.5300    9.9430 O.2    19  ARG19      -0.2718
     12  CB        62.8920 -152.0620    9.1580 C.3    19  ARG19       0.0321
     13  CG        62.8430 -151.3060   10.4790 C.3    19  ARG19       0.0489
     14  CD        62.6580 -149.8130   10.2950 C.3    19  ARG19       0.2205
     15  NE        63.8500 -149.1700    9.7470 N.pl3  19  ARG19      -0.0865
     16  CZ        64.0700 -147.8560    9.7400 C.cat  19  ARG19       0.5346
     17  NH1       63.1860 -147.0120   10.2600 N.pl3  19  ARG19       0.1354
     18  NH2       65.1900 -147.3800    9.2110 N.pl3  19  ARG19       0.1354
     19  N         62.7210 -154.3070   11.5670 N.am   20  ALA20      -0.1966
     20  CA        61.8600 -154.7460   12.6620 C.3    20  ALA20       0.1728
     21  C         61.7580 -153.6200   13.6810 C.2    20  ALA20       0.2617
     22  O         62.7570 -152.9730   13.9960 O.2    20  ALA20      -0.2715
     23  CB        62.4200 -155.9960   13.3190 C.3    20  ALA20       0.0334
     24  N         60.5510 -153.3950   14.1940 N.am   21  THR21      -0.1937
     25  CA        60.3060 -152.3320   15.1630 C.3    21  THR21       0.2028
     26  C         59.5270 -152.8320   16.3780 C.2    21  THR21       0.2642
     27  O         58.7640 -153.7960   16.2920 O.2    21  THR21      -0.2714
     28  CB        59.5230 -151.1620   14.5340 C.3    21  THR21       0.1808
     29  OG1       58.2760 -151.6400   14.0130 O.3    21  THR21      -0.2208
     30  CG2       60.3300 -150.5100   13.4150 C.3    21  THR21       0.0379
     31  N         59.7460 -152.1670   17.5080 N.am   22  ALA22      -0.1977
     32  CA        58.9610 -152.3730   18.7200 C.3    22  ALA22       0.1597
     33  C         58.5270 -150.9950   19.1950 C.2    22  ALA22       0.2287
     34  O         59.2810 -150.2940   19.8720 O.2    22  ALA22      -0.2864
     35  CB        59.7860 -153.0770   19.7830 C.3    22  ALA22       0.0319
     36  N         61.0220 -147.9640   18.6020 N.3    25  TRP25      -0.1241
     37  CA        62.3760 -148.5080   18.6670 C.3    25  TRP25       0.1605
     38  C         62.6480 -149.3400   17.4210 C.2    25  TRP25       0.2264
     39  O         61.8900 -150.2580   17.1100 O.2    25  TRP25      -0.2867
     40  CB        62.5430 -149.3600   19.9350 C.3    25  TRP25       0.0550
     41  CG        63.7570 -150.2520   19.9590 C.ar   25  TRP25       0.0003
     42  CD1       63.7730 -151.6120   19.8500 C.ar   25  TRP25       0.0946
     43  CD2       65.1200 -149.8460   20.1180 C.ar   25  TRP25       0.0152
     44  NE1       65.0610 -152.0780   19.9270 N.ar   25  TRP25      -0.2442
     45  CE2       65.9090 -151.0150   20.0900 C.ar   25  TRP25       0.0810
     46  CE3       65.7520 -148.6080   20.2760 C.ar   25  TRP25       0.0012
     47  CZ2       67.2970 -150.9830   20.2150 C.ar   25  TRP25       0.0191
     48  CZ3       67.1310 -148.5770   20.3980 C.ar   25  TRP25       0.0001
     49  CH2       67.8880 -149.7580   20.3670 C.ar   25  TRP25       0.0015
     50  N         64.3700 -152.1530   16.1240 N.3    27  ALA27      -0.1231
     51  CA        64.9710 -153.3320   16.7390 C.3    27  ALA27       0.1694
     52  C         66.0250 -153.9650   15.8430 C.2    27  ALA27       0.2592
     53  O         67.0920 -154.3490   16.3170 O.2    27  ALA27      -0.2718
     54  CB        63.8970 -154.3500   17.0880 C.3    27  ALA27       0.0304
     55  N         65.7220 -154.0710   14.5530 N.am   28  SER28      -0.1952
     56  CA        66.6360 -154.6870   13.5970 C.3    28  SER28       0.1924
     57  C         66.5280 -154.0190   12.2320 C.2    28  SER28       0.2314
     58  O         65.4530 -153.5600   11.8410 O.2    28  SER28      -0.2863
     59  CB        66.3370 -156.1830   13.4710 C.3    28  SER28       0.2116
     60  OG        67.1990 -156.8010   12.5310 O.3    28  SER28      -0.2180
     61  N         66.5250 -157.9980    9.1340 N.3    31  VAL31      -0.1245
     62  CA        65.5780 -159.1190    9.1900 C.3    31  VAL31       0.1561
     63  C         65.3400 -159.7210    7.8070 C.2    31  VAL31       0.2260
     64  O         65.1420 -158.9940    6.8370 O.2    31  VAL31      -0.2867
     65  CB        64.2180 -158.6820    9.7870 C.3    31  VAL31       0.0252
     66  CG1       63.1360 -159.7320    9.5590 C.3    31  VAL31       0.0019
     67  CG2       64.3590 -158.4070   11.2720 C.3    31  VAL31       0.0019
     68  N         62.8490 -161.2170    5.5510 N.3    33  LYS33      -0.1245
     69  CA        61.3860 -161.2590    5.4260 C.3    33  LYS33       0.1561
     70  C         60.8730 -162.1550    4.2970 C.2    33  LYS33       0.2260
     71  O         59.6630 -162.3150    4.1400 O.2    33  LYS33      -0.2867
     72  CB        60.8260 -159.8460    5.2650 C.3    33  LYS33       0.0271
     73  CG        60.8840 -159.0410    6.5470 C.3    33  LYS33       0.0035
     74  CD        60.4270 -157.6130    6.3370 C.3    33  LYS33       0.0206
     75  CE        60.9550 -156.7150    7.4380 C.3    33  LYS33       0.1093
     76  NZ        60.2660 -155.4020    7.4860 N.3    33  LYS33      -0.1314
     77  N         56.8320 -162.0560    4.6560 N.3    45  MET45      -0.1230
     78  CA        56.4160 -161.7740    6.0140 C.3    45  MET45       0.1702
     79  C         56.0100 -160.3460    6.3010 C.2    45  MET45       0.2592
     80  O         56.7020 -159.4170    5.9900 O.2    45  MET45      -0.2718
     81  CB        57.5250 -162.1260    6.9690 C.3    45  MET45       0.0401
     82  CG        57.8300 -163.5990    6.9770 C.3    45  MET45       0.0596
     83  SD        59.1120 -164.1350    8.0900 S.3    45  MET45      -0.1393
     84  CE        59.5340 -162.6340    8.9330 C.3    45  MET45       0.0692
     85  N         54.8680 -160.1910    6.9200 N.am   46  ALA46      -0.1966
     86  CA        54.4460 -158.8820    7.4300 C.3    46  ALA46       0.1728
     87  C         53.4850 -159.0470    8.6120 C.2    46  ALA46       0.2617
     88  O         52.6520 -159.9510    8.6200 O.2    46  ALA46      -0.2715
     89  CB        53.8060 -158.0470    6.3340 C.3    46  ALA46       0.0334
     90  N         53.6060 -158.1630    9.6000 N.am   47  GLY47      -0.1940
     91  CA        52.8430 -158.2590   10.8440 C.3    47  GLY47       0.2014
     92  C         53.7420 -158.6430   12.0020 C.2    47  GLY47       0.2639
     93  O         54.8000 -158.0450   12.1920 O.2    47  GLY47      -0.2714
     94  N         53.3200 -159.6390   12.7760 N.am   48  GLY48      -0.1939
     95  CA        54.1210 -160.1510   13.8840 C.3    48  GLY48       0.2014
     96  C         55.2940 -160.9690   13.3780 C.2    48  GLY48       0.2639
     97  O         55.1140 -161.8980   12.5880 O.2    48  GLY48      -0.2714
     98  N         56.4960 -160.6220   13.8340 N.am   49  ALA49      -0.1963
     99  CA        57.7230 -161.2850   13.3860 C.3    49  ALA49       0.1728
    100  C         57.7280 -162.7730   13.7270 C.2    49  ALA49       0.2616
    101  O         58.0050 -163.6010   12.8620 O.2    49  ALA49      -0.2715
    102  CB        58.9450 -160.6000   13.9810 C.3    49  ALA49       0.0334
    103  N         57.4100 -163.1030   14.9780 N.am   50  ALA50      -0.1977
    104  CA        57.3780 -164.4980   15.4270 C.3    50  ALA50       0.1597
    105  C         56.2760 -165.2830   14.7220 C.2    50  ALA50       0.2287
    106  O         56.5140 -166.3780   14.2130 O.2    50  ALA50      -0.2864
    107  CB        57.1930 -164.5690   16.9360 C.3    50  ALA50       0.0319
    108  N         51.8890 -154.6080    4.3770 N.3   130  GLY130     -0.1210
    109  CA        52.6640 -154.0100    5.4610 C.3   130  GLY130      0.1956
    110  C         52.2840 -152.5620    5.7010 C.2   130  GLY130      0.2612
    111  O         51.4960 -151.9850    4.9510 O.2   130  GLY130     -0.2717
    112  N         52.8590 -151.9690    6.7450 N.am  131  SER131     -0.1952
    113  CA        52.5910 -150.5710    7.0930 C.3   131  SER131      0.1924
    114  C         53.0570 -149.5780    6.0270 C.2   131  SER131      0.2314
    115  O         52.6970 -148.4030    6.0760 O.2   131  SER131     -0.2863
    116  CB        53.2500 -150.2170    8.4260 C.3   131  SER131      0.2116
    117  OG        54.6560 -150.3610    8.3480 O.3   131  SER131     -0.2180
    118  N         58.3570 -147.0300    9.7450 N.3   170  TYR170     -0.1241
    119  CA        58.5170 -148.4020   10.2280 C.3   170  TYR170      0.1605
    120  C         59.0570 -149.3440    9.1510 C.2   170  TYR170      0.2264
    121  O         59.2520 -150.5260    9.4050 O.2   170  TYR170     -0.2867
    122  CB        57.1930 -148.8950   10.8260 C.3   170  TYR170      0.0534
    123  CG        56.7280 -147.9880   11.9490 C.ar  170  TYR170     -0.0201
    124  CD1       57.4160 -147.9460   13.1600 C.ar  170  TYR170     -0.0009
    125  CD2       55.6330 -147.1430   11.7920 C.ar  170  TYR170     -0.0009
    126  CE1       57.0160 -147.1080   14.1850 C.ar  170  TYR170      0.0417
    127  CE2       55.2250 -146.3000   12.8160 C.ar  170  TYR170      0.0417
    128  CZ        55.9220 -146.2870   14.0090 C.ar  170  TYR170      0.1957
    129  OH        55.5270 -145.4570   15.0340 O.3   170  TYR170     -0.2866
@<TRIPOS>BOND
     1    71    70    2
     2    70    69    1
     3   108   109    1
     4    77    78    1
     5   111   110    2
     6    72    69    1
     7    72    73    1
     8    69    68    1
     9   109   110    1
    10   110   112   am
    11     4     3    2
    12     3     2    1
    13    80    79    2
    14    78    79    1
    15    78    81    1
    16   114   115    2
    17   114   113    1
    18     7     5    1
    19    79    85   am
    20    89    86    1
    21    74    73    1
    22    74    75    1
    23   112   113    1
    24    64    63    2
    25    85    86    1
    26    81    82    1
    27    82    83    1
    28     2     5    1
    29     2     1    1
    30   113   116    1
    31     5     6    1
    32    86    87    1
    33    75    76    1
    34    63    62    1
    35     8     9    1
    36    83    84    1
    37   117   116    1
    38    87    88    2
    39    87    90   am
    40    61    62    1
    41   120   121    2
    42   120   119    1
    43    12     9    1
    44    12    13    1
    45    62    65    1
    46    18    16    1
    47     9    10    1
    48    66    65    1
    49    90    91    1
    50    16    15    2
    51    16    17    1
    52   118   119    1
    53    15    14    1
    54    65    67    1
    55    11    10    2
    56   119   122    1
    57    14    13    1
    58    10    19   am
    59   122   123    1
    60    91    92    1
    61    19    20    1
    62   125   123   ar
    63   125   127   ar
    64    58    57    2
    65   123   124   ar
    66    92    93    2
    67    92    94   am
    68    57    56    1
    69    60    59    1
    70    97    96    2
    71    20    23    1
    72    20    21    1
    73    94    95    1
    74   127   128   ar
    75   101   100    2
    76   124   126   ar
    77    96    98   am
    78    96    95    1
    79    99   100    1
    80    99    98    1
    81    99   102    1
    82    30    28    1
    83    59    56    1
    84    56    55    1
    85    21    22    2
    86    21    24   am
    87   100   103   am
    88   128   126   ar
    89   128   129    1
    90    29    28    1
    91    24    25    1
    92   106   105    2
    93    28    25    1
    94    55    52   am
    95   105   104    1
    96   103   104    1
    97    25    26    1
    98   104   107    1
    99    52    53    2
   100    52    51    1
   101    50    51    1
   102    27    26    2
   103    26    31   am
   104    51    54    1
   105    39    38    2
   106    38    37    1
   107    31    32    1
   108    36    37    1
   109    37    40    1
   110    32    33    1
   111    32    35    1
   112    33    34    2
   113    42    44   ar
   114    42    41   ar
   115    44    45   ar
   116    40    41    1
   117    41    43   ar
   118    45    43   ar
   119    45    47   ar
   120    43    46   ar
   121    47    49   ar
   122    46    48   ar
   123    49    48   ar
