@<TRIPOS>MOLECULE
tmp/4y71A00.pdb
 183 182 0 0 0
SMALL
GASTEIGER

@<TRIPOS>ATOM
      1  N         13.7570   11.4320   14.3430 N.3    42  HIS42      -0.1241
      2  CA        12.2850   11.3870   14.4300 C.3    42  HIS42       0.1621
      3  C         11.6660   12.7080   14.8140 C.2    42  HIS42       0.2264
      4  O         10.4960   12.9730   14.4990 O.2    42  HIS42      -0.2867
      5  CB        11.7850   10.2270   15.2980 C.3    42  HIS42       0.0745
      6  CG        11.6530   10.5400   16.7730 C.ar   42  HIS42       0.0817
      7  ND1       12.5880   10.1780   17.6770 N.ar   42  HIS42      -0.2268
      8  CD2       10.6190   11.1360   17.4970 C.ar   42  HIS42       0.1154
      9  CE1       12.1880   10.5520   18.9120 C.ar   42  HIS42       0.1986
     10  NE2       10.9830   11.1330   18.8040 N.ar   42  HIS42      -0.2212
     11  N         11.1310    4.9430   10.4070 N.3    82  LYS82      -0.1231
     12  CA         9.9870    5.2100   11.2810 C.3    82  LYS82       0.1693
     13  C          9.4630    3.9690   11.9970 C.2    82  LYS82       0.2592
     14  O          8.9660    4.0650   13.1190 O.2    82  LYS82      -0.2718
     15  CB         8.8340    5.8400   10.4970 C.3    82  LYS82       0.0285
     16  CG         9.0720    7.2660   10.0390 C.3    82  LYS82       0.0035
     17  CD         7.7600    7.9180    9.6290 C.3    82  LYS82       0.0206
     18  CE         7.9390    9.4130    9.4180 C.3    82  LYS82       0.1093
     19  NZ         6.6380   10.0790    9.1340 N.3    82  LYS82      -0.1314
     20  N          9.5780    2.8170   11.3330 N.am   83  GLU83      -0.1966
     21  CA         9.0530    1.5390   11.8250 C.3    83  GLU83       0.1733
     22  C          9.6050    1.1020   13.1790 C.2    83  GLU83       0.2617
     23  O          8.8480    0.7060   14.0680 O.2    83  GLU83      -0.2715
     24  CB         9.3380    0.4240   10.8030 C.3    83  GLU83       0.0429
     25  CG         9.2230    0.8260    9.3340 C.3    83  GLU83       0.1163
     26  CD         7.8290    1.2610    8.9120 C.2    83  GLU83       0.3649
     27  OE1        6.8370    0.8560    9.5580 O.co2  83  GLU83      -0.2457
     28  OE2        7.7300    2.0040    7.9120 O.co2  83  GLU83      -0.2457
     29  N         10.9250    1.1970   13.3280 N.am   84  THR84      -0.1937
     30  CA        11.6220    0.7140   14.5140 C.3    84  THR84       0.2028
     31  C         12.3830    1.8080   15.2810 C.2    84  THR84       0.2642
     32  O         12.8260    1.5690   16.4000 O.2    84  THR84      -0.2714
     33  CB        12.6660   -0.3480   14.1150 C.3    84  THR84       0.1808
     34  OG1       13.6450    0.2440   13.2530 O.3    84  THR84      -0.2208
     35  CG2       11.9980   -1.5410   13.3780 C.3    84  THR84       0.0379
     36  N         12.5150    2.9880   14.6710 N.am   85  TYR85      -0.1973
     37  CA        13.3570    4.1030   15.1980 C.3    85  TYR85       0.1639
     38  C         14.8500    3.7540   15.2260 C.2    85  TYR85       0.2290
     39  O         15.6380    4.3320   15.9880 O.2    85  TYR85      -0.2864
     40  CB        12.8600    4.6290   16.5490 C.3    85  TYR85       0.0560
     41  CG        11.7580    5.6610   16.4800 C.ar   85  TYR85      -0.0198
     42  CD1       10.9020    5.7450   15.3720 C.ar   85  TYR85      -0.0009
     43  CD2       11.5120    6.5060   17.5680 C.ar   85  TYR85      -0.0009
     44  CE1        9.8730    6.6750   15.3310 C.ar   85  TYR85       0.0417
     45  CE2       10.4850    7.4320   17.5350 C.ar   85  TYR85       0.0417
     46  CZ         9.6700    7.5110   16.4160 C.ar   85  TYR85       0.1957
     47  OH         8.6480    8.4290   16.3940 O.3    85  TYR85      -0.2866
     48  N          2.8350   10.9810   32.0490 N.3   135  GLU135     -0.1245
     49  CA         2.5060   10.4600   30.7170 C.3   135  GLU135      0.1567
     50  C          1.4300   11.2760   29.9730 C.2   135  GLU135      0.2260
     51  O          1.5870   11.5610   28.7880 O.2   135  GLU135     -0.2867
     52  CB         2.1640    8.9650   30.7700 C.3   135  GLU135      0.0388
     53  CG         2.1030    8.2940   29.4050 C.3   135  GLU135      0.1160
     54  CD         2.0060    6.7780   29.4730 C.2   135  GLU135      0.3649
     55  OE1        2.7130    6.1420   30.2940 O.co2 135  GLU135     -0.2457
     56  OE2        1.2330    6.2140   28.6710 O.co2 135  GLU135     -0.2457
     57  N          9.3060   -4.4670   21.4220 N.3   162  PHE162     -0.1227
     58  CA         9.8750   -4.1490   20.1190 C.3   162  PHE162      0.1736
     59  C         11.3770   -4.4210   20.1040 C.2   162  PHE162      0.2595
     60  O         12.0140   -4.4690   21.1600 O.2   162  PHE162     -0.2718
     61  CB         9.5850   -2.6920   19.7710 C.3   162  PHE162      0.0547
     62  CG         8.1360   -2.3250   19.8880 C.ar  162  PHE162     -0.0202
     63  CD1        7.6640   -1.6390   21.0080 C.ar  162  PHE162     -0.0042
     64  CD2        7.2300   -2.6870   18.8910 C.ar  162  PHE162     -0.0042
     65  CE1        6.3220   -1.3080   21.1240 C.ar  162  PHE162     -0.0003
     66  CE2        5.8880   -2.3620   19.0030 C.ar  162  PHE162     -0.0003
     67  CZ         5.4320   -1.6730   20.1200 C.ar  162  PHE162     -0.0000
     68  N         11.9330   -4.5950   18.9090 N.am  163  ILE163     -0.1980
     69  CA        13.3570   -4.8920   18.7520 C.3   163  ILE163      0.1595
     70  C         14.2650   -3.7650   19.2630 C.2   163  ILE163      0.2287
     71  O         14.0310   -2.5930   18.9870 O.2   163  ILE163     -0.2864
     72  CB        13.7150   -5.2270   17.2860 C.3   163  ILE163      0.0276
     73  CG1       15.1840   -5.6690   17.1690 C.3   163  ILE163      0.0022
     74  CG2       13.4000   -4.0520   16.3690 C.3   163  ILE163      0.0022
     75  CD1       15.5950   -6.1740   15.7980 C.3   163  ILE163      0.0001
     76  N         11.4040    8.5810   34.4300 N.3   179  ASP179     -0.1225
     77  CA        11.7670    8.2890   33.0430 C.3   179  ASP179      0.1805
     78  C         11.7560    9.5830   32.2470 C.2   179  ASP179      0.2598
     79  O         11.2840   10.6250   32.7360 O.2   179  ASP179     -0.2718
     80  CB        10.6950    7.3520   32.4540 C.3   179  ASP179      0.1424
     81  CG        11.1370    6.6080   31.2030 C.2   179  ASP179      0.3668
     82  OD1       12.3050    6.7300   30.7470 O.co2 179  ASP179     -0.2456
     83  OD2       10.2760    5.8710   30.6640 O.co2 179  ASP179     -0.2456
     84  N         12.2860    9.5230   31.0220 N.am  180  ALA180     -0.1966
     85  CA        12.0970   10.5980   30.0660 C.3   180  ALA180      0.1728
     86  C         10.6500   10.3840   29.6140 C.2   180  ALA180      0.2616
     87  O         10.0300    9.3700   29.9800 O.2   180  ALA180     -0.2715
     88  CB        13.0770   10.4750   28.9090 C.3   180  ALA180      0.0334
     89  N         10.1060   11.3160   28.8460 N.am  181  CYS181     -0.1954
     90  CA         8.7120   11.2420   28.4120 C.3   181  CYS181      0.1843
     91  C          8.5350   12.0870   27.1500 C.2   181  CYS181      0.2625
     92  O          9.5030   12.6560   26.6530 O.2   181  CYS181     -0.2714
     93  CB         7.7870   11.7090   29.5500 C.3   181  CYS181      0.0997
     94  SG         6.0470   11.1740   29.3840 S.3   181  CYS181     -0.0797
     95  N          7.3110   12.1720   26.6200 N.am  182  GLN182     -0.1977
     96  CA         7.0390   12.9520   25.3990 C.3   182  GLN182      0.1601
     97  C          7.5690   14.3720   25.4380 C.2   182  GLN182      0.2287
     98  O          7.2970   15.1150   26.3880 O.2   182  GLN182     -0.2864
     99  CB         5.5220   13.0320   25.1140 C.3   182  GLN182      0.0394
    100  CG         5.1930   13.8690   23.8860 C.3   182  GLN182      0.0908
    101  CD         3.7210   13.8950   23.5260 C.2   182  GLN182      0.2608
    102  OE1        3.2670   14.7870   22.8080 O.2   182  GLN182     -0.2717
    103  NE2        2.9690   12.9190   24.0160 N.am  182  GLN182     -0.0878
    104  N         12.3800   13.7060   23.7220 N.3   185  SER185     -0.1217
    105  CA        13.0120   13.1660   22.5110 C.3   185  SER185      0.1889
    106  C         14.0390   14.0990   21.8690 C.2   185  SER185      0.2288
    107  O         13.7880   15.2940   21.6910 O.2   185  SER185     -0.2866
    108  CB        11.9340   12.8590   21.4550 C.3   185  SER185      0.2089
    109  OG        11.1720   11.7090   21.8160 O.3   185  SER185     -0.2183
    110  N         17.7930   10.8350   23.6050 N.3   203  VAL203     -0.1231
    111  CA        16.4550   10.3660   24.0270 C.3   203  VAL203      0.1692
    112  C         15.6790    9.9360   22.7660 C.2   203  VAL203      0.2593
    113  O         15.4780   10.7530   21.8610 O.2   203  VAL203     -0.2718
    114  CB        15.6890   11.4790   24.7490 C.3   203  VAL203      0.0266
    115  CG1       14.3110   10.9950   25.1970 C.3   203  VAL203      0.0020
    116  CG2       16.4780   11.9750   25.9480 C.3   203  VAL203      0.0020
    117  N         15.2470    8.6720   22.7010 N.am  204  SER204     -0.1938
    118  CA        14.6250    8.1680   21.4570 C.3   204  SER204      0.2055
    119  C         13.1470    7.7580   21.6140 C.2   204  SER204      0.2643
    120  O         12.2660    8.3890   21.0210 O.2   204  SER204     -0.2714
    121  CB        15.4570    7.0220   20.8610 C.3   204  SER204      0.2130
    122  OG        15.0140    6.6500   19.5620 O.3   204  SER204     -0.2179
    123  N         12.8760    6.7420   22.4260 N.am  205  TRP205     -0.1959
    124  CA        11.4860    6.2560   22.5680 C.3   205  TRP205      0.1771
    125  C         11.2760    5.3850   23.7870 C.2   205  TRP205      0.2620
    126  O         12.2180    5.0020   24.4460 O.2   205  TRP205     -0.2715
    127  CB        11.0640    5.5280   21.2840 C.3   205  TRP205      0.0590
    128  CG        11.8570    4.2770   20.9580 C.ar  205  TRP205      0.0006
    129  CD1       13.0320    4.1760   20.2070 C.ar  205  TRP205      0.0946
    130  CD2       11.5370    2.8890   21.3520 C.ar  205  TRP205      0.0152
    131  NE1       13.4510    2.8740   20.1250 N.ar  205  TRP205     -0.2442
    132  CE2       12.6010    2.0500   20.7930 C.ar  205  TRP205      0.0810
    133  CE3       10.5100    2.2850   22.0880 C.ar  205  TRP205      0.0012
    134  CZ2       12.6190    0.6620   20.9680 C.ar  205  TRP205      0.0191
    135  CZ3       10.5450    0.8920   22.2690 C.ar  205  TRP205      0.0001
    136  CH2       11.5720    0.1010   21.7220 C.ar  205  TRP205      0.0015
    137  N         10.0210    5.0640   24.0960 N.am  206  GLY206     -0.1940
    138  CA         9.7040    4.1980   25.2310 C.3   206  GLY206      0.2014
    139  C          8.2610    3.7360   25.0720 C.2   206  GLY206      0.2639
    140  O          7.4950    4.3390   24.3170 O.2   206  GLY206     -0.2714
    141  N          7.8970    2.6630   25.7590 N.am  207  GLU207     -0.1963
    142  CA         6.5090    2.1650   25.7010 C.3   207  GLU207      0.1733
    143  C          5.7850    2.8880   26.8370 C.2   207  GLU207      0.2617
    144  O          5.6740    2.3860   27.9610 O.2   207  GLU207     -0.2715
    145  CB         6.4620    0.6400   25.8390 C.3   207  GLU207      0.0429
    146  CG         7.2750   -0.0990   24.7810 C.3   207  GLU207      0.1163
    147  CD         7.1930   -1.6210   24.9040 C.2   207  GLU207      0.3649
    148  OE1        6.0800   -2.1400   25.1300 O.co2 207  GLU207     -0.2457
    149  OE2        8.2400   -2.3050   24.7540 O.co2 207  GLU207     -0.2457
    150  N          5.3390    4.1000   26.5310 N.am  208  GLY208     -0.1940
    151  CA         4.7760    4.9820   27.5460 C.3   208  GLY208      0.2014
    152  C          5.9170    5.6410   28.3060 C.2   208  GLY208      0.2639
    153  O          7.0670    5.6550   27.8340 O.2   208  GLY208     -0.2714
    154  N          5.6020    6.1750   29.4830 N.am  209  CYS209     -0.1967
    155  CA         6.5980    6.8260   30.3260 C.3   209  CYS209      0.1712
    156  C          6.5550    6.2250   31.7120 C.2   209  CYS209      0.2296
    157  O          5.4860    6.1710   32.3340 O.2   209  CYS209     -0.2864
    158  CB         6.3380    8.3390   30.4230 C.3   209  CYS209      0.0983
    159  SG         6.1760    9.2070   28.8510 S.3   209  CYS209     -0.0798
    160  N         13.5440    3.2890   29.3340 N.3   216  GLY216     -0.1210
    161  CA        13.6730    4.2960   28.2790 C.3   216  GLY216      0.1956
    162  C         14.6770    3.8020   27.2510 C.2   216  GLY216      0.2612
    163  O         15.6630    3.1530   27.6090 O.2   216  GLY216     -0.2717
    164  N         14.4250    4.0890   25.9760 N.am  217  ILE217     -0.1965
    165  CA        15.3090    3.6560   24.8900 C.3   217  ILE217      0.1727
    166  C         16.0130    4.8640   24.2810 C.2   217  ILE217      0.2616
    167  O         15.3770    5.8520   23.9020 O.2   217  ILE217     -0.2715
    168  CB        14.5700    2.8610   23.7880 C.3   217  ILE217      0.0290
    169  CG1       13.5910    1.8350   24.4140 C.3   217  ILE217      0.0022
    170  CG2       15.5590    2.2000   22.8180 C.3   217  ILE217      0.0023
    171  CD1       14.2500    0.8430   25.3490 C.3   217  ILE217      0.0001
    172  N         17.3240    4.7490   24.1860 N.am  218  TYR218     -0.1974
    173  CA        18.1800    5.8200   23.7180 C.3   218  TYR218      0.1639
    174  C         19.0170    5.4130   22.5310 C.2   218  TYR218      0.2290
    175  O         19.4730    4.2800   22.4390 O.2   218  TYR218     -0.2864
    176  CB        19.1360    6.2150   24.8430 C.3   218  TYR218      0.0560
    177  CG        18.4180    6.7700   26.0560 C.ar  218  TYR218     -0.0198
    178  CD1       17.7760    5.9120   26.9670 C.ar  218  TYR218     -0.0009
    179  CD2       18.3890    8.1420   26.2980 C.ar  218  TYR218     -0.0009
    180  CE1       17.1040    6.4140   28.0690 C.ar  218  TYR218      0.0417
    181  CE2       17.7260    8.6540   27.4120 C.ar  218  TYR218      0.0417
    182  CZ        17.0900    7.7700   28.2940 C.ar  218  TYR218      0.1957
    183  OH        16.4280    8.2520   29.3830 O.3   218  TYR218     -0.2866
@<TRIPOS>BOND
     1    28    26   ar
     2    26    25    1
     3    26    27   ar
     4    19    18    1
     5    25    24    1
     6    18    17    1
     7    17    16    1
     8    16    15    1
     9    11    12    1
    10    15    12    1
    11    24    21    1
    12    12    13    1
    13    20    21    1
    14    20    13   am
    15    21    22    1
    16    13    14    2
    17    22    29   am
    18    22    23    2
    19    34    33    1
    20    29    30    1
    21    35    33    1
    22    33    30    1
    23     1     2    1
    24     2     3    1
    25     2     5    1
    26     4     3    2
    27    30    31    1
    28    36    37    1
    29    36    31   am
    30    37    38    1
    31    37    40    1
    32    38    39    2
    33    31    32    2
    34     5     6    1
    35    44    42   ar
    36    44    46   ar
    37    42    41   ar
    38    75    73    1
    39    74    72    1
    40    47    46    1
    41    46    45   ar
    42    41    40    1
    43    41    43   ar
    44     6     8   ar
    45     6     7   ar
    46    73    72    1
    47    72    69    1
    48     8    10   ar
    49    45    43   ar
    50     7     9   ar
    51    69    68    1
    52    69    70    1
    53    10     9   ar
    54    64    66   ar
    55    64    62   ar
    56    68    59   am
    57    71    70    2
    58    66    67   ar
    59   122   121    1
    60    61    62    1
    61    61    58    1
    62    62    63   ar
    63    59    58    1
    64    59    60    2
    65    58    57    1
    66    67    65   ar
    67   131   129   ar
    68   131   132   ar
    69   129   128   ar
    70   132   134   ar
    71   132   130   ar
    72   121   118    1
    73   128   127    1
    74   128   130   ar
    75   134   136   ar
    76    63    65   ar
    77   120   119    2
    78   127   124    1
    79   130   133   ar
    80   108   109    1
    81   108   105    1
    82   118   119    1
    83   118   117    1
    84   119   123   am
    85   107   106    2
    86   136   135   ar
    87   113   112    2
    88   106   105    1
    89   133   135   ar
    90   123   124    1
    91   175   174    2
    92   105   104    1
    93   174   173    1
    94   124   125    1
    95   117   112   am
    96   112   111    1
    97   102   101    2
    98   170   168    1
    99   101   100    1
   100   101   103   am
   101   110   111    1
   102   173   172    1
   103   173   176    1
   104   125   137   am
   105   125   126    2
   106   168   169    1
   107   168   165    1
   108   100    99    1
   109   167   166    2
   110   111   114    1
   111   137   138    1
   112   172   166   am
   113   166   165    1
   114   140   139    2
   115   169   171    1
   116   114   115    1
   117   114   116    1
   118   149   147   ar
   119   146   147    1
   120   146   145    1
   121   176   177    1
   122   165   164    1
   123   147   148   ar
   124   139   138    1
   125   139   141   am
   126    99    96    1
   127    96    97    1
   128    96    95    1
   129    97    98    2
   130   142   141    1
   131   142   145    1
   132   142   143    1
   133   164   162   am
   134   177   179   ar
   135   177   178   ar
   136   179   181   ar
   137   150   143   am
   138   150   151    1
   139    95    91   am
   140    92    91    2
   141   143   144    2
   142   178   180   ar
   143    91    90    1
   144   162   163    2
   145   162   161    1
   146   181   182   ar
   147   151   152    1
   148   153   152    2
   149   180   182   ar
   150   161   160    1
   151   182   183    1
   152   152   154   am
   153    90    89    1
   154    90    93    1
   155    56    54   ar
   156    51    50    2
   157    89    86   am
   158   159    94    1
   159   159   158    1
   160    88    85    1
   161    94    93    1
   162    53    54    1
   163    53    52    1
   164    54    55   ar
   165   154   155    1
   166    86    87    2
   167    86    85    1
   168    50    49    1
   169    85    84    1
   170   155   158    1
   171   155   156    1
   172    83    81   ar
   173    49    52    1
   174    49    48    1
   175    82    81   ar
   176    84    78   am
   177    81    80    1
   178   156   157    2
   179    78    79    2
   180    78    77    1
   181    80    77    1
   182    77    76    1
