@<TRIPOS>MOLECULE
tmp/4y73C00.pdb
 183 174 0 0 0
SMALL
GASTEIGER

@<TRIPOS>ATOM
      1  N         37.5510   -8.0530   30.3850 N.3    22  ILE22      -0.1245
      2  CA        37.3020   -6.6230   30.1290 C.3    22  ILE22       0.1561
      3  C         36.2990   -6.0360   31.1390 C.2    22  ILE22       0.2260
      4  O         36.5030   -4.9180   31.6290 O.2    22  ILE22      -0.2867
      5  CB        36.8440   -6.4400   28.6480 C.3    22  ILE22       0.0252
      6  CG1       38.0400   -6.5610   27.6620 C.3    22  ILE22       0.0019
      7  CG2       36.0030   -5.1560   28.4030 C.3    22  ILE22       0.0019
      8  CD1       39.1550   -5.5050   27.7370 C.3    22  ILE22       0.0001
      9  N         39.6820  -10.4890   25.8650 N.3    29  MET29      -0.1230
     10  CA        38.3670  -10.3060   25.2250 C.3    29  MET29       0.1702
     11  C         37.7170  -11.6110   24.7900 C.2    29  MET29       0.2593
     12  O         36.4920  -11.7210   24.7370 O.2    29  MET29      -0.2718
     13  CB        38.4620   -9.3500   24.0330 C.3    29  MET29       0.0401
     14  CG        39.0150   -8.0060   24.3990 C.3    29  MET29       0.0596
     15  SD        38.8990   -6.7830   23.0910 S.3    29  MET29      -0.1393
     16  CE        40.1720   -7.3580   21.9790 C.3    29  MET29       0.0692
     17  N         38.5460  -12.5750   24.4500 N.am   30  GLY30      -0.1942
     18  CA        38.0890  -13.8810   24.0060 C.3    30  GLY30       0.2014
     19  C         39.2280  -14.8240   23.7140 C.2    30  GLY30       0.2639
     20  O         40.3990  -14.4540   23.8190 O.2    30  GLY30      -0.2714
     21  N         38.8750  -16.0640   23.3710 N.am   31  GLU31      -0.1963
     22  CA        39.8400  -17.1030   23.0410 C.3    31  GLU31       0.1733
     23  C         39.2530  -18.1430   22.1100 C.2    31  GLU31       0.2616
     24  O         38.0450  -18.3890   22.1180 O.2    31  GLU31      -0.2715
     25  CB        40.4700  -17.7340   24.3060 C.3    31  GLU31       0.0429
     26  CG        39.4940  -18.4450   25.2280 C.3    31  GLU31       0.1163
     27  CD        40.1380  -19.0860   26.4430 C.2    31  GLU31       0.3649
     28  OE1       41.1240  -19.8380   26.2660 O.co2  31  GLU31      -0.2457
     29  OE2       39.6350  -18.8710   27.5690 O.co2  31  GLU31      -0.2457
     30  N         40.1270  -18.6870   21.2780 N.am   32  GLY32      -0.1955
     31  CA        39.8260  -19.7320   20.3170 C.3    32  GLY32       0.1869
     32  C         40.8010  -20.8770   20.4820 C.2    32  GLY32       0.2309
     33  O         41.5740  -20.9090   21.4530 O.2    32  GLY32      -0.2863
     34  N         44.5210  -19.3760   19.7790 N.3    35  GLY35      -0.1225
     35  CA        44.9750  -18.1960   20.5080 C.3    35  GLY35       0.1811
     36  C         43.9620  -17.4640   21.3620 C.2    35  GLY35       0.2280
     37  O         42.7730  -17.7970   21.3900 O.2    35  GLY35      -0.2866
     38  N         42.7750  -13.3850   22.3730 N.3    37  VAL37      -0.1245
     39  CA        42.7560  -12.0030   21.8970 C.3    37  VAL37       0.1561
     40  C         42.7010  -11.0470   23.1000 C.2    37  VAL37       0.2260
     41  O         41.8970  -11.2220   24.0160 O.2    37  VAL37      -0.2867
     42  CB        41.6610  -11.7770   20.8160 C.3    37  VAL37       0.0252
     43  CG1       41.4350  -10.3040   20.5180 C.3    37  VAL37       0.0019
     44  CG2       42.0640  -12.4740   19.5380 C.3    37  VAL37       0.0019
     45  N         43.5030   -5.0690   18.7720 N.3    48  ALA48      -0.1245
     46  CA        43.2310   -6.4310   19.1980 C.3    48  ALA48       0.1562
     47  C         44.5350   -7.1630   18.9140 C.2    48  ALA48       0.2260
     48  O         45.0680   -7.0730   17.8120 O.2    48  ALA48      -0.2867
     49  CB        42.0910   -7.0310   18.3970 C.3    48  ALA48       0.0290
     50  N         46.2920  -10.7330   18.9220 N.3    50  LYS50      -0.1245
     51  CA        46.0990  -12.1700   19.0140 C.3    50  LYS50       0.1561
     52  C         47.4460  -12.8000   19.2950 C.2    50  LYS50       0.2260
     53  O         48.3530  -12.7340   18.4560 O.2    50  LYS50      -0.2867
     54  CB        45.4830  -12.7190   17.7260 C.3    50  LYS50       0.0271
     55  CG        44.9230  -14.1290   17.8740 C.3    50  LYS50       0.0035
     56  CD        44.6650  -14.7220   16.5130 C.3    50  LYS50       0.0206
     57  CE        43.7000  -15.8790   16.5380 C.3    50  LYS50       0.1093
     58  NZ        43.5900  -16.5100   15.1960 N.3    50  LYS50      -0.1314
     59  N         38.5890   -8.3580    8.5400 N.3    83  VAL83      -0.1245
     60  CA        39.3400   -7.6400    9.5870 C.3    83  VAL83       0.1561
     61  C         40.6370   -7.0540    8.9710 C.2    83  VAL83       0.2260
     62  O         41.1340   -7.5470    7.9490 O.2    83  VAL83      -0.2867
     63  CB        39.6590   -8.4890   10.8480 C.3    83  VAL83       0.0252
     64  CG1       38.4030   -8.7700   11.6460 C.3    83  VAL83       0.0019
     65  CG2       40.3820   -9.7790   10.4980 C.3    83  VAL83       0.0019
     66  N         45.5380   -6.2650   15.1490 N.3    99  TYR99      -0.1227
     67  CA        44.4130   -5.8960   14.3040 C.3    99  TYR99       0.1736
     68  C         43.7260   -4.6420   14.7470 C.2    99  TYR99       0.2595
     69  O         43.8480   -4.2560   15.9030 O.2    99  TYR99      -0.2718
     70  CB        43.3360   -6.9960   14.3590 C.3    99  TYR99       0.0548
     71  CG        43.7980   -8.3460   13.8800 C.ar   99  TYR99      -0.0200
     72  CD1       44.3770   -9.2580   14.7620 C.ar   99  TYR99      -0.0009
     73  CD2       43.6420   -8.7270   12.5490 C.ar   99  TYR99      -0.0009
     74  CE1       44.7930  -10.5100   14.3320 C.ar   99  TYR99       0.0417
     75  CE2       44.0520   -9.9840   12.1070 C.ar   99  TYR99       0.0417
     76  CZ        44.6360  -10.8660   13.0020 C.ar   99  TYR99       0.1957
     77  OH        45.0500  -12.1000   12.5860 O.3    99  TYR99      -0.2866
     78  N         42.8970   -4.0680   13.8520 N.am  100  VAL100     -0.1966
     79  CA        42.0420   -2.9510   14.2230 C.3   100  VAL100      0.1727
     80  C         40.9830   -3.5880   15.1710 C.2   100  VAL100      0.2616
     81  O         40.3770   -4.6200   14.8340 O.2   100  VAL100     -0.2715
     82  CB        41.3730   -2.2740   13.0020 C.3   100  VAL100      0.0290
     83  CG1       40.3310   -1.2330   13.4420 C.3   100  VAL100      0.0023
     84  CG2       42.4080   -1.6490   12.0650 C.3   100  VAL100      0.0023
     85  N         40.8160   -2.9940   16.3700 N.am  101  TYR101     -0.1960
     86  CA        39.8570   -3.4450   17.3670 C.3   101  TYR101      0.1771
     87  C         38.3950   -3.4400   16.8370 C.2   101  TYR101      0.2619
     88  O         37.9790   -2.4830   16.1860 O.2   101  TYR101     -0.2715
     89  CB        40.0040   -2.5560   18.6060 C.3   101  TYR101      0.0574
     90  CG        38.9660   -2.7370   19.6850 C.ar  101  TYR101     -0.0198
     91  CD1       38.9780   -3.8600   20.5090 C.ar  101  TYR101     -0.0009
     92  CD2       38.0450   -1.7330   19.9650 C.ar  101  TYR101     -0.0009
     93  CE1       38.0380   -4.0170   21.5300 C.ar  101  TYR101      0.0417
     94  CE2       37.1400   -1.8530   21.0200 C.ar  101  TYR101      0.0417
     95  CZ        37.1310   -3.0070   21.7900 C.ar  101  TYR101      0.1957
     96  OH        36.2280   -3.1590   22.8080 O.3   101  TYR101     -0.2866
     97  N         37.6370   -4.5170   17.1370 N.am  102  MET102     -0.1964
     98  CA        36.2290   -4.6840   16.7580 C.3   102  MET102      0.1722
     99  C         35.3660   -4.4900   18.0250 C.2   102  MET102      0.2458
    100  O         35.2250   -5.4030   18.8350 O.2   102  MET102     -0.2730
    101  CB        35.9760   -6.0580   16.0470 C.3   102  MET102      0.0427
    102  CG        36.6430   -6.1660   14.6840 C.3   102  MET102      0.0599
    103  SD        36.0550   -4.9090   13.5290 S.3   102  MET102     -0.1393
    104  CE        37.4880   -4.0890   13.1840 C.3   102  MET102      0.0692
    105  N         34.8580   -3.2530   18.2420 N.am  103  PRO103     -0.2716
    106  CA        34.1310   -2.9560   19.4850 C.3   103  PRO103      0.1536
    107  C         32.9830   -3.8910   19.8480 C.2   103  PRO103      0.2599
    108  O         32.7720   -4.1190   21.0350 O.2   103  PRO103     -0.2715
    109  CB        33.6350   -1.5180   19.2690 C.3   103  PRO103      0.0310
    110  CG        34.5830   -0.9430   18.3210 C.3   103  PRO103      0.0237
    111  CD        34.9640   -2.0450   17.3940 C.3   103  PRO103      0.0939
    112  N         32.2660   -4.4530   18.8590 N.am  104  ASN104     -0.1959
    113  CA        31.1520   -5.3580   19.1430 C.3   104  ASN104      0.1819
    114  C         31.5120   -6.8620   19.1310 C.2   104  ASN104      0.2622
    115  O         30.6170   -7.6910   19.1760 O.2   104  ASN104     -0.2715
    116  CB        29.9650   -5.0400   18.2460 C.3   104  ASN104      0.1195
    117  CG        29.2730   -3.8040   18.8070 C.2   104  ASN104      0.2630
    118  OD1       28.8670   -3.7670   19.9700 O.2   104  ASN104     -0.2716
    119  ND2       29.1890   -2.7470   18.0370 N.am  104  ASN104     -0.0877
    120  N         32.8040   -7.1820   19.2040 N.am  105  GLY105     -0.1940
    121  CA        33.3290   -8.5440   19.2610 C.3   105  GLY105      0.2014
    122  C         32.8060   -9.4700   18.1810 C.2   105  GLY105      0.2639
    123  O         32.6340   -9.0520   17.0470 O.2   105  GLY105     -0.2714
    124  N         32.4690  -10.7140   18.5430 N.am  106  SER106     -0.1949
    125  CA        31.9980  -11.6990   17.5620 C.3   106  SER106      0.1924
    126  C         30.5080  -11.7990   17.4620 C.2   106  SER106      0.2314
    127  O         29.7870  -11.4580   18.4080 O.2   106  SER106     -0.2863
    128  CB        32.6150  -13.0730   17.8170 C.3   106  SER106      0.2116
    129  OG        32.0870  -13.6880   18.9790 O.3   106  SER106     -0.2180
    130  N         29.0500  -14.1700   20.1160 N.3   109  ASP109     -0.1225
    131  CA        28.7900  -13.4970   21.3870 C.3   109  ASP109      0.1805
    132  C         27.5930  -12.5330   21.3640 C.2   109  ASP109      0.2597
    133  O         26.8820  -12.4380   22.3700 O.2   109  ASP109     -0.2718
    134  CB        30.0480  -12.8000   21.9110 C.3   109  ASP109      0.1424
    135  CG        31.2030  -13.7560   22.1800 C.2   109  ASP109      0.3668
    136  OD1       30.9640  -14.9830   22.2370 O.co2 109  ASP109     -0.2456
    137  OD2       32.3240  -13.2750   22.4180 O.co2 109  ASP109     -0.2456
    138  N         27.3530  -11.8370   20.2310 N.am  110  ARG110     -0.1979
    139  CA        26.2310  -10.9120   20.1480 C.3   110  ARG110      0.1597
    140  C         24.9210  -11.6490   20.0170 C.2   110  ARG110      0.2287
    141  O         23.9070  -11.1840   20.5450 O.2   110  ARG110     -0.2864
    142  CB        26.4250   -9.8220   19.0590 C.3   110  ARG110      0.0334
    143  CG        27.6320   -8.8880   19.2870 C.3   110  ARG110      0.0492
    144  CD        27.5680   -7.9950   20.5560 C.3   110  ARG110      0.2205
    145  NE        27.7460   -8.7210   21.8430 N.pl3 110  ARG110     -0.0865
    146  CZ        28.9050   -9.1430   22.3470 C.cat 110  ARG110      0.5346
    147  NH1       30.0300   -9.0340   21.6430 N.pl3 110  ARG110      0.1354
    148  NH2       28.9400   -9.7370   23.5260 N.pl3 110  ARG110      0.1354
    149  N         31.8820  -17.1970   15.4520 N.3   152  ALA152     -0.1231
    150  CA        33.0180  -16.7430   16.2600 C.3   152  ALA152      0.1694
    151  C         34.0810  -16.0660   15.3550 C.2   152  ALA152      0.2592
    152  O         34.8920  -15.2910   15.8600 O.2   152  ALA152     -0.2718
    153  CB        33.6420  -17.9290   16.9990 C.3   152  ALA152      0.0304
    154  N         34.0730  -16.3540   14.0250 N.am  153  ASN153     -0.1974
    155  CA        35.0230  -15.7710   13.0620 C.3   153  ASN153      0.1688
    156  C         34.3790  -14.6830   12.1940 C.2   153  ASN153      0.2292
    157  O         34.8470  -14.3880   11.0810 O.2   153  ASN153     -0.2864
    158  CB        35.7250  -16.8690   12.2230 C.3   153  ASN153      0.1181
    159  CG        36.6140  -17.7810   13.0390 C.2   153  ASN153      0.2629
    160  OD1       36.9090  -17.5100   14.1980 O.2   153  ASN153     -0.2716
    161  ND2       37.0210  -18.9100   12.4710 N.am  153  ASN153     -0.0877
    162  N         33.3740  -10.8440   13.0230 N.3   155  LEU155     -0.1245
    163  CA        33.5030   -9.7830   14.0080 C.3   155  LEU155      0.1561
    164  C         32.6890   -8.5760   13.6170 C.2   155  LEU155      0.2260
    165  O         32.1670   -8.5110   12.4980 O.2   155  LEU155     -0.2867
    166  CB        34.9840   -9.4650   14.3380 C.3   155  LEU155      0.0270
    167  CG        35.8670  -10.7230   14.5420 C.3   155  LEU155      0.0019
    168  CD1       37.2420  -10.3630   14.8180 C.3   155  LEU155      0.0001
    169  CD2       35.3400  -11.6530   15.6380 C.3   155  LEU155      0.0001
    170  N         37.1360  -12.9660    9.8860 N.3   165  SER165     -0.1202
    171  CA        38.4510  -13.0180   10.5250 C.3   165  SER165      0.2020
    172  C         38.9940  -14.4530   10.5700 C.2   165  SER165      0.2618
    173  O         38.3210  -15.3870   10.1470 O.2   165  SER165     -0.2717
    174  CB        38.3380  -12.4960   11.9580 C.3   165  SER165      0.2103
    175  OG        37.4470  -13.3110   12.7060 O.3   165  SER165     -0.2182
    176  N         40.2150  -14.6000   11.1220 N.am  166  ASP166     -0.1973
    177  CA        40.8910  -15.8510   11.4460 C.3   166  ASP166      0.1709
    178  C         41.0990  -16.7060   10.2040 C.2   166  ASP166      0.2293
    179  O         40.3970  -17.6850    9.9670 O.2   166  ASP166     -0.2864
    180  CB        40.1570  -16.5760   12.6200 C.3   166  ASP166      0.1436
    181  CG        40.0470  -15.6770   13.8590 C.2   166  ASP166      0.3671
    182  OD1       41.0440  -15.5590   14.5990 O.co2 166  ASP166     -0.2456
    183  OD2       39.0300  -14.9760   14.0020 O.co2 166  ASP166     -0.2456
@<TRIPOS>BOND
     1    62    61    2
     2    59    60    1
     3    61    60    1
     4    60    63    1
     5   170   171    1
     6   179   178    2
     7   173   172    2
     8   178   177    1
     9    65    63    1
    10   171   172    1
    11   171   174    1
    12   172   176   am
    13    63    64    1
    14   157   156    2
    15   176   177    1
    16   177   180    1
    17   174   175    1
    18    84    82    1
    19    75    73   ar
    20    75    76   ar
    21   156   155    1
    22   158   159    1
    23   158   155    1
    24   161   159   am
    25   165   164    2
    26    73    71   ar
    27    77    76    1
    28   180   181    1
    29    76    74   ar
    30    82    83    1
    31    82    79    1
    32   162   163    1
    33   159   160    2
    34   155   154    1
    35   104   103    1
    36   103   102    1
    37   164   163    1
    38    78    79    1
    39    78    68   am
    40   181   183   ar
    41   181   182   ar
    42    71    70    1
    43    71    72   ar
    44   163   166    1
    45   154   151   am
    46    79    80    1
    47    67    70    1
    48    67    68    1
    49    67    66    1
    50    74    72   ar
    51   166   167    1
    52   167   168    1
    53   167   169    1
    54   102   101    1
    55    68    69    2
    56    81    80    2
    57    80    85   am
    58    58    57    1
    59   151   152    2
    60   151   150    1
    61   149   150    1
    62   101    98    1
    63    88    87    2
    64   150   153    1
    65    85    86    1
    66    56    57    1
    67    56    55    1
    68    98    97    1
    69    98    99    1
    70    87    97   am
    71    87    86    1
    72   123   122    2
    73    86    89    1
    74   111   105    1
    75   111   110    1
    76   126   125    1
    77   126   127    2
    78   125   128    1
    79   125   124    1
    80    54    55    1
    81    54    51    1
    82    48    47    2
    83   128   129    1
    84    99   105   am
    85    99   100    2
    86   119   117   am
    87   122   124   am
    88   122   121    1
    89   105   106    1
    90   116   117    1
    91   116   113    1
    92   110   109    1
    93    49    46    1
    94    53    52    2
    95    89    90    1
    96    45    46    1
    97   117   118    2
    98   112   113    1
    99   112   107   am
   100    47    46    1
   101    50    51    1
   102    51    52    1
   103   142   143    1
   104   142   139    1
   105   114   113    1
   106   114   115    2
   107   114   120   am
   108   120   121    1
   109   109   106    1
   110   143   144    1
   111   106   107    1
   112    44    42    1
   113    90    92   ar
   114    90    91   ar
   115    34    35    1
   116   107   108    2
   117    92    94   ar
   118   140   139    1
   119   140   141    2
   120   130   131    1
   121   139   138    1
   122   138   132   am
   123    31    32    1
   124    31    30    1
   125    32    33    2
   126    35    36    1
   127    91    93   ar
   128    43    42    1
   129   144   145    1
   130    42    39    1
   131    94    95   ar
   132    30    23   am
   133    36    37    2
   134   132   131    1
   135   132   133    2
   136   131   134    1
   137    93    95   ar
   138   147   146    1
   139    95    96    1
   140   145   146    2
   141    39    38    1
   142    39    40    1
   143   134   135    1
   144    16    15    1
   145    23    24    2
   146    23    22    1
   147   135   136   ar
   148   135   137   ar
   149   146   148    1
   150    22    21    1
   151    22    25    1
   152    15    14    1
   153    40    41    2
   154    21    19   am
   155    19    20    2
   156    19    18    1
   157    18    17    1
   158    13    14    1
   159    13    10    1
   160    25    26    1
   161    17    11   am
   162    12    11    2
   163    11    10    1
   164    10     9    1
   165    26    27    1
   166    28    27   ar
   167    27    29   ar
   168     6     8    1
   169     6     5    1
   170     7     5    1
   171     5     2    1
   172     2     1    1
   173     2     3    1
   174     3     4    2
