@<TRIPOS>MOLECULE
tmp/4y74N00.pdb
 120 111 0 0 0
SMALL
GASTEIGER

@<TRIPOS>ATOM
      1  N         43.9140 -142.8880   63.0090 N.3     1  THR1       -0.1218
      2  CA        43.6010 -142.2670   64.3260 C.3     1  THR1        0.1862
      3  C         42.5840 -142.8990   65.2910 C.2     1  THR1        0.2287
      4  O         41.5590 -143.3860   64.8910 O.2     1  THR1       -0.2866
      5  CB        43.0840 -140.8600   64.0320 C.3     1  THR1        0.1770
      6  OG1       44.0750 -140.1490   63.3550 O.3     1  THR1       -0.2211
      7  CG2       42.7540 -140.0550   65.2520 C.3     1  THR1        0.0375
      8  N         50.0170 -141.3210   65.9150 N.3    19  ARG19      -0.1231
      9  CA        50.3600 -141.9780   64.6500 C.3    19  ARG19       0.1694
     10  C         49.7050 -141.2890   63.4530 C.2    19  ARG19       0.2593
     11  O         48.5130 -141.0030   63.4820 O.2    19  ARG19      -0.2718
     12  CB        49.9290 -143.4510   64.6920 C.3    19  ARG19       0.0321
     13  CG        50.2740 -144.2490   63.4400 C.3    19  ARG19       0.0489
     14  CD        50.1600 -145.7500   63.6710 C.3    19  ARG19       0.2205
     15  NE        51.2120 -146.2560   64.5530 N.pl3  19  ARG19      -0.0865
     16  CZ        51.4100 -147.5410   64.8410 C.cat  19  ARG19       0.5346
     17  NH1       50.6290 -148.4840   64.3170 N.pl3  19  ARG19       0.1354
     18  NH2       52.4020 -147.8870   65.6550 N.pl3  19  ARG19       0.1354
     19  N         50.5120 -141.0400   62.4220 N.am   20  THR20      -0.1939
     20  CA        50.1110 -140.5720   61.1000 C.3    20  THR20       0.2028
     21  C         50.5960 -141.5280   60.0320 C.2    20  THR20       0.2643
     22  O         51.7370 -141.8390   59.9910 O.2    20  THR20      -0.2714
     23  CB        50.7620 -139.2390   60.7460 C.3    20  THR20       0.1808
     24  OG1       50.7090 -138.3810   61.8620 O.3    20  THR20      -0.2208
     25  CG2       50.0460 -138.5690   59.6480 C.3    20  THR20       0.0379
     26  N         49.7220 -141.9600   59.1420 N.am   21  THR21      -0.1936
     27  CA        50.0980 -142.9230   58.1260 C.3    21  THR21       0.2028
     28  C         49.9870 -142.4740   56.6880 C.2    21  THR21       0.2642
     29  O         49.2490 -141.5950   56.3740 O.2    21  THR21      -0.2714
     30  CB        49.2670 -144.1910   58.2630 C.3    21  THR21       0.1808
     31  OG1       47.8920 -143.8520   58.2590 O.3    21  THR21      -0.2208
     32  CG2       49.5620 -144.8530   59.5390 C.3    21  THR21       0.0379
     33  N         50.7600 -143.1050   55.8210 N.am   22  THR22      -0.1950
     34  CA        50.4910 -143.1810   54.3990 C.3    22  THR22       0.1897
     35  C         50.4290 -144.6420   54.0700 C.2    22  THR22       0.2313
     36  O         51.4190 -145.2500   53.7710 O.2    22  THR22      -0.2863
     37  CB        51.5670 -142.5640   53.5070 C.3    22  THR22       0.1794
     38  OG1       52.7530 -142.3390   54.2420 O.3    22  THR22      -0.2208
     39  CG2       51.1190 -141.2900   52.9890 C.3    22  THR22       0.0378
     40  N         54.2970 -142.2510   58.8290 N.3    27  ALA27      -0.1245
     41  CA        54.9870 -141.0170   58.4380 C.3    27  ALA27       0.1562
     42  C         55.4460 -140.1860   59.6380 C.2    27  ALA27       0.2260
     43  O         56.4570 -139.4890   59.5620 O.2    27  ALA27      -0.2867
     44  CB        54.0930 -140.1800   57.5360 C.3    27  ALA27       0.0290
     45  N         53.1130 -137.4480   66.3960 N.3    31  THR31      -0.1218
     46  CA        52.1610 -136.4000   66.0030 C.3    31  THR31       0.1862
     47  C         51.4210 -135.7950   67.1930 C.2    31  THR31       0.2287
     48  O         51.1740 -136.4800   68.1900 O.2    31  THR31      -0.2866
     49  CB        51.0900 -136.9740   65.0550 C.3    31  THR31       0.1770
     50  OG1       51.6720 -138.0020   64.2500 O.3    31  THR31      -0.2211
     51  CG2       50.5050 -135.8930   64.1580 C.3    31  THR31       0.0375
     52  N         47.8720 -134.3970   67.7410 N.3    33  LYS33      -0.1245
     53  CA        46.5250 -134.2880   67.1940 C.3    33  LYS33       0.1561
     54  C         45.6150 -133.4210   68.0700 C.2    33  LYS33       0.2260
     55  O         44.4600 -133.1800   67.7170 O.2    33  LYS33      -0.2867
     56  CB        45.9270 -135.6880   67.0200 C.3    33  LYS33       0.0271
     57  CG        46.7740 -136.5980   66.1410 C.3    33  LYS33       0.0035
     58  CD        46.2440 -138.0180   66.1010 C.3    33  LYS33       0.0206
     59  CE        47.1840 -138.9210   65.3200 C.3    33  LYS33       0.1093
     60  NZ        46.6080 -140.2770   65.1190 N.3    33  LYS33      -0.1314
     61  N         41.8560 -133.9110   66.2580 N.3    45  ARG45      -0.1231
     62  CA        41.7830 -134.0000   64.8000 C.3    45  ARG45       0.1694
     63  C         41.8760 -135.4430   64.3050 C.2    45  ARG45       0.2593
     64  O         42.7560 -136.1950   64.7300 O.2    45  ARG45      -0.2718
     65  CB        42.8990 -133.1630   64.1650 C.3    45  ARG45       0.0321
     66  CG        42.8180 -131.6810   64.4970 C.3    45  ARG45       0.0489
     67  CD        43.8800 -130.8670   63.7730 C.3    45  ARG45       0.2205
     68  NE        45.2390 -131.2030   64.2030 N.pl3  45  ARG45      -0.0865
     69  CZ        46.1170 -131.9270   63.5080 C.cat  45  ARG45       0.5346
     70  NH1       45.8130 -132.4470   62.3210 N.pl3  45  ARG45       0.1354
     71  NH2       47.3230 -132.1440   64.0220 N.pl3  45  ARG45       0.1354
     72  N         40.9590 -135.8140   63.4100 N.am   46  SER46      -0.1938
     73  CA        40.9920 -137.1070   62.7160 C.3    46  SER46       0.2055
     74  C         40.5870 -136.9220   61.2540 C.2    46  SER46       0.2644
     75  O         39.9340 -135.9350   60.9060 O.2    46  SER46      -0.2714
     76  CB        40.0740 -138.1280   63.3950 C.3    46  SER46       0.2130
     77  OG        38.7110 -137.9100   63.0650 O.3    46  SER46      -0.2179
     78  N         40.9620 -137.8850   60.4140 N.am   47  GLY47      -0.1939
     79  CA        40.7670 -137.7830   58.9670 C.3    47  GLY47       0.2014
     80  C         42.0430 -137.3390   58.2750 C.2    47  GLY47       0.2640
     81  O         43.1270 -137.8070   58.6090 O.2    47  GLY47      -0.2714
     82  N         41.9160 -136.4370   57.3050 N.am   48  SER48      -0.1935
     83  CA        43.0730 -135.9140   56.5770 C.3    48  SER48       0.2055
     84  C         43.8810 -134.9370   57.4320 C.2    48  SER48       0.2643
     85  O         43.3220 -134.0200   58.0360 O.2    48  SER48      -0.2714
     86  CB        42.6290 -135.2280   55.2800 C.3    48  SER48       0.2130
     87  OG        43.6070 -134.3100   54.8190 O.3    48  SER48      -0.2179
     88  N         45.1960 -135.1440   57.4750 N.am   49  ALA49      -0.1963
     89  CA        46.1010 -134.2660   58.2190 C.3    49  ALA49       0.1728
     90  C         46.0900 -132.8520   57.6410 C.2    49  ALA49       0.2616
     91  O         46.0810 -131.8720   58.3830 O.2    49  ALA49      -0.2715
     92  CB        47.5170 -134.8290   58.2070 C.3    49  ALA49       0.0334
     93  N         46.0790 -132.7560   56.3140 N.am   50  ALA50      -0.1977
     94  CA        46.0650 -131.4630   55.6320 C.3    50  ALA50       0.1597
     95  C         44.7500 -130.7090   55.8380 C.2    50  ALA50       0.2287
     96  O         44.7600 -129.5200   56.1540 O.2    50  ALA50      -0.2864
     97  CB        46.3400 -131.6460   54.1480 C.3    50  ALA50       0.0319
     98  N         42.3960 -131.1010   58.2370 N.3    52  THR52      -0.1218
     99  CA        42.1790 -130.7410   59.6440 C.3    52  THR52       0.1862
    100  C         43.0880 -129.6060   60.1200 C.2    52  THR52       0.2287
    101  O         42.6690 -128.7810   60.9330 O.2    52  THR52      -0.2866
    102  CB        42.3550 -131.9530   60.5810 C.3    52  THR52       0.1770
    103  OG1       43.6200 -132.5800   60.3330 O.3    52  THR52      -0.2211
    104  CG2       41.2350 -132.9540   60.3720 C.3    52  THR52       0.0375
    105  N         37.7400 -141.3420   65.0850 N.3   128  GLY128     -0.1210
    106  CA        38.8950 -141.9320   64.4200 C.3   128  GLY128      0.1956
    107  C         38.6740 -143.4130   64.1620 C.2   128  GLY128      0.2612
    108  O         37.8040 -144.0310   64.7760 O.2   128  GLY128     -0.2717
    109  N         39.4740 -143.9790   63.2590 N.am  129  SER129     -0.1952
    110  CA        39.3700 -145.3960   62.8880 C.3   129  SER129      0.1924
    111  C         39.4230 -146.3460   64.0910 C.2   129  SER129      0.2314
    112  O         38.7690 -147.3890   64.0880 O.2   129  SER129     -0.2863
    113  CB        40.4740 -145.7690   61.8910 C.3   129  SER129      0.2116
    114  OG        41.7630 -145.5540   62.4410 O.3   129  SER129     -0.2180
    115  N         46.1560 -148.2860   62.4810 N.3   168  SER168     -0.1217
    116  CA        46.3130 -146.8660   62.1790 C.3   168  SER168      0.1889
    117  C         46.5410 -146.0110   63.4300 C.2   168  SER168      0.2288
    118  O         46.6820 -144.7990   63.3200 O.2   168  SER168     -0.2866
    119  CB        45.0850 -146.3500   61.4240 C.3   168  SER168      0.2089
    120  OG        44.6710 -147.2740   60.4320 O.3   168  SER168     -0.2183
@<TRIPOS>BOND
     1    39    37    1
     2    37    38    1
     3    37    34    1
     4    36    35    2
     5    35    34    1
     6    97    94    1
     7    34    33    1
     8    87    86    1
     9    86    83    1
    10    94    95    1
    11    94    93    1
    12    33    28   am
    13    95    96    2
    14    93    90   am
    15    29    28    2
    16    83    82    1
    17    83    84    1
    18    28    27    1
    19    82    80   am
    20    84    88   am
    21    84    85    2
    22    88    89    1
    23    44    41    1
    24    90    89    1
    25    90    91    2
    26    27    30    1
    27    27    26    1
    28    92    89    1
    29    98    99    1
    30    31    30    1
    31    30    32    1
    32    80    81    2
    33    80    79    1
    34    41    40    1
    35    41    42    1
    36    79    78    1
    37    26    21   am
    38    43    42    2
    39    99   100    1
    40    99   102    1
    41    25    23    1
    42    22    21    2
    43    21    20    1
    44   100   101    2
    45   103   102    1
    46   104   102    1
    47    78    74   am
    48   120   119    1
    49    23    20    1
    50    23    24    1
    51    75    74    2
    52    20    19    1
    53    74    73    1
    54   119   116    1
    55   113   114    1
    56   113   110    1
    57   116   115    1
    58   116   117    1
    59    70    69    1
    60    19    10   am
    61    73    76    1
    62    73    72    1
    63   110   109    1
    64   110   111    1
    65     1     2    1
    66    77    76    1
    67   109   107   am
    68   118   117    2
    69     6     5    1
    70    72    63   am
    71    13    14    1
    72    13    12    1
    73    10    11    2
    74    10     9    1
    75    69    71    1
    76    69    68    2
    77    14    15    1
    78    67    68    1
    79    67    66    1
    80     5     2    1
    81     5     7    1
    82   112   111    2
    83    51    49    1
    84   107   106    1
    85   107   108    2
    86    65    66    1
    87    65    62    1
    88    50    49    1
    89    63    64    2
    90    63    62    1
    91    17    16    1
    92     2     3    1
    93   106   105    1
    94    15    16    2
    95     9    12    1
    96     9     8    1
    97    62    61    1
    98    16    18    1
    99     4     3    2
   100    49    46    1
   101    60    59    1
   102    59    58    1
   103    46    45    1
   104    46    47    1
   105    58    57    1
   106    57    56    1
   107    56    53    1
   108    47    48    2
   109    53    52    1
   110    53    54    1
   111    55    54    2
