@<TRIPOS>MOLECULE
tmp/4y75N00.pdb
 129 120 0 0 0
SMALL
GASTEIGER

@<TRIPOS>ATOM
      1  N         43.5700 -142.6320   62.9300 N.3     1  THR1       -0.1218
      2  CA        43.3260 -142.0870   64.3060 C.3     1  THR1        0.1862
      3  C         42.3240 -142.6910   65.3040 C.2     1  THR1        0.2287
      4  O         41.2890 -143.1840   64.9460 O.2     1  THR1       -0.2866
      5  CB        42.8610 -140.6790   64.1130 C.3     1  THR1        0.1770
      6  OG1       43.8770 -140.0850   63.4200 O.3     1  THR1       -0.2211
      7  CG2       42.6840 -139.8680   65.3770 C.3     1  THR1        0.0375
      8  N         49.6090 -141.1460   66.0230 N.3    19  ARG19      -0.1231
      9  CA        49.9830 -141.7960   64.7820 C.3    19  ARG19       0.1694
     10  C         49.3680 -141.1870   63.5590 C.2    19  ARG19       0.2593
     11  O         48.1940 -140.9710   63.4990 O.2    19  ARG19      -0.2718
     12  CB        49.6140 -143.2580   64.8220 C.3    19  ARG19       0.0321
     13  CG        49.9630 -143.9930   63.5680 C.3    19  ARG19       0.0489
     14  CD        49.8700 -145.4630   63.7910 C.3    19  ARG19       0.2205
     15  NE        50.8620 -145.9030   64.7310 N.pl3  19  ARG19      -0.0865
     16  CZ        51.1300 -147.1610   64.9750 C.cat  19  ARG19       0.5346
     17  NH1       50.4760 -148.0860   64.3480 N.pl3  19  ARG19       0.1354
     18  NH2       52.0420 -147.4790   65.8420 N.pl3  19  ARG19       0.1354
     19  N         50.2190 -140.8960   62.5850 N.am   20  THR20      -0.1939
     20  CA        49.8490 -140.3670   61.2860 C.3    20  THR20       0.2028
     21  C         50.3310 -141.3320   60.2410 C.2    20  THR20       0.2643
     22  O         51.4560 -141.7360   60.2630 O.2    20  THR20      -0.2714
     23  CB        50.5540 -139.0480   60.9900 C.3    20  THR20       0.1808
     24  OG1       50.5050 -138.2260   62.1380 O.3    20  THR20      -0.2208
     25  CG2       49.8940 -138.3300   59.9020 C.3    20  THR20       0.0379
     26  N         49.4850 -141.6930   59.3040 N.am   21  THR21      -0.1936
     27  CA        49.8790 -142.6800   58.3460 C.3    21  THR21       0.2028
     28  C         49.7030 -142.2460   56.9340 C.2    21  THR21       0.2642
     29  O         48.7940 -141.5370   56.6260 O.2    21  THR21      -0.2714
     30  CB        49.0280 -143.9220   58.4960 C.3    21  THR21       0.1808
     31  OG1       47.6660 -143.5540   58.3890 O.3    21  THR21      -0.2208
     32  CG2       49.2330 -144.5330   59.8140 C.3    21  THR21       0.0379
     33  N         50.5920 -142.7060   56.0700 N.am   22  THR22      -0.1950
     34  CA        50.3760 -142.6680   54.6460 C.3    22  THR22       0.1897
     35  C         50.4420 -144.0940   54.1960 C.2    22  THR22       0.2313
     36  O         51.4850 -144.5940   53.8800 O.2    22  THR22      -0.2863
     37  CB        51.4550 -141.8930   53.9120 C.3    22  THR22       0.1794
     38  OG1       52.7100 -142.2970   54.4160 O.3    22  THR22      -0.2208
     39  CG2       51.3170 -140.4490   54.1230 C.3    22  THR22       0.0378
     40  N         53.9430 -142.0380   58.9330 N.3    27  ALA27      -0.1245
     41  CA        54.6440 -140.8090   58.5490 C.3    27  ALA27       0.1562
     42  C         55.1400 -140.0160   59.7620 C.2    27  ALA27       0.2260
     43  O         56.1920 -139.3810   59.7050 O.2    27  ALA27      -0.2867
     44  CB        53.7420 -139.9420   57.6830 C.3    27  ALA27       0.0290
     45  N         52.6900 -137.2870   66.5590 N.3    31  THR31      -0.1218
     46  CA        51.7650 -136.2330   66.1410 C.3    31  THR31       0.1862
     47  C         51.0290 -135.6020   67.3200 C.2    31  THR31       0.2287
     48  O         50.7980 -136.2580   68.3390 O.2    31  THR31      -0.2866
     49  CB        50.6980 -136.8010   65.1870 C.3    31  THR31       0.1770
     50  OG1       51.2800 -137.8360   64.3900 O.3    31  THR31      -0.2211
     51  CG2       50.1280 -135.7170   64.2840 C.3    31  THR31       0.0375
     52  N         47.4820 -134.1990   67.7580 N.3    33  LYS33      -0.1245
     53  CA        46.1480 -134.1080   67.1720 C.3    33  LYS33       0.1561
     54  C         45.2160 -133.2400   68.0120 C.2    33  LYS33       0.2260
     55  O         44.0870 -132.9600   67.6050 O.2    33  LYS33      -0.2867
     56  CB        45.5610 -135.5090   67.0180 C.3    33  LYS33       0.0271
     57  CG        46.4550 -136.4370   66.2160 C.3    33  LYS33       0.0035
     58  CD        45.9130 -137.8470   66.1610 C.3    33  LYS33       0.0206
     59  CE        46.8180 -138.7300   65.3230 C.3    33  LYS33       0.1093
     60  NZ        46.2280 -140.0790   65.1250 N.3    33  LYS33      -0.1314
     61  N         41.4290 -133.7080   66.1340 N.3    45  ARG45      -0.1231
     62  CA        41.3780 -133.8850   64.7080 C.3    45  ARG45       0.1694
     63  C         41.4470 -135.3320   64.2730 C.2    45  ARG45       0.2593
     64  O         42.3120 -136.0500   64.6810 O.2    45  ARG45      -0.2718
     65  CB        42.5390 -133.1580   64.0890 C.3    45  ARG45       0.0321
     66  CG        42.6760 -131.7330   64.5240 C.3    45  ARG45       0.0489
     67  CD        43.4340 -130.9750   63.4790 C.3    45  ARG45       0.2205
     68  NE        44.7950 -130.7130   63.8670 N.pl3  45  ARG45      -0.0865
     69  CZ        45.8450 -131.1090   63.1800 C.cat  45  ARG45       0.5346
     70  NH1       45.6900 -131.7990   62.0930 N.pl3  45  ARG45       0.1354
     71  NH2       47.0520 -130.8260   63.5850 N.pl3  45  ARG45       0.1354
     72  N         40.5230 -135.7360   63.4160 N.am   46  SER46      -0.1938
     73  CA        40.5610 -137.0260   62.7680 C.3    46  SER46       0.2055
     74  C         40.1670 -136.8910   61.3110 C.2    46  SER46       0.2644
     75  O         39.4410 -136.0060   60.9560 O.2    46  SER46      -0.2714
     76  CB        39.6680 -138.0090   63.4850 C.3    46  SER46       0.2130
     77  OG        38.3350 -137.8800   63.0890 O.3    46  SER46      -0.2179
     78  N         40.6760 -137.7700   60.4710 N.am   47  GLY47      -0.1939
     79  CA        40.4580 -137.7120   59.0240 C.3    47  GLY47       0.2014
     80  C         41.7120 -137.2590   58.2970 C.2    47  GLY47       0.2640
     81  O         42.8120 -137.7120   58.6000 O.2    47  GLY47      -0.2714
     82  N         41.5440 -136.3630   57.3300 N.am   48  SER48      -0.1935
     83  CA        42.6760 -135.8080   56.5880 C.3    48  SER48       0.2055
     84  C         43.4520 -134.8060   57.4470 C.2    48  SER48       0.2643
     85  O         42.8670 -133.8970   58.0390 O.2    48  SER48      -0.2714
     86  CB        42.1970 -135.1370   55.2950 C.3    48  SER48       0.2130
     87  OG        43.1650 -134.2290   54.7950 O.3    48  SER48      -0.2179
     88  N         44.7700 -134.9850   57.5090 N.am   49  ALA49      -0.1963
     89  CA        45.6520 -134.0770   58.2460 C.3    49  ALA49       0.1728
     90  C         45.6230 -132.6710   57.6540 C.2    49  ALA49       0.2616
     91  O         45.5960 -131.6840   58.3850 O.2    49  ALA49      -0.2715
     92  CB        47.0770 -134.6150   58.2470 C.3    49  ALA49       0.0334
     93  N         45.6220 -132.5900   56.3280 N.am   50  ALA50      -0.1977
     94  CA        45.6120 -131.3060   55.6270 C.3    50  ALA50       0.1597
     95  C         44.2900 -130.5600   55.8090 C.2    50  ALA50       0.2287
     96  O         44.2830 -129.3600   56.0860 O.2    50  ALA50      -0.2864
     97  CB        45.9000 -131.5100   54.1470 C.3    50  ALA50       0.0319
     98  N         41.8920 -130.9920   58.1860 N.3    52  THR52      -0.1203
     99  CA        41.6420 -130.6640   59.5550 C.3    52  THR52       0.1994
    100  C         42.5400 -129.5630   60.0120 C.2    52  THR52       0.2617
    101  O         42.1650 -128.7660   60.8240 O.2    52  THR52      -0.2717
    102  CB        41.8530 -131.8780   60.4210 C.3    52  THR52       0.1784
    103  OG1       42.9400 -132.6090   59.9010 O.3    52  THR52      -0.2211
    104  CG2       40.6760 -132.7420   60.3560 C.3    52  THR52       0.0376
    105  N         43.7290 -129.5080   59.4650 N.am   53  GLN53      -0.1979
    106  CA        44.6310 -128.4340   59.7720 C.3    53  GLN53       0.1601
    107  C         44.1500 -127.1230   59.2180 C.2    53  GLN53       0.2287
    108  O         44.2910 -126.1090   59.8360 O.2    53  GLN53      -0.2864
    109  CB        46.0060 -128.7440   59.2470 C.3    53  GLN53       0.0394
    110  CG        47.1010 -128.1200   60.0590 C.3    53  GLN53       0.0908
    111  CD        48.4590 -128.4780   59.5470 C.2    53  GLN53       0.2608
    112  OE1       49.3280 -127.6380   59.4450 O.2    53  GLN53      -0.2717
    113  NE2       48.6540 -129.7290   59.2320 N.am   53  GLN53      -0.0878
    114  N         37.4080 -141.1980   65.1290 N.3   128  GLY128     -0.1210
    115  CA        38.5740 -141.7890   64.4840 C.3   128  GLY128      0.1956
    116  C         38.3520 -143.2660   64.2240 C.2   128  GLY128      0.2612
    117  O         37.4810 -143.8860   64.8350 O.2   128  GLY128     -0.2717
    118  N         39.1490 -143.8270   63.3160 N.am  129  SER129     -0.1952
    119  CA        39.0480 -145.2410   62.9400 C.3   129  SER129      0.1924
    120  C         39.0800 -146.1890   64.1410 C.2   129  SER129      0.2314
    121  O         38.3810 -147.2030   64.1520 O.2   129  SER129     -0.2863
    122  CB        40.1690 -145.6120   61.9650 C.3   129  SER129      0.2116
    123  OG        41.4440 -145.3630   62.5290 O.3   129  SER129     -0.2180
    124  N         45.8410 -148.1370   62.5320 N.3   168  SER168     -0.1217
    125  CA        45.9550 -146.7120   62.2250 C.3   168  SER168      0.1889
    126  C         46.1490 -145.8470   63.4750 C.2   168  SER168      0.2288
    127  O         46.2180 -144.6250   63.3700 O.2   168  SER168     -0.2866
    128  CB        44.7120 -146.2270   61.4710 C.3   168  SER168      0.2089
    129  OG        44.3360 -147.1360   60.4510 O.3   168  SER168     -0.2183
@<TRIPOS>BOND
     1    36    35    2
     2    37    39    1
     3    37    38    1
     4    37    34    1
     5    97    94    1
     6    35    34    1
     7    34    33    1
     8    87    86    1
     9    86    83    1
    10    94    95    1
    11    94    93    1
    12    95    96    2
    13    33    28   am
    14    93    90   am
    15    83    82    1
    16    83    84    1
    17    29    28    2
    18    28    27    1
    19    82    80   am
    20    84    88   am
    21    84    85    2
    22    88    89    1
    23    90    89    1
    24    90    91    2
    25    44    41    1
    26    98    99    1
    27    89    92    1
    28    80    81    2
    29    80    79    1
    30    27    30    1
    31    27    26    1
    32    31    30    1
    33    30    32    1
    34    41    40    1
    35    41    42    1
    36    79    78    1
    37   107   106    1
    38   107   108    2
    39   113   111   am
    40   109   106    1
    41   109   110    1
    42    26    21   am
    43   112   111    2
    44   105   106    1
    45   105   100   am
    46   111   110    1
    47    99   100    1
    48    99   102    1
    49    43    42    2
    50   103   102    1
    51    25    23    1
    52   100   101    2
    53    21    22    2
    54    21    20    1
    55   104   102    1
    56   129   128    1
    57    78    74   am
    58    75    74    2
    59    23    20    1
    60    23    24    1
    61    20    19    1
    62    74    73    1
    63   128   125    1
    64   122   123    1
    65   122   119    1
    66    70    69    1
    67   125   124    1
    68   125   126    1
    69    19    10   am
    70    73    72    1
    71    73    76    1
    72     1     2    1
    73   119   118    1
    74   119   120    1
    75    77    76    1
    76    69    71    1
    77    69    68    2
    78   118   116   am
    79   127   126    2
    80    72    63   am
    81     6     5    1
    82    67    68    1
    83    67    66    1
    84    11    10    2
    85    10     9    1
    86    13    14    1
    87    13    12    1
    88    14    15    1
    89    65    66    1
    90    65    62    1
    91     5     2    1
    92     5     7    1
    93   120   121    2
    94   116   115    1
    95   116   117    2
    96    63    64    2
    97    63    62    1
    98    51    49    1
    99     2     3    1
   100    17    16    1
   101    50    49    1
   102   115   114    1
   103    62    61    1
   104    15    16    2
   105     9    12    1
   106     9     8    1
   107     4     3    2
   108    16    18    1
   109    60    59    1
   110    49    46    1
   111    59    58    1
   112    46    45    1
   113    46    47    1
   114    58    57    1
   115    57    56    1
   116    56    53    1
   117    53    52    1
   118    53    54    1
   119    47    48    2
   120    55    54    2
