@<TRIPOS>MOLECULE
tmp/4y76A00.pdb
 187 187 0 0 0
SMALL
GASTEIGER

@<TRIPOS>ATOM
      1  N         14.1120   10.6950   14.1420 N.3    42  HIS42      -0.1241
      2  CA        12.6470   10.6940   14.1280 C.3    42  HIS42       0.1621
      3  C         12.0330   12.0430   14.4240 C.2    42  HIS42       0.2264
      4  O         10.8880   12.2890   14.0750 O.2    42  HIS42      -0.2867
      5  CB        12.0470    9.5790   15.0010 C.3    42  HIS42       0.0745
      6  CG        11.8390    9.9440   16.4590 C.ar   42  HIS42       0.0817
      7  ND1       12.6600    9.5190   17.4340 N.ar   42  HIS42      -0.2268
      8  CD2       10.8160   10.6580   17.0910 C.ar   42  HIS42       0.1154
      9  CE1       12.2070    9.9630   18.6300 C.ar   42  HIS42       0.1986
     10  NE2       11.0840   10.6630   18.4150 N.ar   42  HIS42      -0.2212
     11  N         11.9170    4.0540   10.0390 N.3    80  LYS80      -0.1231
     12  CA        10.7460    4.5200   10.7740 C.3    80  LYS80       0.1693
     13  C          9.9870    3.4790   11.5850 C.2    80  LYS80       0.2592
     14  O          9.3790    3.8200   12.5970 O.2    80  LYS80      -0.2718
     15  CB         9.7620    5.2210    9.8350 C.3    80  LYS80       0.0285
     16  CG        10.2960    6.4920    9.2010 C.3    80  LYS80       0.0035
     17  CD         9.1800    7.2830    8.5400 C.3    80  LYS80       0.0206
     18  CE         9.7080    8.5950    7.9940 C.3    80  LYS80       0.1093
     19  NZ         8.6080    9.5020    7.5730 N.3    80  LYS80      -0.1314
     20  N          9.9870    2.2260   11.1460 N.am   81  GLU81      -0.1966
     21  CA         9.2090    1.2090   11.8720 C.3    81  GLU81       0.1733
     22  C          9.8650    0.7330   13.1630 C.2    81  GLU81       0.2617
     23  O          9.1720    0.5470   14.1560 O.2    81  GLU81      -0.2715
     24  CB         8.7460    0.0250   10.9910 C.3    81  GLU81       0.0429
     25  CG         9.7880   -0.5950   10.0650 C.3    81  GLU81       0.1163
     26  CD         9.9210    0.1210    8.7290 C.2    81  GLU81       0.3649
     27  OE1        9.2170    1.1320    8.4990 O.co2  81  GLU81      -0.2457
     28  OE2       10.7290   -0.3390    7.8930 O.co2  81  GLU81      -0.2457
     29  N         11.1850    0.5650   13.1550 N.am   82  THR82      -0.1937
     30  CA        11.9130    0.1020   14.3540 C.3    82  THR82       0.2028
     31  C         12.6420    1.2100   15.1480 C.2    82  THR82       0.2642
     32  O         13.0400    1.0000   16.3060 O.2    82  THR82      -0.2714
     33  CB        12.9520   -0.9780   13.9840 C.3    82  THR82       0.1808
     34  OG1       13.9500   -0.4120   13.1190 O.3    82  THR82      -0.2208
     35  CG2       12.2780   -2.1800   13.2800 C.3    82  THR82       0.0379
     36  N         12.8090    2.3770   14.5190 N.am   83  TYR83      -0.1973
     37  CA        13.5770    3.5060   15.0740 C.3    83  TYR83       0.1639
     38  C         15.0720    3.2190   15.1790 C.2    83  TYR83       0.2290
     39  O         15.7770    3.8700   15.9520 O.2    83  TYR83      -0.2864
     40  CB        13.0020    4.0080   16.4050 C.3    83  TYR83       0.0560
     41  CG        11.8650    5.0060   16.2860 C.ar   83  TYR83      -0.0198
     42  CD1       11.1520    5.1570   15.0910 C.ar   83  TYR83      -0.0009
     43  CD2       11.4570    5.7510   17.3950 C.ar   83  TYR83      -0.0009
     44  CE1       10.0890    6.0500   14.9930 C.ar   83  TYR83       0.0417
     45  CE2       10.3960    6.6460   17.3110 C.ar   83  TYR83       0.0417
     46  CZ         9.7130    6.7830   16.1070 C.ar   83  TYR83       0.1957
     47  OH         8.6700    7.6610   16.0170 O.3    83  TYR83      -0.2866
     48  N          2.7080   10.7580   31.5200 N.3   133  GLU133     -0.1245
     49  CA         2.2900   10.2190   30.2100 C.3   133  GLU133      0.1567
     50  C          1.2150   11.0070   29.4400 C.2   133  GLU133      0.2260
     51  O          1.3030   11.1390   28.2140 O.2   133  GLU133     -0.2867
     52  CB         1.9060    8.7350   30.3220 C.3   133  GLU133      0.0388
     53  CG         1.7840    8.0290   28.9800 C.3   133  GLU133      0.1160
     54  CD         1.5640    6.5300   29.0910 C.2   133  GLU133      0.3649
     55  OE1        1.9270    5.9300   30.1280 O.co2 133  GLU133     -0.2457
     56  OE2        1.0460    5.9440   28.1140 O.co2 133  GLU133     -0.2457
     57  N          8.9950   -4.6390   21.4230 N.3   160  PHE160     -0.1241
     58  CA         9.6070   -4.3330   20.1230 C.3   160  PHE160      0.1605
     59  C         11.1210   -4.5600   20.1690 C.2   160  PHE160      0.2264
     60  O         11.7470   -4.4220   21.2270 O.2   160  PHE160     -0.2867
     61  CB         9.3140   -2.8790   19.7090 C.3   160  PHE160      0.0534
     62  CG         7.8550   -2.5130   19.7350 C.ar  160  PHE160     -0.0203
     63  CD1        7.3070   -1.8640   20.8400 C.ar  160  PHE160     -0.0042
     64  CD2        7.0240   -2.8100   18.6550 C.ar  160  PHE160     -0.0042
     65  CE1        5.9590   -1.5230   20.8770 C.ar  160  PHE160     -0.0003
     66  CE2        5.6720   -2.4740   18.6880 C.ar  160  PHE160     -0.0003
     67  CZ         5.1390   -1.8300   19.8000 C.ar  160  PHE160     -0.0000
     68  N         11.0190    8.6850   34.5230 N.3   177  ASP177     -0.1225
     69  CA        11.3030    8.3490   33.1140 C.3   177  ASP177      0.1805
     70  C         11.3150    9.6210   32.2270 C.2   177  ASP177      0.2598
     71  O         10.9570   10.7170   32.6770 O.2   177  ASP177     -0.2718
     72  CB        10.2340    7.3640   32.6030 C.3   177  ASP177      0.1424
     73  CG        10.6510    6.6120   31.3380 C.2   177  ASP177      0.3668
     74  OD1       11.8340    6.6810   30.9420 O.co2 177  ASP177     -0.2456
     75  OD2        9.7890    5.9270   30.7390 O.co2 177  ASP177     -0.2456
     76  N         11.7800    9.4880   30.9870 N.am  178  ALA178     -0.1966
     77  CA        11.6850   10.5710   30.0180 C.3   178  ALA178      0.1728
     78  C         10.2760   10.4130   29.4390 C.2   178  ALA178      0.2616
     79  O          9.5800    9.4620   29.7940 O.2   178  ALA178     -0.2715
     80  CB        12.7450   10.4390   28.9300 C.3   178  ALA178      0.0334
     81  N          9.8490   11.3180   28.5570 N.am  179  CYS179     -0.1954
     82  CA         8.4940   11.2170   27.9920 C.3   179  CYS179      0.1843
     83  C          8.3500   12.0000   26.6800 C.2   179  CYS179      0.2625
     84  O          9.3490   12.3880   26.0670 O.2   179  CYS179     -0.2714
     85  CB         7.4600   11.6720   29.0480 C.3   179  CYS179      0.0997
     86  SG         5.7430   11.1550   28.7660 S.3   179  CYS179     -0.0797
     87  N          7.1110   12.2400   26.2460 N.am  180  GLN180     -0.1977
     88  CA         6.8610   12.9660   24.9930 C.3   180  GLN180      0.1601
     89  C          7.4700   14.3740   24.9920 C.2   180  GLN180      0.2287
     90  O          7.2930   15.1330   25.9460 O.2   180  GLN180     -0.2864
     91  CB         5.3550   13.0440   24.7200 C.3   180  GLN180      0.0394
     92  CG         5.0010   13.4530   23.3020 C.3   180  GLN180      0.0908
     93  CD         3.5070   13.3770   23.0280 C.2   180  GLN180      0.2608
     94  OE1        2.9680   14.1730   22.2630 O.2   180  GLN180     -0.2717
     95  NE2        2.8310   12.4210   23.6580 N.am  180  GLN180     -0.0878
     96  N         12.3560   13.6180   23.3600 N.3   183  SER183     -0.1217
     97  CA        13.0520   12.9530   22.2470 C.3   183  SER183      0.1889
     98  C         14.1110   13.8500   21.6100 C.2   183  SER183      0.2288
     99  O         13.8590   15.0290   21.4170 O.2   183  SER183     -0.2866
    100  CB        12.0540   12.4970   21.1650 C.3   183  SER183      0.2089
    101  OG        11.2170   11.4180   21.5970 O.3   183  SER183     -0.2183
    102  N         17.7610   10.5170   23.6170 N.3   201  VAL201     -0.1231
    103  CA        16.3940   10.1280   23.9910 C.3   201  VAL201      0.1692
    104  C         15.6460    9.6670   22.7280 C.2   201  VAL201      0.2593
    105  O         15.4910   10.4520   21.7810 O.2   201  VAL201     -0.2718
    106  CB        15.6540   11.3040   24.6680 C.3   201  VAL201      0.0266
    107  CG1       14.2030   10.9290   25.0140 C.3   201  VAL201      0.0020
    108  CG2       16.4050   11.7260   25.9220 C.3   201  VAL201      0.0020
    109  N         15.1790    8.4060   22.7140 N.am  202  SER202     -0.1938
    110  CA        14.6010    7.8470   21.4710 C.3   202  SER202      0.2055
    111  C         13.1230    7.4010   21.5500 C.2   202  SER202      0.2643
    112  O         12.2640    7.9590   20.8530 O.2   202  SER202     -0.2714
    113  CB        15.5020    6.7120   20.9470 C.3   202  SER202      0.2130
    114  OG        15.1660    6.3360   19.6280 O.3   202  SER202     -0.2179
    115  N         12.8250    6.4220   22.4000 N.am  203  TRP203     -0.1959
    116  CA        11.4470    5.9150   22.4950 C.3   203  TRP203      0.1771
    117  C         11.1710    5.1080   23.7320 C.2   203  TRP203      0.2620
    118  O         12.0850    4.8220   24.5240 O.2   203  TRP203     -0.2715
    119  CB        11.0640    5.1280   21.2400 C.3   203  TRP203      0.0590
    120  CG        11.8540    3.8590   20.9820 C.ar  203  TRP203      0.0006
    121  CD1       13.0400    3.7290   20.2550 C.ar  203  TRP203      0.0946
    122  CD2       11.5110    2.4800   21.3990 C.ar  203  TRP203      0.0152
    123  NE1       13.4480    2.4140   20.2100 N.ar  203  TRP203     -0.2442
    124  CE2       12.5800    1.6130   20.8730 C.ar  203  TRP203      0.0810
    125  CE3       10.4690    1.9030   22.1300 C.ar  203  TRP203      0.0012
    126  CZ2       12.5880    0.2320   21.0840 C.ar  203  TRP203      0.0191
    127  CZ3       10.4890    0.5130   22.3410 C.ar  203  TRP203      0.0001
    128  CH2       11.5160   -0.3020   21.8210 C.ar  203  TRP203      0.0015
    129  N          9.8990    4.7360   23.8980 N.am  204  GLY204     -0.1940
    130  CA         9.4450    3.9240   25.0320 C.3   204  GLY204      0.2014
    131  C          7.9690    3.5880   24.8870 C.2   204  GLY204      0.2639
    132  O          7.2350    4.2980   24.2020 O.2   204  GLY204     -0.2714
    133  N          7.5350    2.4970   25.5080 N.am  205  GLU205     -0.1963
    134  CA         6.1100    2.1130   25.4680 C.3   205  GLU205      0.1733
    135  C          5.4050    2.8960   26.5740 C.2   205  GLU205      0.2617
    136  O          5.2750    2.4250   27.6960 O.2   205  GLU205     -0.2715
    137  CB         5.9610    0.5930   25.6290 C.3   205  GLU205      0.0429
    138  CG         6.6790   -0.2040   24.5430 C.3   205  GLU205      0.1163
    139  CD         6.6120   -1.7130   24.7610 C.2   205  GLU205      0.3649
    140  OE1        5.4930   -2.2810   24.8000 O.co2 205  GLU205     -0.2457
    141  OE2        7.6840   -2.3430   24.8700 O.co2 205  GLU205     -0.2457
    142  N          4.9890    4.1230   26.2520 N.am  206  GLY206     -0.1940
    143  CA         4.4360    5.0410   27.2480 C.3   206  GLY206      0.2014
    144  C          5.5450    5.6850   28.0790 C.2   206  GLY206      0.2639
    145  O          6.7220    5.6580   27.6950 O.2   206  GLY206     -0.2714
    146  N          5.1870    6.2440   29.2320 N.am  207  CYS207     -0.1967
    147  CA         6.1670    6.8990   30.0900 C.3   207  CYS207      0.1712
    148  C          6.0920    6.3800   31.5290 C.2   207  CYS207      0.2296
    149  O          5.0600    6.5260   32.2000 O.2   207  CYS207     -0.2864
    150  CB         5.9640    8.4270   30.0610 C.3   207  CYS207      0.0983
    151  SG         5.8160    9.1500   28.4070 S.3   207  CYS207     -0.0798
    152  N         11.1120    0.1900   30.1530 N.3   213  TYR213     -0.1227
    153  CA        12.2610    1.1050   30.3290 C.3   213  TYR213      0.1736
    154  C         12.3530    2.1430   29.2030 C.2   213  TYR213      0.2596
    155  O         11.6820    2.0130   28.1840 O.2   213  TYR213     -0.2718
    156  CB        13.5770    0.3130   30.3530 C.3   213  TYR213      0.0548
    157  CG        13.6230   -0.7790   31.3910 C.ar  213  TYR213     -0.0200
    158  CD1       13.9440   -0.4890   32.7130 C.ar  213  TYR213     -0.0009
    159  CD2       13.3510   -2.1080   31.0520 C.ar  213  TYR213     -0.0009
    160  CE1       13.9920   -1.4850   33.6760 C.ar  213  TYR213      0.0417
    161  CE2       13.3940   -3.1160   32.0120 C.ar  213  TYR213      0.0417
    162  CZ        13.7170   -2.7960   33.3210 C.ar  213  TYR213      0.1957
    163  OH        13.7640   -3.7770   34.2920 O.3   213  TYR213     -0.2866
    164  N         13.2010    3.1570   29.3810 N.am  214  GLY214     -0.1942
    165  CA        13.4400    4.1410   28.3110 C.3   214  GLY214      0.2014
    166  C         14.4870    3.6310   27.3300 C.2   214  GLY214      0.2639
    167  O         15.5220    3.0710   27.7510 O.2   214  GLY214     -0.2714
    168  N         14.2080    3.7700   26.0320 N.am  215  ILE215     -0.1963
    169  CA        15.1440    3.3400   24.9980 C.3   215  ILE215      0.1727
    170  C         15.8620    4.5550   24.3710 C.2   215  ILE215      0.2616
    171  O         15.2240    5.5230   23.9010 O.2   215  ILE215     -0.2715
    172  CB        14.5030    2.4480   23.9050 C.3   215  ILE215      0.0290
    173  CG1       13.4510    1.4580   24.4980 C.3   215  ILE215      0.0022
    174  CG2       15.5780    1.6940   23.1400 C.3   215  ILE215      0.0023
    175  CD1       13.9930    0.4540   25.4940 C.3   215  ILE215      0.0001
    176  N         17.1880    4.4530   24.3400 N.am  216  TYR216     -0.1974
    177  CA        18.0740    5.5240   23.8930 C.3   216  TYR216      0.1639
    178  C         18.9690    5.0800   22.7500 C.2   216  TYR216      0.2290
    179  O         19.4210    3.9300   22.7160 O.2   216  TYR216     -0.2864
    180  CB        18.9710    5.9520   25.0770 C.3   216  TYR216      0.0560
    181  CG        18.2240    6.5150   26.2790 C.ar  216  TYR216     -0.0198
    182  CD1       17.5670    5.6650   27.1970 C.ar  216  TYR216     -0.0009
    183  CD2       18.1820    7.8850   26.5100 C.ar  216  TYR216     -0.0009
    184  CE1       16.8780    6.1830   28.2930 C.ar  216  TYR216      0.0417
    185  CE2       17.4990    8.4150   27.5940 C.ar  216  TYR216      0.0417
    186  CZ        16.8490    7.5660   28.4880 C.ar  216  TYR216      0.1957
    187  OH        16.1860    8.1100   29.5670 O.3   216  TYR216     -0.2866
@<TRIPOS>BOND
     1    19    18    1
     2    28    26   ar
     3    18    17    1
     4    27    26   ar
     5    17    16    1
     6    26    25    1
     7    16    15    1
     8    15    12    1
     9    11    12    1
    10    25    24    1
    11    12    13    1
    12    24    21    1
    13    20    13   am
    14    20    21    1
    15    13    14    2
    16    21    22    1
    17    34    33    1
    18    29    22   am
    19    29    30    1
    20    22    23    2
    21    35    33    1
    22    33    30    1
    23     4     3    2
    24     2     1    1
    25     2     3    1
    26     2     5    1
    27    30    31    1
    28    36    37    1
    29    36    31   am
    30    44    42   ar
    31    44    46   ar
    32     5     6    1
    33    37    38    1
    34    37    40    1
    35    42    41   ar
    36    31    32    2
    37    38    39    2
    38    47    46    1
    39    46    45   ar
    40    41    40    1
    41    41    43   ar
    42     6     8   ar
    43     6     7   ar
    44     8    10   ar
    45    45    43   ar
    46     7     9   ar
    47    10     9   ar
    48    64    66   ar
    49    64    62   ar
    50    66    67   ar
    51   114   113    1
    52    61    62    1
    53    61    58    1
    54    62    63   ar
    55    67    65   ar
    56    58    59    1
    57    58    57    1
    58    59    60    2
    59   123   121   ar
    60   123   124   ar
    61   121   120   ar
    62    63    65   ar
    63   112   111    2
    64   124   126   ar
    65   124   122   ar
    66   113   110    1
    67   120   119    1
    68   120   122   ar
    69   126   128   ar
    70   100   101    1
    71   100    97    1
    72   119   116    1
    73   122   125   ar
    74    99    98    2
    75   110   111    1
    76   110   109    1
    77   111   115   am
    78    98    97    1
    79   105   104    2
    80   128   127   ar
    81   125   127   ar
    82    97    96    1
    83    94    93    2
    84   115   116    1
    85   116   117    1
    86   109   104   am
    87   179   178    2
    88   104   103    1
    89   178   177    1
    90    93    92    1
    91    93    95   am
    92   174   172    1
    93    92    91    1
    94   102   103    1
    95   117   129   am
    96   117   118    2
    97   177   176    1
    98   177   180    1
    99   129   130    1
   100   171   170    2
   101   172   173    1
   102   172   169    1
   103   103   106    1
   104   132   131    2
   105   176   170   am
   106   170   169    1
   107   173   175    1
   108   138   139    1
   109   138   137    1
   110   106   107    1
   111   106   108    1
   112    91    88    1
   113   139   140   ar
   114   139   141   ar
   115   131   130    1
   116   131   133   am
   117    89    88    1
   118    89    90    2
   119    88    87    1
   120   169   168    1
   121   180   181    1
   122   134   133    1
   123   134   137    1
   124   134   135    1
   125   168   166   am
   126    84    83    2
   127    87    83   am
   128   142   135   am
   129   142   143    1
   130   181   183   ar
   131   181   182   ar
   132   183   185   ar
   133   135   136    2
   134    83    82    1
   135   182   184   ar
   136   143   144    1
   137   166   167    2
   138   166   165    1
   139   185   186   ar
   140   145   144    2
   141    82    81    1
   142    82    85    1
   143   144   146   am
   144    56    54   ar
   145   155   154    2
   146    51    50    2
   147   184   186   ar
   148   165   164    1
   149   151    86    1
   150   151   150    1
   151   186   187    1
   152    81    78   am
   153    86    85    1
   154    80    77    1
   155    53    54    1
   156    53    52    1
   157    54    55   ar
   158   154   164   am
   159   154   153    1
   160   146   147    1
   161    78    79    2
   162    78    77    1
   163    50    49    1
   164    77    76    1
   165   150   147    1
   166   147   148    1
   167   152   153    1
   168    49    52    1
   169    49    48    1
   170   153   156    1
   171   156   157    1
   172    75    73   ar
   173    74    73   ar
   174    76    70   am
   175   159   157   ar
   176   159   161   ar
   177    73    72    1
   178   157   158   ar
   179   148   149    2
   180   161   162   ar
   181    70    71    2
   182    70    69    1
   183    72    69    1
   184   158   160   ar
   185    69    68    1
   186   162   160   ar
   187   162   163    1
