@<TRIPOS>MOLECULE
tmp/4y77K00.pdb
 153 147 0 0 0
SMALL
GASTEIGER

@<TRIPOS>ATOM
      1  N         11.7120 -140.0010   10.3810 N.3     1  THR1       -0.1218
      2  CA        11.3670 -139.2610    9.0970 C.3     1  THR1        0.1862
      3  C         11.9700 -139.5590    7.6850 C.2     1  THR1        0.2287
      4  O         13.0820 -139.9690    7.5490 O.2     1  THR1       -0.2866
      5  CB        11.7180 -137.8130    9.3730 C.3     1  THR1        0.1770
      6  OG1       11.0030 -137.4370   10.4710 O.3     1  THR1       -0.2211
      7  CG2       11.3950 -136.8310    8.2860 C.3     1  THR1        0.0375
      8  N          5.0800 -138.8280   10.1000 N.3    19  ARG19      -0.1231
      9  CA         5.1780 -139.6910   11.2780 C.3    19  ARG19       0.1694
     10  C          6.1110 -139.1130   12.3340 C.2    19  ARG19       0.2592
     11  O          7.1540 -138.5490   12.0100 O.2    19  ARG19      -0.2718
     12  CB         5.6590 -141.0940   10.8910 C.3    19  ARG19       0.0321
     13  CG         5.7350 -142.0540   12.0760 C.3    19  ARG19       0.0489
     14  CD         5.9090 -143.5050   11.6550 C.3    19  ARG19       0.2205
     15  NE         4.7190 -144.0400   10.9970 N.pl3  19  ARG19      -0.0865
     16  CZ         4.5230 -145.3260   10.7090 C.cat  19  ARG19       0.5346
     17  NH1        5.4330 -146.2450   11.0220 N.pl3  19  ARG19       0.1354
     18  NH2        3.4000 -145.6980   10.1040 N.pl3  19  ARG19       0.1354
     19  N          5.7250 -139.2640   13.5990 N.am   20  ALA20      -0.1966
     20  CA         6.6020 -138.9610   14.7250 C.3    20  ALA20       0.1728
     21  C          6.7410 -140.2120   15.5850 C.2    20  ALA20       0.2617
     22  O          5.7570 -140.9070   15.8320 O.2    20  ALA20      -0.2715
     23  CB         6.0490 -137.8100   15.5440 C.3    20  ALA20       0.0334
     24  N          7.9640 -140.4900   16.0330 N.am   21  THR21      -0.1937
     25  CA         8.2500 -141.6950   16.8100 C.3    21  THR21       0.2028
     26  C          8.9730 -141.3880   18.1170 C.2    21  THR21       0.2642
     27  O          9.6170 -140.3480   18.2590 O.2    21  THR21      -0.2714
     28  CB         9.1180 -142.6850   16.0050 C.3    21  THR21       0.1808
     29  OG1       10.3580 -142.0610   15.6420 O.3    21  THR21      -0.2208
     30  CG2        8.3800 -143.1480   14.7480 C.3    21  THR21       0.0379
     31  N          8.8360 -142.3040   19.0710 N.am   22  ALA22      -0.1977
     32  CA         9.6520 -142.3220   20.2810 C.3    22  ALA22       0.1597
     33  C         10.1410 -143.7530   20.4550 C.2    22  ALA22       0.2287
     34  O          9.4710 -144.5770   21.0810 O.2    22  ALA22      -0.2864
     35  CB         8.8410 -141.8760   21.4870 C.3    22  ALA22       0.0319
     36  N          7.6840 -146.7570   19.4360 N.3    25  TRP25      -0.1241
     37  CA         6.3400 -146.2270   19.6440 C.3    25  TRP25       0.1605
     38  C          6.0160 -145.1840   18.5760 C.2    25  TRP25       0.2264
     39  O          6.7430 -144.2030   18.4210 O.2    25  TRP25      -0.2867
     40  CB         6.2250 -145.6140   21.0470 C.3    25  TRP25       0.0550
     41  CG         5.0130 -144.7590   21.2530 C.ar   25  TRP25       0.0003
     42  CD1        4.9780 -143.3980   21.3590 C.ar   25  TRP25       0.0946
     43  CD2        3.6600 -145.2060   21.3760 C.ar   25  TRP25       0.0152
     44  NE1        3.6870 -142.9680   21.5440 N.ar   25  TRP25      -0.2442
     45  CE2        2.8570 -144.0580   21.5570 C.ar   25  TRP25       0.0810
     46  CE3        3.0460 -146.4630   21.3510 C.ar   25  TRP25       0.0012
     47  CZ2        1.4720 -144.1310   21.7130 C.ar   25  TRP25       0.0191
     48  CZ3        1.6690 -146.5350   21.5050 C.ar   25  TRP25       0.0001
     49  CH2        0.8980 -145.3740   21.6830 C.ar   25  TRP25       0.0015
     50  N          4.2790 -142.2000   17.7950 N.3    27  ALA27      -0.1231
     51  CA         3.6980 -141.1310   18.6040 C.3    27  ALA27       0.1694
     52  C          2.6130 -140.3700   17.8550 C.2    27  ALA27       0.2592
     53  O          1.5820 -140.0220   18.4350 O.2    27  ALA27      -0.2718
     54  CB         4.7840 -140.1760   19.0670 C.3    27  ALA27       0.0304
     55  N          2.8470 -140.1080   16.5730 N.am   28  SER28      -0.1952
     56  CA         1.8720 -139.4020   15.7470 C.3    28  SER28       0.1924
     57  C          1.9640 -139.8260   14.2860 C.2    28  SER28       0.2314
     58  O          3.0140 -140.2690   13.8230 O.2    28  SER28      -0.2863
     59  CB         2.0800 -137.8910   15.8580 C.3    28  SER28       0.2116
     60  OG         1.1230 -137.1870   15.0880 O.3    28  SER28      -0.2180
     61  N          1.7930 -135.2620   11.8380 N.3    31  VAL31      -0.1231
     62  CA         2.7260 -134.1880   12.1620 C.3    31  VAL31       0.1692
     63  C          3.0500 -133.3580   10.9130 C.2    31  VAL31       0.2592
     64  O          3.2180 -133.9110    9.8270 O.2    31  VAL31      -0.2718
     65  CB         4.0010 -134.7890   12.8100 C.3    31  VAL31       0.0266
     66  CG1        5.2590 -134.0330   12.4210 C.3    31  VAL31       0.0020
     67  CG2        3.8430 -134.8480   14.3240 C.3    31  VAL31       0.0020
     68  N          3.1230 -132.0350   11.0780 N.am   32  LYS32      -0.1966
     69  CA         3.5090 -131.1210    9.9910 C.3    32  LYS32       0.1728
     70  C          5.0240 -130.9300    9.9450 C.2    32  LYS32       0.2616
     71  O          5.6040 -130.3440   10.8580 O.2    32  LYS32      -0.2715
     72  CB         2.8430 -129.7490   10.1560 C.3    32  LYS32       0.0311
     73  CG         1.4600 -129.6300    9.5310 C.3    32  LYS32       0.0038
     74  CD         1.1430 -128.1900    9.1440 C.3    32  LYS32       0.0206
     75  CE         1.8330 -127.7880    7.8460 C.3    32  LYS32       0.1093
     76  NZ         1.6750 -126.3390    7.5370 N.3    32  LYS32      -0.1314
     77  N          5.6550 -131.4100    8.8750 N.am   33  LYS33      -0.1977
     78  CA         7.1130 -131.3600    8.7410 C.3    33  LYS33       0.1596
     79  C          7.6130 -130.2920    7.7640 C.2    33  LYS33       0.2287
     80  O          8.8220 -130.1260    7.5960 O.2    33  LYS33      -0.2864
     81  CB         7.6460 -132.7360    8.3460 C.3    33  LYS33       0.0298
     82  CG         7.5220 -133.7400    9.4750 C.3    33  LYS33       0.0038
     83  CD         8.0780 -135.0980    9.1080 C.3    33  LYS33       0.0206
     84  CE         7.6650 -136.1300   10.1390 C.3    33  LYS33       0.1093
     85  NZ         8.2450 -137.4610    9.8350 N.3    33  LYS33      -0.1314
     86  N         11.6170 -130.4490    7.9620 N.3    45  MET45      -0.1230
     87  CA        12.0470 -130.8760    9.2920 C.3    45  MET45       0.1702
     88  C         12.3540 -132.3700    9.3590 C.2    45  MET45       0.2592
     89  O         11.5270 -133.2000    8.9800 O.2    45  MET45      -0.2718
     90  CB        10.9560 -130.5590   10.3110 C.3    45  MET45       0.0401
     91  CG        10.5820 -129.0900   10.3980 C.3    45  MET45       0.0596
     92  SD         9.2930 -128.8290   11.6270 S.3    45  MET45      -0.1393
     93  CE         8.9390 -127.0940   11.3900 C.3    45  MET45       0.0692
     94  N         13.5470 -132.6990    9.8530 N.am   46  ALA46      -0.1966
     95  CA        13.9210 -134.0780   10.1680 C.3    46  ALA46       0.1728
     96  C         14.8910 -134.0830   11.3470 C.2    46  ALA46       0.2617
     97  O         15.7130 -133.1760   11.4820 O.2    46  ALA46      -0.2715
     98  CB        14.5480 -134.7550    8.9620 C.3    46  ALA46       0.0334
     99  N         14.7920 -135.1070   12.1910 N.am   47  GLY47      -0.1940
    100  CA        15.5830 -135.1870   13.4200 C.3    47  GLY47       0.2014
    101  C         14.7120 -134.9340   14.6360 C.2    47  GLY47       0.2639
    102  O         13.5760 -135.4040   14.6990 O.2    47  GLY47      -0.2714
    103  N         15.2430 -134.1870   15.6020 N.am   48  GLY48      -0.1939
    104  CA        14.4960 -133.8440   16.8090 C.3    48  GLY48       0.2014
    105  C         13.3090 -132.9480   16.4970 C.2    48  GLY48       0.2639
    106  O         13.4680 -131.8760   15.9070 O.2    48  GLY48      -0.2714
    107  N         12.1190 -133.3960   16.8860 N.am   49  ALA49      -0.1963
    108  CA        10.8740 -132.6850   16.5860 C.3    49  ALA49       0.1728
    109  C         10.8660 -131.2630   17.1510 C.2    49  ALA49       0.2616
    110  O         10.5790 -130.3040   16.4320 O.2    49  ALA49      -0.2715
    111  CB         9.6840 -133.4690   17.1230 C.3    49  ALA49       0.0334
    112  N         11.1870 -131.1380   18.4350 N.am   50  ALA50      -0.1977
    113  CA        11.2240 -129.8360   19.1040 C.3    50  ALA50       0.1597
    114  C         12.3400 -128.9550   18.5510 C.2    50  ALA50       0.2287
    115  O         12.1330 -127.7670   18.2950 O.2    50  ALA50      -0.2864
    116  CB        11.3990 -130.0160   20.6050 C.3    50  ALA50       0.0319
    117  N         13.7420 -129.0350   15.5670 N.3    52  CYS52      -0.1221
    118  CA        13.3370 -128.5620   14.2430 C.3    52  CYS52       0.1808
    119  C         12.2570 -127.4920   14.3360 C.2    52  CYS52       0.2601
    120  O         12.4100 -126.4030   13.7870 O.2    52  CYS52      -0.2717
    121  CB        12.8330 -129.7210   13.3840 C.3    52  CYS52       0.0970
    122  SG        14.1370 -130.8050   12.7760 S.3    52  CYS52      -0.0800
    123  N         11.1710 -127.8120   15.0350 N.am   53  GLN53      -0.1979
    124  CA        10.0400 -126.8940   15.1720 C.3    53  GLN53       0.1601
    125  C         10.4550 -125.5600   15.7770 C.2    53  GLN53       0.2287
    126  O         10.2210 -124.5110   15.1900 O.2    53  GLN53      -0.2864
    127  CB         8.9310 -127.5150   16.0260 C.3    53  GLN53       0.0394
    128  CG         8.0260 -128.4750   15.2690 C.3    53  GLN53       0.0908
    129  CD         6.8630 -128.9680   16.1120 C.2    53  GLN53       0.2608
    130  OE1        6.7020 -128.5700   17.2680 O.2    53  GLN53      -0.2717
    131  NE2        6.0390 -129.8340   15.5330 N.am   53  GLN53      -0.0878
    132  N         16.6220 -137.7280    6.3190 N.3   130  GLY130     -0.1210
    133  CA        15.9170 -138.4850    7.3460 C.3   130  GLY130      0.1956
    134  C         16.2730 -139.9600    7.3380 C.2   130  GLY130      0.2612
    135  O         17.0660 -140.4130    6.5120 O.2   130  GLY130     -0.2717
    136  N         15.6670 -140.7080    8.2580 N.am  131  SER131     -0.1952
    137  CA        15.9110 -142.1450    8.3990 C.3   131  SER131      0.1924
    138  C         15.5090 -142.9580    7.1690 C.2   131  SER131      0.2314
    139  O         16.0150 -144.0610    6.9680 O.2   131  SER131     -0.2863
    140  CB        15.1650 -142.6900    9.6190 C.3   131  SER131      0.2116
    141  OG        13.7630 -142.5210    9.4780 O.3   131  SER131     -0.2180
    142  N         10.2680 -146.1690   10.5020 N.3   170  TYR170     -0.1241
    143  CA        10.1360 -144.8810   11.1840 C.3   170  TYR170      0.1605
    144  C          9.6670 -143.7540   10.2560 C.2   170  TYR170      0.2264
    145  O          9.7700 -142.5790   10.6030 O.2   170  TYR170     -0.2867
    146  CB        11.4610 -144.5150   11.8620 C.3   170  TYR170      0.0534
    147  CG        11.9450 -145.5880   12.8150 C.ar  170  TYR170     -0.0201
    148  CD1       11.2090 -145.9140   13.9490 C.ar  170  TYR170     -0.0009
    149  CD2       13.1280 -146.2830   12.5800 C.ar  170  TYR170     -0.0009
    150  CE1       11.6370 -146.8970   14.8230 C.ar  170  TYR170      0.0417
    151  CE2       13.5640 -147.2700   13.4520 C.ar  170  TYR170      0.0417
    152  CZ        12.8130 -147.5720   14.5720 C.ar  170  TYR170      0.1957
    153  OH        13.2300 -148.5470   15.4490 O.3   170  TYR170     -0.2866
@<TRIPOS>BOND
     1   132   133    1
     2   135   134    2
     3   139   138    2
     4   138   137    1
     5   134   133    1
     6   134   136   am
     7    76    75    1
     8     4     3    2
     9    80    79    2
    10     3     2    1
    11    79    78    1
    12    75    74    1
    13    86    87    1
    14   136   137    1
    15     7     5    1
    16    81    78    1
    17    81    82    1
    18   137   140    1
    19    78    77    1
    20    77    70   am
    21    98    95    1
    22    89    88    2
    23     2     5    1
    24     2     1    1
    25    83    82    1
    26    83    84    1
    27    74    73    1
    28    87    88    1
    29    87    90    1
    30    88    94   am
    31     5     6    1
    32   141   140    1
    33    73    72    1
    34    64    63    2
    35    85    84    1
    36    94    95    1
    37    70    69    1
    38    70    71    2
    39    69    72    1
    40    69    68    1
    41     8     9    1
    42    18    16    1
    43    95    96    1
    44   144   145    2
    45   144   143    1
    46    90    91    1
    47    91    92    1
    48   142   143    1
    49    16    15    2
    50    16    17    1
    51    12     9    1
    52    12    13    1
    53    63    68   am
    54    63    62    1
    55    15    14    1
    56   143   146    1
    57     9    10    1
    58    96    97    2
    59    96    99   am
    60    93    92    1
    61    14    13    1
    62    61    62    1
    63   146   147    1
    64    11    10    2
    65    62    65    1
    66    99   100    1
    67    10    19   am
    68    66    65    1
    69   149   147   ar
    70   149   151   ar
    71   122   121    1
    72    65    67    1
    73   147   148   ar
    74   121   118    1
    75   100   101    1
    76   151   152   ar
    77    19    20    1
    78   120   119    2
    79    58    57    2
    80   148   150   ar
    81   118   119    1
    82   118   117    1
    83    57    56    1
    84   119   123   am
    85   152   150   ar
    86   152   153    1
    87   101   102    2
    88   101   103   am
    89    20    23    1
    90    20    21    1
    91    30    28    1
    92   123   124    1
    93    60    59    1
    94   124   125    1
    95   124   127    1
    96   126   125    2
    97   128   127    1
    98   128   129    1
    99   131   129   am
   100    21    22    2
   101    21    24   am
   102   103   104    1
   103    29    28    1
   104    56    59    1
   105    56    55    1
   106   106   105    2
   107    28    25    1
   108    24    25    1
   109   129   130    2
   110   110   109    2
   111   105   104    1
   112   105   107   am
   113    55    52   am
   114   108   107    1
   115   108   111    1
   116   108   109    1
   117    25    26    1
   118   109   112   am
   119    50    51    1
   120    52    53    2
   121    52    51    1
   122    26    27    2
   123    26    31   am
   124   115   114    2
   125    39    38    2
   126   112   113    1
   127   114   113    1
   128    38    37    1
   129    51    54    1
   130    31    32    1
   131   113   116    1
   132    36    37    1
   133    37    40    1
   134    32    33    1
   135    32    35    1
   136    33    34    2
   137    40    41    1
   138    41    42   ar
   139    41    43   ar
   140    46    43   ar
   141    46    48   ar
   142    42    44   ar
   143    43    45   ar
   144    48    49   ar
   145    44    45   ar
   146    45    47   ar
   147    49    47   ar
