@<TRIPOS>MOLECULE
tmp/4y77V00.pdb
 143 135 0 0 0
SMALL
GASTEIGER

@<TRIPOS>ATOM
      1  N          4.8670 -159.9980   43.5170 N.3     1  THR1       -0.1218
      2  CA         4.1580 -160.8720   44.5110 C.3     1  THR1        0.1862
      3  C          4.1640 -160.5630   46.0150 C.2     1  THR1        0.2287
      4  O          5.1390 -160.1490   46.5930 O.2     1  THR1       -0.2866
      5  CB         4.7410 -162.2480   44.4050 C.3     1  THR1        0.1770
      6  OG1        4.5610 -162.5970   43.1180 O.3     1  THR1       -0.2211
      7  CG2        4.0380 -163.3010   45.2390 C.3     1  THR1        0.0375
      8  N         -1.4720 -161.8750   41.0710 N.3    19  ARG19      -0.1231
      9  CA        -0.9940 -160.9920   40.0020 C.3    19  ARG19       0.1694
     10  C          0.3580 -161.4490   39.4590 C.2    19  ARG19       0.2593
     11  O          1.2700 -161.7570   40.2260 O.2    19  ARG19      -0.2718
     12  CB        -0.8750 -159.5490   40.4990 C.3    19  ARG19       0.0321
     13  CG        -0.2330 -158.6010   39.4900 C.3    19  ARG19       0.0489
     14  CD        -0.1880 -157.1700   39.9950 C.3    19  ARG19       0.2205
     15  NE        -1.5160 -156.5690   40.0730 N.pl3  19  ARG19      -0.0865
     16  CZ        -1.7580 -155.3130   40.4400 C.cat  19  ARG19       0.5346
     17  NH1       -0.7620 -154.4970   40.7700 N.pl3  19  ARG19       0.1354
     18  NH2       -3.0080 -154.8670   40.4790 N.pl3  19  ARG19       0.1354
     19  N          0.4800 -161.4680   38.1340 N.am   20  SER20      -0.1938
     20  CA         1.7500 -161.7290   37.4610 C.3    20  SER20       0.2055
     21  C          2.1000 -160.5060   36.6240 C.2    20  SER20       0.2644
     22  O          1.2550 -160.0090   35.8780 O.2    20  SER20      -0.2714
     23  CB         1.6340 -162.9620   36.5650 C.3    20  SER20       0.2130
     24  OG         2.9140 -163.4690   36.2260 O.3    20  SER20      -0.2179
     25  N          3.3340 -160.0190   36.7480 N.am   21  THR21      -0.1936
     26  CA         3.7420 -158.7860   36.0750 C.3    21  THR21       0.2028
     27  C          4.9170 -158.9760   35.1200 C.2    21  THR21       0.2642
     28  O          5.6820 -159.9350   35.2280 O.2    21  THR21      -0.2714
     29  CB         4.1390 -157.6880   37.0840 C.3    21  THR21       0.1808
     30  OG1        5.2920 -158.1050   37.8270 O.3    21  THR21      -0.2208
     31  CG2        2.9950 -157.3880   38.0410 C.3    21  THR21       0.0379
     32  N          5.0350 -158.0370   34.1860 N.am   22  GLN22      -0.1976
     33  CA         6.2040 -157.9060   33.3190 C.3    22  GLN22       0.1601
     34  C          6.5200 -156.4220   33.2100 C.2    22  GLN22       0.2287
     35  O          5.9220 -155.7030   32.4060 O.2    22  GLN22      -0.2864
     36  CB         5.9660 -158.5370   31.9410 C.3    22  GLN22       0.0394
     37  CG         4.5050 -158.7890   31.5870 C.3    22  GLN22       0.0908
     38  CD         4.2910 -159.4750   30.2370 C.2    22  GLN22       0.2608
     39  OE1        3.1860 -159.4400   29.6930 O.2    22  GLN22      -0.2717
     40  NE2        5.3310 -160.1110   29.6970 N.am   22  GLN22      -0.0878
     41  N          0.4610 -159.1330   33.2960 N.3    27  ALA27      -0.1231
     42  CA         0.3120 -160.1890   32.2920 C.3    27  ALA27       0.1694
     43  C         -0.8540 -161.1160   32.6150 C.2    27  ALA27       0.2592
     44  O         -1.6430 -161.4590   31.7330 O.2    27  ALA27      -0.2718
     45  CB         1.5930 -160.9960   32.1810 C.3    27  ALA27       0.0304
     46  N         -0.9480 -161.5240   33.8790 N.am   28  ASP28      -0.1974
     47  CA        -1.9860 -162.4480   34.3270 C.3    28  ASP28       0.1709
     48  C         -2.6350 -161.9130   35.6000 C.2    28  ASP28       0.2293
     49  O         -1.9560 -161.6760   36.6010 O.2    28  ASP28      -0.2864
     50  CB        -1.3820 -163.8350   34.5790 C.3    28  ASP28       0.1436
     51  CG        -2.4340 -164.9360   34.6760 C.2    28  ASP28       0.3671
     52  OD1       -2.0480 -166.1230   34.6070 O.co2  28  ASP28      -0.2456
     53  OD2       -3.6380 -164.6290   34.8200 O.co2  28  ASP28      -0.2456
     54  N         -3.2100 -165.7470   38.2130 N.3    31  CYS31      -0.1221
     55  CA        -2.2760 -166.8730   38.1700 C.3    31  CYS31       0.1808
     56  C         -2.2570 -167.5900   39.5200 C.2    31  CYS31       0.2601
     57  O         -2.6520 -167.0200   40.5380 O.2    31  CYS31      -0.2717
     58  CB        -0.8680 -166.4000   37.8020 C.3    31  CYS31       0.0970
     59  SG         0.0070 -165.5770   39.1480 S.3    31  CYS31      -0.0800
     60  N         -1.7940 -168.8380   39.5150 N.am   32  ALA32      -0.1965
     61  CA        -1.7610 -169.6690   40.7170 C.3    32  ALA32       0.1728
     62  C         -0.3440 -169.7410   41.2690 C.2    32  ALA32       0.2616
     63  O          0.5350 -170.3470   40.6550 O.2    32  ALA32      -0.2715
     64  CB        -2.2710 -171.0650   40.4020 C.3    32  ALA32       0.0334
     65  N         -0.1310 -169.1260   42.4290 N.am   33  LYS33      -0.1977
     66  CA         1.1880 -169.0950   43.0630 C.3    33  LYS33       0.1596
     67  C          1.3300 -170.1660   44.1450 C.2    33  LYS33       0.2287
     68  O          2.4100 -170.3390   44.7110 O.2    33  LYS33      -0.2864
     69  CB         1.4530 -167.7060   43.6450 C.3    33  LYS33       0.0298
     70  CG         1.1860 -166.5890   42.6490 C.3    33  LYS33       0.0038
     71  CD         1.6930 -165.2490   43.1440 C.3    33  LYS33       0.0206
     72  CE         1.2670 -164.1260   42.2140 C.3    33  LYS33       0.1093
     73  NZ         1.8510 -162.8200   42.6210 N.3    33  LYS33      -0.1314
     74  N          1.5540 -173.9920   44.9560 N.3    35  HIS35      -0.1241
     75  CA         1.9830 -175.1950   44.2490 C.3    35  HIS35       0.1621
     76  C          1.9100 -176.4170   45.1470 C.2    35  HIS35       0.2264
     77  O          2.1780 -176.3280   46.3430 O.2    35  HIS35      -0.2867
     78  CB         3.4230 -175.0330   43.7680 C.3    35  HIS35       0.0745
     79  CG         3.6560 -173.7970   42.9570 C.ar   35  HIS35       0.0817
     80  ND1        3.2660 -173.6870   41.6390 N.ar   35  HIS35      -0.2268
     81  CD2        4.2480 -172.6210   43.2740 C.ar   35  HIS35       0.1154
     82  CE1        3.6040 -172.4950   41.1810 C.ar   35  HIS35       0.1986
     83  NE2        4.2010 -171.8280   42.1530 N.ar   35  HIS35      -0.2212
     84  N          5.2270 -169.4340   46.0210 N.3    45  GLY45      -0.1210
     85  CA         6.4380 -168.9940   45.3260 C.3    45  GLY45       0.1956
     86  C          6.4120 -167.5620   44.8220 C.2    45  GLY45       0.2612
     87  O          5.4430 -167.1300   44.2000 O.2    45  GLY45      -0.2717
     88  N          7.4900 -166.8310   45.1020 N.am   46  ALA46      -0.1965
     89  CA         7.7050 -165.4890   44.5660 C.3    46  ALA46       0.1728
     90  C          9.0300 -165.4420   43.8090 C.2    46  ALA46       0.2617
     91  O          9.8630 -166.3390   43.9450 O.2    46  ALA46      -0.2715
     92  CB         7.7040 -164.4660   45.6900 C.3    46  ALA46       0.0334
     93  N          9.2190 -164.3910   43.0140 N.am   47  GLY47      -0.1940
     94  CA        10.4380 -164.2140   42.2210 C.3    47  GLY47       0.2014
     95  C         10.1990 -164.4720   40.7440 C.2    47  GLY47       0.2640
     96  O          9.1520 -164.1060   40.2090 O.2    47  GLY47      -0.2714
     97  N         11.1690 -165.1020   40.0850 N.am   48  THR48      -0.1936
     98  CA        11.0420 -165.4590   38.6700 C.3    48  THR48       0.2028
     99  C         10.0220 -166.5900   38.5170 C.2    48  THR48       0.2642
    100  O         10.2340 -167.6940   39.0130 O.2    48  THR48      -0.2714
    101  CB        12.3970 -165.8940   38.0760 C.3    48  THR48       0.1808
    102  OG1       13.3900 -164.9010   38.3640 O.3    48  THR48      -0.2208
    103  CG2       12.2990 -166.0820   36.5660 C.3    48  THR48       0.0379
    104  N          8.9240 -166.3020   37.8200 N.am   49  ALA49      -0.1963
    105  CA         7.7550 -167.1870   37.7800 C.3    49  ALA49       0.1728
    106  C          8.0610 -168.5950   37.2690 C.2    49  ALA49       0.2616
    107  O          7.6440 -169.5800   37.8770 O.2    49  ALA49      -0.2715
    108  CB         6.6490 -166.5560   36.9450 C.3    49  ALA49       0.0334
    109  N          8.7820 -168.6840   36.1560 N.am   50  ALA50      -0.1977
    110  CA         9.1320 -169.9800   35.5690 C.3    50  ALA50       0.1597
    111  C         10.0430 -170.7970   36.4820 C.2    50  ALA50       0.2287
    112  O          9.9590 -172.0270   36.5070 O.2    50  ALA50      -0.2864
    113  CB         9.7950 -169.7900   34.2170 C.3    50  ALA50       0.0319
    114  N         10.1130 -170.6620   39.8970 N.3    52  THR52      -0.1203
    115  CA         9.3260 -171.1750   41.0220 C.3    52  THR52       0.1994
    116  C          8.4990 -172.3860   40.6020 C.2    52  THR52       0.2617
    117  O          8.3980 -173.3530   41.3490 O.2    52  THR52      -0.2717
    118  CB         8.3780 -170.1130   41.6200 C.3    52  THR52       0.1784
    119  OG1        7.4550 -169.6630   40.6200 O.3    52  THR52      -0.2211
    120  CG2        9.1640 -168.9290   42.1740 C.3    52  THR52       0.0376
    121  N          7.9220 -172.3260   39.4030 N.am   53  GLU53      -0.1979
    122  CA         7.1200 -173.4260   38.8660 C.3    53  GLU53       0.1602
    123  C          7.9790 -174.6530   38.5530 C.2    53  GLU53       0.2287
    124  O          7.6080 -175.7760   38.8910 O.2    53  GLU53      -0.2864
    125  CB         6.3750 -172.9740   37.6020 C.3    53  GLU53       0.0415
    126  CG         5.4150 -174.0070   37.0200 C.3    53  GLU53       0.1163
    127  CD         4.1800 -174.2240   37.8790 C.2    53  GLU53       0.3649
    128  OE1        3.4050 -173.2610   38.0600 O.co2  53  GLU53      -0.2457
    129  OE2        3.9730 -175.3590   38.3630 O.co2  53  GLU53      -0.2457
    130  N          8.3150 -161.9500   48.9450 N.3   128  GLY128     -0.1210
    131  CA         7.9110 -161.2110   47.7510 C.3   128  GLY128      0.1956
    132  C          7.9520 -159.7030   47.9300 C.2   128  GLY128      0.2612
    133  O          8.3070 -159.2030   48.9970 O.2   128  GLY128     -0.2717
    134  N          7.5790 -158.9800   46.8770 N.am  129  SER129     -0.1952
    135  CA         7.6320 -157.5160   46.8760 C.3   129  SER129      0.1924
    136  C          6.6650 -156.8830   47.8750 C.2   129  SER129      0.2314
    137  O          6.9280 -155.7990   48.3920 O.2   129  SER129     -0.2863
    138  CB         7.3560 -156.9700   45.4710 C.3   129  SER129      0.2116
    139  OG         6.0640 -157.3380   45.0210 O.3   129  SER129     -0.2180
    140  N          3.2150 -154.4670   42.9860 N.3   168  GLY168     -0.1225
    141  CA         3.5670 -155.8000   42.5040 C.3   168  GLY168      0.1811
    142  C          2.5050 -156.8560   42.7680 C.2   168  GLY168      0.2280
    143  O          2.5300 -157.9210   42.1570 O.2   168  GLY168     -0.2866
@<TRIPOS>BOND
     1    39    38    2
     2    40    38   am
     3    38    37    1
     4    37    36    1
     5    44    43    2
     6    36    33    1
     7    45    42    1
     8    42    43    1
     9    42    41    1
    10    35    34    2
    11    43    46   am
    12    34    33    1
    13    33    32    1
    14    46    47    1
    15    32    27   am
    16   113   110    1
    17    47    50    1
    18    47    48    1
    19    50    51    1
    20    52    51   ar
    21    51    53   ar
    22    27    28    2
    23    27    26    1
    24   110   109    1
    25   110   111    1
    26    48    49    2
    27    22    21    2
    28    26    25    1
    29    26    29    1
    30   109   106   am
    31    24    23    1
    32   111   112    2
    33    23    20    1
    34   103   101    1
    35    21    25   am
    36    21    20    1
    37   108   105    1
    38   126   125    1
    39   126   127    1
    40    29    30    1
    41    29    31    1
    42   106   105    1
    43   106   107    2
    44    20    19    1
    45   125   122    1
    46   105   104    1
    47    58    55    1
    48    58    59    1
    49   104    99   am
    50   127   128   ar
    51   127   129   ar
    52   101   102    1
    53   101    98    1
    54    19    10   am
    55    55    54    1
    56    55    56    1
    57    99    98    1
    58    99   100    2
    59   123   122    1
    60   123   124    2
    61    98    97    1
    62   122   121    1
    63   121   116   am
    64    10     9    1
    65    10    11    2
    66    13    14    1
    67    13    12    1
    68    60    56   am
    69    60    61    1
    70    56    57    2
    71   114   115    1
    72    14    15    1
    73     9    12    1
    74     9     8    1
    75    15    16    2
    76    97    95   am
    77    96    95    2
    78    64    61    1
    79    16    18    1
    80    16    17    1
    81   116   115    1
    82   116   117    2
    83   119   118    1
    84    63    62    2
    85    61    62    1
    86    95    94    1
    87   115   118    1
    88    82    80   ar
    89    82    83   ar
    90    62    65   am
    91   118   120    1
    92    80    79   ar
    93    83    81   ar
    94   143   142    2
    95    72    73    1
    96    72    71    1
    97    94    93    1
    98    65    66    1
    99   141   142    1
   100   141   140    1
   101    70    71    1
   102    70    69    1
   103    79    81   ar
   104    79    78    1
   105    93    90   am
   106    66    69    1
   107    66    67    1
   108     6     5    1
   109     1     2    1
   110    78    75    1
   111    90    91    2
   112    90    89    1
   113    67    68    2
   114    87    86    2
   115    75    74    1
   116    75    76    1
   117     5     2    1
   118     5     7    1
   119     2     3    1
   120    89    88    1
   121    89    92    1
   122    86    88   am
   123    86    85    1
   124   139   138    1
   125    76    77    2
   126    85    84    1
   127   138   135    1
   128     3     4    2
   129   135   134    1
   130   135   136    1
   131   134   132   am
   132   131   132    1
   133   131   130    1
   134   136   137    2
   135   132   133    2
