@<TRIPOS>MOLECULE
tmp/4y78N00.pdb
 128 119 0 0 0
SMALL
GASTEIGER

@<TRIPOS>ATOM
      1  N         44.6110 -142.6300   62.8640 N.3     1  THR1       -0.1218
      2  CA        44.3060 -142.0460   64.2200 C.3     1  THR1        0.1862
      3  C         43.2790 -142.6280   65.2370 C.2     1  THR1        0.2287
      4  O         42.1930 -143.0300   64.8710 O.2     1  THR1       -0.2866
      5  CB        43.9050 -140.6150   64.0440 C.3     1  THR1        0.1770
      6  OG1       44.9150 -140.0870   63.2560 O.3     1  THR1       -0.2211
      7  CG2       43.8770 -139.8450   65.3420 C.3     1  THR1        0.0375
      8  N         50.6650 -140.9650   65.6760 N.3    19  ARG19      -0.1231
      9  CA        51.0940 -141.6260   64.4600 C.3    19  ARG19       0.1694
     10  C         50.4940 -141.0610   63.1960 C.2    19  ARG19       0.2593
     11  O         49.3150 -140.8590   63.1250 O.2    19  ARG19      -0.2718
     12  CB        50.7700 -143.1010   64.5530 C.3    19  ARG19       0.0321
     13  CG        50.9820 -143.8690   63.2810 C.3    19  ARG19       0.0489
     14  CD        50.7920 -145.3370   63.4990 C.3    19  ARG19       0.2205
     15  NE        51.7920 -145.8630   64.3900 N.pl3  19  ARG19      -0.0865
     16  CZ        52.0260 -147.1430   64.5370 C.cat  19  ARG19       0.5346
     17  NH1       51.3210 -148.0010   63.8570 N.pl3  19  ARG19       0.1354
     18  NH2       52.9500 -147.5540   65.3650 N.pl3  19  ARG19       0.1354
     19  N         51.3260 -140.8200   62.1970 N.am   20  THR20      -0.1939
     20  CA        50.8640 -140.3980   60.8890 C.3    20  THR20       0.2028
     21  C         51.3950 -141.3220   59.8150 C.2    20  THR20       0.2643
     22  O         52.5320 -141.6950   59.8490 O.2    20  THR20      -0.2714
     23  CB        51.2870 -138.9670   60.5820 C.3    20  THR20       0.1808
     24  OG1       51.1110 -138.1740   61.7420 O.3    20  THR20      -0.2208
     25  CG2       50.4430 -138.3950   59.5210 C.3    20  THR20       0.0379
     26  N         50.5570 -141.6880   58.8590 N.am   21  THR21      -0.1936
     27  CA        50.9250 -142.6750   57.8620 C.3    21  THR21       0.2028
     28  C         50.6870 -142.2840   56.4270 C.2    21  THR21       0.2642
     29  O         49.8330 -141.4920   56.1460 O.2    21  THR21      -0.2714
     30  CB        50.1630 -143.9700   58.1050 C.3    21  THR21       0.1808
     31  OG1       48.7850 -143.6820   58.2910 O.3    21  THR21      -0.2208
     32  CG2       50.6460 -144.6110   59.3420 C.3    21  THR21       0.0379
     33  N         51.4650 -142.8640   55.5210 N.am   22  THR22      -0.1950
     34  CA        51.1430 -142.9260   54.1000 C.3    22  THR22       0.1897
     35  C         51.1850 -144.3640   53.7210 C.2    22  THR22       0.2313
     36  O         52.2250 -144.9030   53.4600 O.2    22  THR22      -0.2863
     37  CB        52.1360 -142.2140   53.2030 C.3    22  THR22       0.1794
     38  OG1       53.1620 -141.6510   53.9920 O.3    22  THR22      -0.2208
     39  CG2       51.4610 -141.1330   52.4620 C.3    22  THR22       0.0378
     40  N         54.9920 -142.0930   58.6600 N.3    27  ALA27      -0.1231
     41  CA        55.7020 -140.8740   58.2590 C.3    27  ALA27       0.1694
     42  C         56.1270 -140.0070   59.4450 C.2    27  ALA27       0.2592
     43  O         57.0630 -139.2160   59.3350 O.2    27  ALA27      -0.2718
     44  CB        54.8410 -140.0600   57.3050 C.3    27  ALA27       0.0304
     45  N         55.4220 -140.1430   60.5640 N.am   28  ASN28      -0.1974
     46  CA        55.7790 -139.4560   61.8020 C.3    28  ASN28       0.1688
     47  C         55.2660 -140.2670   62.9910 C.2    28  ASN28       0.2292
     48  O         54.0650 -140.5290   63.0890 O.2    28  ASN28      -0.2864
     49  CB        55.1850 -138.0430   61.8150 C.3    28  ASN28       0.1181
     50  CG        55.6860 -137.1950   62.9760 C.2    28  ASN28       0.2629
     51  OD1       56.5220 -137.6250   63.7750 O.2    28  ASN28      -0.2716
     52  ND2       55.1730 -135.9740   63.0710 N.am   28  ASN28      -0.0877
     53  N         53.8920 -137.3850   66.2440 N.3    31  THR31      -0.1218
     54  CA        52.9690 -136.3190   65.8400 C.3    31  THR31       0.1862
     55  C         52.2240 -135.7190   67.0350 C.2    31  THR31       0.2287
     56  O         51.9990 -136.4020   68.0390 O.2    31  THR31      -0.2866
     57  CB        51.9180 -136.8500   64.8440 C.3    31  THR31       0.1770
     58  OG1       52.5380 -137.7630   63.9320 O.3    31  THR31      -0.2211
     59  CG2       51.2870 -135.7190   64.0550 C.3    31  THR31       0.0375
     60  N         48.6570 -134.2810   67.6120 N.3    33  LYS33      -0.1245
     61  CA        47.3130 -134.1460   67.0470 C.3    33  LYS33       0.1561
     62  C         46.3890 -133.2980   67.9270 C.2    33  LYS33       0.2260
     63  O         45.2230 -133.0900   67.5840 O.2    33  LYS33      -0.2867
     64  CB        46.7020 -135.5320   66.8330 C.3    33  LYS33       0.0271
     65  CG        47.5560 -136.4450   65.9660 C.3    33  LYS33       0.0035
     66  CD        46.9960 -137.8540   65.9130 C.3    33  LYS33       0.0206
     67  CE        47.9230 -138.7810   65.1440 C.3    33  LYS33       0.1093
     68  NZ        47.2830 -140.0930   64.8550 N.3    33  LYS33      -0.1314
     69  N         42.5610 -133.7550   66.1390 N.3    45  ARG45      -0.1231
     70  CA        42.4760 -133.8780   64.6880 C.3    45  ARG45       0.1694
     71  C         42.5500 -135.3220   64.2220 C.2    45  ARG45       0.2593
     72  O         43.3830 -136.0950   64.6970 O.2    45  ARG45      -0.2718
     73  CB        43.6040 -133.0960   64.0210 C.3    45  ARG45       0.0321
     74  CG        43.6810 -131.6440   64.4380 C.3    45  ARG45       0.0489
     75  CD        44.7270 -130.9060   63.6250 C.3    45  ARG45       0.2205
     76  NE        46.0740 -131.2380   64.0800 N.pl3  45  ARG45      -0.0865
     77  CZ        46.9680 -131.9620   63.4080 C.cat  45  ARG45       0.5346
     78  NH1       46.7010 -132.4690   62.2080 N.pl3  45  ARG45       0.1354
     79  NH2       48.1580 -132.1800   63.9550 N.pl3  45  ARG45       0.1354
     80  N         41.6780 -135.6660   63.2770 N.am   46  SER46      -0.1938
     81  CA        41.7230 -136.9550   62.5940 C.3    46  SER46       0.2055
     82  C         41.3220 -136.7660   61.1390 C.2    46  SER46       0.2644
     83  O         40.6400 -135.7950   60.7940 O.2    46  SER46      -0.2714
     84  CB        40.8000 -137.9760   63.2700 C.3    46  SER46       0.2130
     85  OG        39.4330 -137.7430   62.9650 O.3    46  SER46      -0.2179
     86  N         41.7400 -137.7090   60.3010 N.am   47  GLY47      -0.1939
     87  CA        41.5490 -137.6160   58.8570 C.3    47  GLY47       0.2014
     88  C         42.8130 -137.1110   58.1890 C.2    47  GLY47       0.2640
     89  O         43.9210 -137.4080   58.6350 O.2    47  GLY47      -0.2714
     90  N         42.6460 -136.3390   57.1220 N.am   48  SER48      -0.1935
     91  CA        43.7800 -135.8020   56.3710 C.3    48  SER48       0.2055
     92  C         44.5730 -134.7910   57.2030 C.2    48  SER48       0.2643
     93  O         44.0090 -133.8300   57.7320 O.2    48  SER48      -0.2714
     94  CB        43.2950 -135.1490   55.0740 C.3    48  SER48       0.2130
     95  OG        44.2710 -134.2690   54.5430 O.3    48  SER48      -0.2179
     96  N         45.8820 -135.0180   57.3100 N.am   49  ALA49      -0.1963
     97  CA        46.7790 -134.1260   58.0530 C.3    49  ALA49       0.1728
     98  C         46.7710 -132.7140   57.4730 C.2    49  ALA49       0.2616
     99  O         46.7560 -131.7350   58.2150 O.2    49  ALA49      -0.2715
    100  CB        48.1960 -134.6790   58.0490 C.3    49  ALA49       0.0334
    101  N         46.7790 -132.6190   56.1470 N.am   50  ALA50      -0.1977
    102  CA        46.7680 -131.3260   55.4680 C.3    50  ALA50       0.1597
    103  C         45.4520 -130.5790   55.6970 C.2    50  ALA50       0.2287
    104  O         45.4550 -129.3900   56.0110 O.2    50  ALA50      -0.2864
    105  CB        47.0210 -131.5100   53.9820 C.3    50  ALA50       0.0319
    106  N         43.1320 -131.0060   58.1510 N.3    52  THR52      -0.1218
    107  CA        42.9080 -130.6410   59.5540 C.3    52  THR52       0.1862
    108  C         43.8260 -129.5200   60.0340 C.2    52  THR52       0.2287
    109  O         43.4280 -128.7110   60.8720 O.2    52  THR52      -0.2866
    110  CB        43.0500 -131.8450   60.5030 C.3    52  THR52       0.1770
    111  OG1       44.3270 -132.4720   60.3140 O.3    52  THR52      -0.2211
    112  CG2       41.9370 -132.8500   60.2560 C.3    52  THR52       0.0375
    113  N         38.3420 -141.1080   64.9580 N.3   128  GLY128     -0.1210
    114  CA        39.4970 -141.6760   64.2740 C.3   128  GLY128      0.1956
    115  C         39.3140 -143.1650   64.0410 C.2   128  GLY128      0.2612
    116  O         38.4450 -143.7920   64.6500 O.2   128  GLY128     -0.2717
    117  N         40.1420 -143.7300   63.1630 N.am  129  SER129     -0.1952
    118  CA        40.0440 -145.1420   62.7820 C.3   129  SER129      0.1924
    119  C         40.0550 -146.0960   63.9780 C.2   129  SER129      0.2314
    120  O         39.3360 -147.0940   63.9830 O.2   129  SER129     -0.2863
    121  CB        41.1780 -145.5110   61.8200 C.3   129  SER129      0.2116
    122  OG        42.4460 -145.2120   62.3760 O.3   129  SER129     -0.2180
    123  N         46.8480 -148.1990   62.3140 N.3   168  SER168     -0.1217
    124  CA        47.0180 -146.7860   61.9920 C.3   168  SER168      0.1889
    125  C         47.2820 -145.9160   63.2230 C.2   168  SER168      0.2288
    126  O         47.5620 -144.7300   63.0870 O.2   168  SER168     -0.2866
    127  CB        45.7860 -146.2670   61.2550 C.3   168  SER168      0.2089
    128  OG        45.4650 -147.1150   60.1660 O.3   168  SER168     -0.2183
@<TRIPOS>BOND
     1    39    37    1
     2    37    38    1
     3    37    34    1
     4    36    35    2
     5    35    34    1
     6   105   102    1
     7    34    33    1
     8    95    94    1
     9    94    91    1
    10   102   103    1
    11   102   101    1
    12    33    28   am
    13   103   104    2
    14    29    28    2
    15   101    98   am
    16    91    90    1
    17    91    92    1
    18    28    27    1
    19    90    88   am
    20    92    96   am
    21    92    93    2
    22    44    41    1
    23    96    97    1
    24    98    97    1
    25    98    99    2
    26    27    30    1
    27    27    26    1
    28   100    97    1
    29    30    31    1
    30    30    32    1
    31   106   107    1
    32    88    89    2
    33    88    87    1
    34    41    40    1
    35    41    42    1
    36    87    86    1
    37    26    21   am
    38    43    42    2
    39    42    45   am
    40    25    23    1
    41   107   108    1
    42   107   110    1
    43    21    22    2
    44    21    20    1
    45   108   109    2
    46   128   127    1
    47   112   110    1
    48    86    82   am
    49   111   110    1
    50    45    46    1
    51    23    20    1
    52    23    24    1
    53    83    82    2
    54    20    19    1
    55    82    81    1
    56   127   124    1
    57    46    49    1
    58    46    47    1
    59    49    50    1
    60   121   122    1
    61   121   118    1
    62   124   123    1
    63   124   125    1
    64    19    10   am
    65    78    77    1
    66    81    84    1
    67    81    80    1
    68   118   117    1
    69   118   119    1
    70     1     2    1
    71    85    84    1
    72    50    52   am
    73    50    51    2
    74    47    48    2
    75   126   125    2
    76    11    10    2
    77   117   115   am
    78    10     9    1
    79     6     5    1
    80    80    71   am
    81    13    14    1
    82    13    12    1
    83    77    79    1
    84    77    76    2
    85    14    15    1
    86    75    76    1
    87    75    74    1
    88    17    16    1
    89    58    57    1
    90   119   120    2
    91    73    74    1
    92    73    70    1
    93   115   114    1
    94   115   116    2
    95     5     2    1
    96     5     7    1
    97    59    57    1
    98     2     3    1
    99    71    70    1
   100    71    72    2
   101   114   113    1
   102    15    16    2
   103     9    12    1
   104     9     8    1
   105    16    18    1
   106    70    69    1
   107    57    54    1
   108    68    67    1
   109     4     3    2
   110    67    66    1
   111    54    53    1
   112    54    55    1
   113    66    65    1
   114    65    64    1
   115    64    61    1
   116    55    56    2
   117    61    60    1
   118    61    62    1
   119    63    62    2
