@<TRIPOS>MOLECULE
tmp/4y79A00.pdb
 165 164 0 0 0
SMALL
GASTEIGER

@<TRIPOS>ATOM
      1  N         12.1500    4.0760    9.9280 N.3    82  LYS82      -0.1231
      2  CA        10.9850    4.3490   10.7910 C.3    82  LYS82       0.1693
      3  C         10.3310    3.1110   11.3760 C.2    82  LYS82       0.2592
      4  O          9.6030    3.2060   12.3620 O.2    82  LYS82      -0.2718
      5  CB         9.9070    5.1680   10.0640 C.3    82  LYS82       0.0285
      6  CG        10.2210    6.6450    9.9180 C.3    82  LYS82       0.0035
      7  CD         9.0180    7.4150    9.3940 C.3    82  LYS82       0.0206
      8  CE         9.2680    8.9100    9.4730 C.3    82  LYS82       0.1093
      9  NZ         8.0840    9.7030    9.0420 N.3    82  LYS82      -0.1314
     10  N         10.5890    1.9550   10.7730 N.am   83  GLU83      -0.1966
     11  CA         9.9910    0.7020   11.2340 C.3    83  GLU83       0.1733
     12  C         10.4520    0.3330   12.6390 C.2    83  GLU83       0.2617
     13  O          9.6470   -0.0470   13.4830 O.2    83  GLU83      -0.2715
     14  CB        10.3110   -0.4580   10.2660 C.3    83  GLU83       0.0429
     15  CG        10.0670   -0.1590    8.7900 C.3    83  GLU83       0.1163
     16  CD         8.6600    0.3450    8.5080 C.2    83  GLU83       0.3649
     17  OE1        7.7030   -0.1520    9.1490 O.co2  83  GLU83      -0.2457
     18  OE2        8.5100    1.2360    7.6390 O.co2  83  GLU83      -0.2457
     19  N         11.7540    0.4570   12.8810 N.am   84  THR84      -0.1937
     20  CA        12.3430    0.0140   14.1440 C.3    84  THR84       0.2028
     21  C         13.0350    1.1320   14.9330 C.2    84  THR84       0.2642
     22  O         13.3400    0.9580   16.1160 O.2    84  THR84      -0.2714
     23  CB        13.3740   -1.1000   13.8770 C.3    84  THR84       0.1808
     24  OG1       14.4250   -0.5940   13.0390 O.3    84  THR84      -0.2208
     25  CG2       12.7150   -2.3200   13.1840 C.3    84  THR84       0.0379
     26  N         13.2620    2.2700   14.2700 N.am   85  TYR85      -0.1973
     27  CA        14.0280    3.3990   14.8230 C.3    85  TYR85       0.1639
     28  C         15.5180    3.0560   14.9240 C.2    85  TYR85       0.2290
     29  O         16.2490    3.6360   15.7230 O.2    85  TYR85      -0.2864
     30  CB        13.4580    3.8900   16.1580 C.3    85  TYR85       0.0560
     31  CG        12.3350    4.9190   16.0630 C.ar   85  TYR85      -0.0198
     32  CD1       11.4810    4.9690   14.9560 C.ar   85  TYR85      -0.0009
     33  CD2       12.0900    5.8000   17.1230 C.ar   85  TYR85      -0.0009
     34  CE1       10.4430    5.8950   14.8870 C.ar   85  TYR85       0.0417
     35  CE2       11.0530    6.7240   17.0700 C.ar   85  TYR85       0.0417
     36  CZ        10.2320    6.7660   15.9500 C.ar   85  TYR85       0.1957
     37  OH         9.2050    7.6800   15.8910 O.3    85  TYR85      -0.2866
     38  N          2.7950   10.6740   31.0000 N.3   135  GLU135     -0.1245
     39  CA         2.3590   10.1140   29.7040 C.3   135  GLU135      0.1567
     40  C          1.2850   10.9040   28.9260 C.2   135  GLU135      0.2260
     41  O          1.3760   11.0410   27.6980 O.2   135  GLU135     -0.2867
     42  CB         1.9550    8.6370   29.8530 C.3   135  GLU135      0.0388
     43  CG         1.8010    7.9080   28.5240 C.3   135  GLU135      0.1160
     44  CD         1.6420    6.4050   28.6710 C.2   135  GLU135      0.3649
     45  OE1        1.8460    5.8720   29.7880 O.co2 135  GLU135     -0.2457
     46  OE2        1.3310    5.7500   27.6510 O.co2 135  GLU135     -0.2457
     47  N          9.1860   -4.6220   20.9810 N.3   162  PHE162     -0.1241
     48  CA         9.7870   -4.1750   19.7320 C.3   162  PHE162      0.1605
     49  C         11.2720   -4.5050   19.7980 C.2   162  PHE162      0.2264
     50  O         11.8510   -4.5590   20.8840 O.2   162  PHE162     -0.2867
     51  CB         9.5630   -2.6650   19.5200 C.3   162  PHE162      0.0534
     52  CG         8.1110   -2.2440   19.5500 C.ar  162  PHE162     -0.0203
     53  CD1        7.4410   -2.0690   20.7670 C.ar  162  PHE162     -0.0042
     54  CD2        7.4200   -1.9880   18.3670 C.ar  162  PHE162     -0.0042
     55  CE1        6.1070   -1.6750   20.8050 C.ar  162  PHE162     -0.0003
     56  CE2        6.0840   -1.5910   18.3950 C.ar  162  PHE162     -0.0003
     57  CZ         5.4280   -1.4310   19.6160 C.ar  162  PHE162     -0.0000
     58  N         11.0100    8.6570   34.1910 N.3   179  ASP179     -0.1225
     59  CA        11.3430    8.3340   32.8030 C.3   179  ASP179      0.1805
     60  C         11.3740    9.6190   31.9630 C.2   179  ASP179      0.2598
     61  O         11.0140   10.7070   32.4390 O.2   179  ASP179     -0.2718
     62  CB        10.2770    7.3740   32.2360 C.3   179  ASP179      0.1424
     63  CG        10.7270    6.6240   30.9790 C.2   179  ASP179      0.3668
     64  OD1       11.9260    6.6430   30.6070 O.co2 179  ASP179     -0.2456
     65  OD2        9.8630    5.9750   30.3570 O.co2 179  ASP179     -0.2456
     66  N         11.8540    9.4900   30.7310 N.am  180  ALA180     -0.1966
     67  CA        11.8030   10.5650   29.7610 C.3   180  ALA180      0.1728
     68  C         10.4350   10.3700   29.1030 C.2   180  ALA180      0.2616
     69  O          9.7740    9.3560   29.3550 O.2   180  ALA180     -0.2715
     70  CB        12.9280   10.4300   28.7430 C.3   180  ALA180      0.0334
     71  N         10.0020   11.3170   28.2720 N.am  181  CYS181     -0.1954
     72  CA         8.6780   11.2000   27.6310 C.3   181  CYS181      0.1843
     73  C          8.6190   11.9560   26.3000 C.2   181  CYS181      0.2625
     74  O          9.6510   12.4470   25.8170 O.2   181  CYS181     -0.2714
     75  CB         7.5910   11.6800   28.6160 C.3   181  CYS181      0.0997
     76  SG         5.9030   11.1130   28.2910 S.3   181  CYS181     -0.0797
     77  N          7.4300   12.0450   25.6920 N.am  182  GLN182     -0.1977
     78  CA         7.2870   12.7720   24.4260 C.3   182  GLN182      0.1601
     79  C          7.7610   14.2070   24.6060 C.2   182  GLN182      0.2287
     80  O          7.5030   14.8280   25.6400 O.2   182  GLN182     -0.2864
     81  CB         5.8450   12.7480   23.8990 C.3   182  GLN182      0.0394
     82  CG         5.7260   13.1900   22.4440 C.3   182  GLN182      0.0908
     83  CD         4.4130   12.7880   21.7910 C.2   182  GLN182      0.2608
     84  OE1        3.3660   12.7470   22.4360 O.2   182  GLN182     -0.2717
     85  NE2        4.4660   12.4990   20.4950 N.am  182  GLN182     -0.0878
     86  N         12.5720   13.5220   23.1450 N.3   185  SER185     -0.1217
     87  CA        13.2790   12.8110   22.0610 C.3   185  SER185      0.1889
     88  C         14.3120   13.7100   21.4130 C.2   185  SER185      0.2288
     89  O         14.0650   14.9010   21.2710 O.2   185  SER185     -0.2866
     90  CB        12.3080   12.3140   20.9790 C.3   185  SER185      0.2089
     91  OG        11.3660   11.4000   21.5070 O.3   185  SER185     -0.2183
     92  N         17.9490   10.4860   23.4710 N.3   203  VAL203     -0.1231
     93  CA        16.5770   10.0820   23.8340 C.3   203  VAL203      0.1692
     94  C         15.8570    9.5850   22.5560 C.2   203  VAL203      0.2593
     95  O         15.7130   10.3420   21.5790 O.2   203  VAL203     -0.2718
     96  CB        15.8150   11.2380   24.5170 C.3   203  VAL203      0.0266
     97  CG1       14.3680   10.8460   24.8350 C.3   203  VAL203      0.0020
     98  CG2       16.5240   11.6650   25.7970 C.3   203  VAL203      0.0020
     99  N         15.4390    8.3130   22.5380 N.am  204  SER204     -0.1938
    100  CA        14.9190    7.7430   21.2740 C.3   204  SER204      0.2055
    101  C         13.4490    7.3200   21.2770 C.2   204  SER204      0.2643
    102  O         12.6480    7.8590   20.4980 O.2   204  SER204     -0.2714
    103  CB        15.8170    6.5850   20.7900 C.3   204  SER204      0.2130
    104  OG        15.5110    6.1900   19.4640 O.3   204  SER204     -0.2179
    105  N         13.0990    6.3480   22.1230 N.am  205  TRP205     -0.1959
    106  CA        11.7170    5.8480   22.1610 C.3   205  TRP205      0.1771
    107  C         11.3810    5.0590   23.4000 C.2   205  TRP205      0.2620
    108  O         12.2450    4.8020   24.2420 O.2   205  TRP205     -0.2715
    109  CB        11.3820    5.0590   20.8920 C.3   205  TRP205      0.0590
    110  CG        12.1570    3.7640   20.6670 C.ar  205  TRP205      0.0006
    111  CD1       13.3210    3.5940   19.9200 C.ar  205  TRP205      0.0946
    112  CD2       11.8090    2.4090   21.1380 C.ar  205  TRP205      0.0152
    113  NE1       13.7050    2.2790   19.9010 N.ar  205  TRP205     -0.2442
    114  CE2       12.8440    1.5140   20.6120 C.ar  205  TRP205      0.0810
    115  CE3       10.7750    1.8680   21.9080 C.ar  205  TRP205      0.0012
    116  CZ2       12.8370    0.1380   20.8690 C.ar  205  TRP205      0.0191
    117  CZ3       10.7840    0.4830   22.1690 C.ar  205  TRP205      0.0001
    118  CH2       11.7890   -0.3590   21.6560 C.ar  205  TRP205      0.0015
    119  N         10.1070    4.6950   23.5360 N.am  206  GLY206     -0.1940
    120  CA         9.6330    3.9210   24.6830 C.3   206  GLY206      0.2014
    121  C          8.1760    3.5570   24.4890 C.2   206  GLY206      0.2639
    122  O          7.4750    4.2280   23.7430 O.2   206  GLY206     -0.2714
    123  N          7.7310    2.4750   25.1210 N.am  207  GLU207     -0.1963
    124  CA         6.3220    2.0640   25.0420 C.3   207  GLU207      0.1733
    125  C          5.5740    2.8860   26.0890 C.2   207  GLU207      0.2617
    126  O          5.3720    2.4390   27.2170 O.2   207  GLU207     -0.2715
    127  CB         6.1740    0.5590   25.2940 C.3   207  GLU207      0.0429
    128  CG         6.9090   -0.3160   24.2860 C.3   207  GLU207      0.1163
    129  CD         6.7980   -1.8100   24.5790 C.2   207  GLU207      0.3649
    130  OE1        5.6710   -2.3050   24.8330 O.co2 207  GLU207     -0.2457
    131  OE2        7.8440   -2.4980   24.5340 O.co2 207  GLU207     -0.2457
    132  N          5.1980    4.1150   25.7250 N.am  208  GLY208     -0.1940
    133  CA         4.5900    5.0320   26.7030 C.3   208  GLY208      0.2014
    134  C          5.6700    5.7340   27.5100 C.2   208  GLY208      0.2639
    135  O          6.7910    5.9070   27.0370 O.2   208  GLY208     -0.2714
    136  N          5.3470    6.1450   28.7290 N.am  209  CYS209     -0.1967
    137  CA         6.3100    6.8260   29.5690 C.3   209  CYS209      0.1712
    138  C          6.1720    6.3080   30.9910 C.2   209  CYS209      0.2296
    139  O          5.0820    6.3530   31.5620 O.2   209  CYS209     -0.2864
    140  CB         6.0760    8.3510   29.5410 C.3   209  CYS209      0.0983
    141  SG         6.0770    9.1100   27.9010 S.3   209  CYS209     -0.0798
    142  N         13.2300    3.1290   29.1460 N.3   216  GLY216     -0.1210
    143  CA        13.4730    4.1200   28.0840 C.3   216  GLY216      0.1956
    144  C         14.5500    3.5990   27.1380 C.2   216  GLY216      0.2612
    145  O         15.5570    3.0310   27.5870 O.2   216  GLY216     -0.2717
    146  N         14.3360    3.7440   25.8360 N.am  217  ILE217     -0.1965
    147  CA        15.3270    3.2790   24.8890 C.3   217  ILE217      0.1727
    148  C         16.0740    4.4720   24.2610 C.2   217  ILE217      0.2616
    149  O         15.4390    5.4250   23.7800 O.2   217  ILE217     -0.2715
    150  CB        14.7420    2.3510   23.7900 C.3   217  ILE217      0.0290
    151  CG1       13.6620    1.3670   24.3460 C.3   217  ILE217      0.0022
    152  CG2       15.8680    1.6170   23.0770 C.3   217  ILE217      0.0023
    153  CD1       14.1260    0.3930   25.4050 C.3   217  ILE217      0.0001
    154  N         17.4100    4.3610   24.2270 N.am  218  TYR218     -0.1974
    155  CA        18.3170    5.4250   23.7640 C.3   218  TYR218      0.1639
    156  C         19.2180    4.9830   22.6110 C.2   218  TYR218      0.2290
    157  O         19.6620    3.8420   22.5710 O.2   218  TYR218     -0.2864
    158  CB        19.2170    5.8640   24.9360 C.3   218  TYR218      0.0560
    159  CG        18.4530    6.4290   26.1140 C.ar  218  TYR218     -0.0198
    160  CD1       17.7770    5.5810   27.0120 C.ar  218  TYR218     -0.0009
    161  CD2       18.3810    7.8050   26.3250 C.ar  218  TYR218     -0.0009
    162  CE1       17.0430    6.0950   28.0750 C.ar  218  TYR218      0.0417
    163  CE2       17.6620    8.3280   27.3910 C.ar  218  TYR218      0.0417
    164  CZ        16.9900    7.4700   28.2650 C.ar  218  TYR218      0.1957
    165  OH        16.2670    7.9830   29.3310 O.3   218  TYR218     -0.2866
@<TRIPOS>BOND
     1    18    16   ar
     2    16    15    1
     3    16    17   ar
     4    15    14    1
     5     9     8    1
     6     7     8    1
     7     7     6    1
     8     6     5    1
     9     1     2    1
    10     5     2    1
    11    14    11    1
    12    10    11    1
    13    10     3   am
    14     2     3    1
    15    11    12    1
    16     3     4    2
    17    12    19   am
    18    12    13    2
    19    19    20    1
    20    24    23    1
    21    25    23    1
    22    23    20    1
    23    20    21    1
    24    26    27    1
    25    26    21   am
    26    27    28    1
    27    27    30    1
    28    34    32   ar
    29    34    36   ar
    30    28    29    2
    31    21    22    2
    32    32    31   ar
    33    37    36    1
    34    36    35   ar
    35    31    30    1
    36    31    33   ar
    37    35    33   ar
    38    54    56   ar
    39    54    52   ar
    40    56    57   ar
    41   104   103    1
    42    51    52    1
    43    51    48    1
    44    52    53   ar
    45    57    55   ar
    46    48    49    1
    47    48    47    1
    48    49    50    2
    49   113   111   ar
    50   113   114   ar
    51   111   110   ar
    52    85    83   am
    53   102   101    2
    54   114   116   ar
    55   114   112   ar
    56   110   109    1
    57   110   112   ar
    58    53    55   ar
    59   103   100    1
    60   116   118   ar
    61   109   106    1
    62    90    91    1
    63    90    87    1
    64   112   115   ar
    65    89    88    2
    66   100   101    1
    67   100    99    1
    68   101   105   am
    69    88    87    1
    70    95    94    2
    71   118   117   ar
    72    83    84    2
    73    83    82    1
    74   115   117   ar
    75    87    86    1
    76   105   106    1
    77   106   107    1
    78    82    81    1
    79    99    94   am
    80    94    93    1
    81   157   156    2
    82   156   155    1
    83   152   150    1
    84   107   119   am
    85   107   108    2
    86    92    93    1
    87   119   120    1
    88   122   121    2
    89   155   154    1
    90   155   158    1
    91   149   148    2
    92   150   151    1
    93   150   147    1
    94    93    96    1
    95    81    78    1
    96   154   148   am
    97   148   147    1
    98   128   129    1
    99   128   127    1
   100   151   153    1
   101    78    79    1
   102    78    77    1
   103   121   120    1
   104   121   123   am
   105    96    97    1
   106    96    98    1
   107   131   129   ar
   108   129   130   ar
   109    79    80    2
   110   147   146    1
   111   158   159    1
   112   124   123    1
   113   124   127    1
   114   124   125    1
   115    77    73   am
   116   132   125   am
   117   132   133    1
   118    74    73    2
   119   146   144   am
   120   125   126    2
   121   159   161   ar
   122   159   160   ar
   123    73    72    1
   124   161   163   ar
   125   133   134    1
   126   160   162   ar
   127   135   134    2
   128   144   145    2
   129   144   143    1
   130   163   164   ar
   131   134   136   am
   132    72    71    1
   133    72    75    1
   134    46    44   ar
   135    41    40    2
   136   141    76    1
   137   141   140    1
   138   162   164   ar
   139   143   142    1
   140   164   165    1
   141    71    68   am
   142    76    75    1
   143    43    44    1
   144    43    42    1
   145    44    45   ar
   146   136   137    1
   147    70    67    1
   148    40    39    1
   149    68    69    2
   150    68    67    1
   151   140   137    1
   152   137   138    1
   153    39    42    1
   154    39    38    1
   155    67    66    1
   156    65    63   ar
   157    64    63   ar
   158    66    60   am
   159    63    62    1
   160   138   139    2
   161    60    61    2
   162    60    59    1
   163    62    59    1
   164    59    58    1
