@<TRIPOS>MOLECULE
tmp/4y7bA00.pdb
 175 174 0 0 0
SMALL
GASTEIGER

@<TRIPOS>ATOM
      1  N         14.2330   10.5050   14.2380 N.3    42  HIS42      -0.1241
      2  CA        12.7530   10.4790   14.2450 C.3    42  HIS42       0.1621
      3  C         12.1060   11.8270   14.4950 C.2    42  HIS42       0.2264
      4  O         10.9550   12.0500   14.1180 O.2    42  HIS42      -0.2867
      5  CB        12.1600    9.3600   15.1370 C.3    42  HIS42       0.0745
      6  CG        11.9550    9.7350   16.6040 C.ar   42  HIS42       0.0817
      7  ND1       12.7570    9.2820   17.5890 N.ar   42  HIS42      -0.2268
      8  CD2       10.9680   10.5020   17.2280 C.ar   42  HIS42       0.1154
      9  CE1       12.3170    9.7440   18.7790 C.ar   42  HIS42       0.1986
     10  NE2       11.2240   10.4910   18.5600 N.ar   42  HIS42      -0.2212
     11  N         11.7790    3.9590   10.3470 N.3    82  LYS82      -0.1231
     12  CA        10.6100    4.2280   11.1930 C.3    82  LYS82       0.1693
     13  C          9.9920    2.9720   11.7960 C.2    82  LYS82       0.2592
     14  O          9.3140    3.0390   12.8240 O.2    82  LYS82      -0.2718
     15  CB         9.5310    4.9810   10.4050 C.3    82  LYS82       0.0285
     16  CG         9.9260    6.3700    9.9320 C.3    82  LYS82       0.0035
     17  CD         8.7690    7.0460    9.2060 C.3    82  LYS82       0.0206
     18  CE         9.1190    8.4650    8.7860 C.3    82  LYS82       0.1093
     19  NZ         8.0000    9.0790    8.0170 N.3    82  LYS82      -0.1314
     20  N         10.2370    1.8330   11.1570 N.am   83  GLU83      -0.1966
     21  CA         9.6720    0.5560   11.5820 C.3    83  GLU83       0.1733
     22  C         10.1220    0.1370   12.9760 C.2    83  GLU83       0.2617
     23  O          9.3070   -0.3220   13.7880 O.2    83  GLU83      -0.2715
     24  CB        10.0370   -0.5530   10.5800 C.3    83  GLU83       0.0429
     25  CG         9.8030   -0.2120    9.1110 C.3    83  GLU83       0.1163
     26  CD         8.3520    0.0940    8.7840 C.2    83  GLU83       0.3649
     27  OE1        7.4490   -0.5130    9.4020 O.co2  83  GLU83      -0.2457
     28  OE2        8.1160    0.9410    7.8920 O.co2  83  GLU83      -0.2457
     29  N         11.4210    0.2910   13.2430 N.am   84  THR84      -0.1937
     30  CA        12.0070   -0.1440   14.5090 C.3    84  THR84       0.2028
     31  C         12.7540    0.9520   15.2900 C.2    84  THR84       0.2642
     32  O         13.1350    0.7320   16.4430 O.2    84  THR84      -0.2714
     33  CB        13.0240   -1.2760   14.2640 C.3    84  THR84       0.1808
     34  OG1       14.0490   -0.7970   13.3880 O.3    84  THR84      -0.2208
     35  CG2       12.3450   -2.5130   13.6230 C.3    84  THR84       0.0379
     36  N         12.9500    2.1120   14.6620 N.am   85  TYR85      -0.1973
     37  CA        13.7610    3.2150   15.2280 C.3    85  TYR85       0.1639
     38  C         15.2630    2.8860   15.3100 C.2    85  TYR85       0.2290
     39  O         16.0180    3.5560   16.0260 O.2    85  TYR85      -0.2864
     40  CB        13.1810    3.7470   16.5550 C.3    85  TYR85       0.0560
     41  CG        12.0800    4.7980   16.3960 C.ar   85  TYR85      -0.0198
     42  CD1       11.3410    4.9000   15.2070 C.ar   85  TYR85      -0.0009
     43  CD2       11.7390    5.6480   17.4500 C.ar   85  TYR85      -0.0009
     44  CE1       10.3300    5.8390   15.0620 C.ar   85  TYR85       0.0417
     45  CE2       10.7130    6.5910   17.3160 C.ar   85  TYR85       0.0417
     46  CZ        10.0150    6.6760   16.1190 C.ar   85  TYR85       0.1957
     47  OH         9.0020    7.5970   15.9640 O.3    85  TYR85      -0.2866
     48  N          2.8570   10.6640   31.6850 N.3   135  GLU135     -0.1245
     49  CA         2.4220   10.1330   30.3830 C.3   135  GLU135      0.1567
     50  C          1.3260   10.9030   29.6370 C.2   135  GLU135      0.2260
     51  O          1.4220   11.0970   28.4290 O.2   135  GLU135     -0.2867
     52  CB         2.0720    8.6360   30.4840 C.3   135  GLU135      0.0388
     53  CG         1.8440    7.9690   29.1350 C.3   135  GLU135      0.1160
     54  CD         1.7240    6.4580   29.2130 C.2   135  GLU135      0.3649
     55  OE1        2.3550    5.8350   30.1010 O.co2 135  GLU135     -0.2457
     56  OE2        1.0100    5.8860   28.3590 O.co2 135  GLU135     -0.2457
     57  N          9.1140   -4.9400   21.7170 N.3   162  PHE162     -0.1241
     58  CA         9.6800   -4.5830   20.4200 C.3   162  PHE162      0.1605
     59  C         11.1900   -4.7720   20.4090 C.2   162  PHE162      0.2264
     60  O         11.8410   -4.6790   21.4560 O.2   162  PHE162     -0.2867
     61  CB         9.2800   -3.1430   20.0680 C.3   162  PHE162      0.0534
     62  CG         7.7950   -2.8900   20.1640 C.ar  162  PHE162     -0.0203
     63  CD1        7.2700   -2.1240   21.1980 C.ar  162  PHE162     -0.0042
     64  CD2        6.9160   -3.4550   19.2390 C.ar  162  PHE162     -0.0042
     65  CE1        5.9040   -1.8930   21.2990 C.ar  162  PHE162     -0.0003
     66  CE2        5.5450   -3.2370   19.3380 C.ar  162  PHE162     -0.0003
     67  CZ         5.0380   -2.4540   20.3650 C.ar  162  PHE162     -0.0000
     68  N         11.1860    8.5670   34.5850 N.3   179  ASP179     -0.1225
     69  CA        11.5230    8.2000   33.2010 C.3   179  ASP179      0.1805
     70  C         11.5380    9.4650   32.3260 C.2   179  ASP179      0.2598
     71  O         11.1300   10.5460   32.7720 O.2   179  ASP179     -0.2718
     72  CB        10.4210    7.2590   32.6880 C.3   179  ASP179      0.1424
     73  CG        10.8100    6.4710   31.4430 C.2   179  ASP179      0.3668
     74  OD1       11.9420    6.5970   30.9200 O.co2 179  ASP179     -0.2456
     75  OD2        9.9400    5.7050   30.9750 O.co2 179  ASP179     -0.2456
     76  N         12.0130    9.3420   31.0860 N.am  180  ALA180     -0.1966
     77  CA        11.8580   10.4250   30.1170 C.3   180  ALA180      0.1728
     78  C         10.4310   10.2590   29.5830 C.2   180  ALA180      0.2616
     79  O          9.7520    9.2830   29.9290 O.2   180  ALA180     -0.2715
     80  CB        12.8730   10.3040   28.9880 C.3   180  ALA180      0.0334
     81  N          9.9720   11.1950   28.7530 N.am  181  CYS181     -0.1954
     82  CA         8.6150   11.1060   28.1860 C.3   181  CYS181      0.1843
     83  C          8.4790   11.8960   26.8690 C.2   181  CYS181      0.2625
     84  O          9.4760   12.3870   26.3060 O.2   181  CYS181     -0.2714
     85  CB         7.5790   11.5370   29.2490 C.3   181  CYS181      0.0997
     86  SG         5.8550   11.0010   29.0080 S.3   181  CYS181     -0.0797
     87  N          7.2450   12.0130   26.3720 N.am  182  GLN182     -0.1977
     88  CA         6.9660   12.7130   25.1130 C.3   182  GLN182      0.1601
     89  C          7.5460   14.1280   25.1070 C.2   182  GLN182      0.2287
     90  O          7.3270   14.8920   26.0450 O.2   182  GLN182     -0.2864
     91  CB         5.4520   12.7580   24.8600 C.3   182  GLN182      0.0394
     92  CG         5.0560   13.2850   23.4870 C.3   182  GLN182      0.0908
     93  CD         3.5620   13.1810   23.2040 C.2   182  GLN182      0.2608
     94  OE1        3.0180   13.9590   22.4210 O.2   182  GLN182     -0.2717
     95  NE2        2.8950   12.2180   23.8350 N.am  182  GLN182     -0.0878
     96  N         12.4290   13.3800   23.4290 N.3   185  SER185     -0.1217
     97  CA        13.1230   12.7170   22.3150 C.3   185  SER185      0.1889
     98  C         14.2100   13.5940   21.6800 C.2   185  SER185      0.2288
     99  O         13.9900   14.7930   21.4830 O.2   185  SER185     -0.2866
    100  CB        12.1190   12.3160   21.2200 C.3   185  SER185      0.2089
    101  OG        11.2950   11.2280   21.6370 O.3   185  SER185     -0.2183
    102  N         17.8270   10.3320   23.7200 N.3   203  VAL203     -0.1231
    103  CA        16.4610    9.9120   24.1000 C.3   203  VAL203      0.1692
    104  C         15.7520    9.4200   22.8280 C.2   203  VAL203      0.2593
    105  O         15.6230   10.1860   21.8560 O.2   203  VAL203     -0.2718
    106  CB        15.6690   11.0650   24.7620 C.3   203  VAL203      0.0266
    107  CG1       14.2590   10.6130   25.1380 C.3   203  VAL203      0.0020
    108  CG2       16.3850   11.5740   26.0100 C.3   203  VAL203      0.0020
    109  N         15.2920    8.1620   22.8220 N.am  204  SER204     -0.1938
    110  CA        14.7210    7.5820   21.5820 C.3   204  SER204      0.2055
    111  C         13.2370    7.1620   21.6580 C.2   204  SER204      0.2643
    112  O         12.3980    7.7460   20.9620 O.2   204  SER204     -0.2714
    113  CB        15.6200    6.4490   21.0360 C.3   204  SER204      0.2130
    114  OG        15.1840    5.9660   19.7550 O.3   204  SER204     -0.2179
    115  N         12.9180    6.1630   22.4820 N.am  205  TRP205     -0.1959
    116  CA        11.5290    5.6810   22.5950 C.3   205  TRP205      0.1771
    117  C         11.2370    4.9230   23.8640 C.2   205  TRP205      0.2620
    118  O         12.1550    4.6030   24.6330 O.2   205  TRP205     -0.2715
    119  CB        11.1230    4.8580   21.3580 C.3   205  TRP205      0.0590
    120  CG        11.9030    3.5770   21.1170 C.ar  205  TRP205      0.0006
    121  CD1       13.0940    3.4280   20.3940 C.ar  205  TRP205      0.0946
    122  CD2       11.5510    2.2120   21.5600 C.ar  205  TRP205      0.0152
    123  NE1       13.4970    2.1100   20.3670 N.ar  205  TRP205     -0.2442
    124  CE2       12.6130    1.3250   21.0460 C.ar  205  TRP205      0.0810
    125  CE3       10.5050    1.6560   22.3040 C.ar  205  TRP205      0.0012
    126  CZ2       12.6050   -0.0520   21.2820 C.ar  205  TRP205      0.0191
    127  CZ3       10.5080    0.2640   22.5350 C.ar  205  TRP205      0.0001
    128  CH2       11.5300   -0.5640   22.0340 C.ar  205  TRP205      0.0015
    129  N          9.9540    4.6250   24.0950 N.am  206  GLY206     -0.1940
    130  CA         9.5310    3.8540   25.2760 C.3   206  GLY206      0.2014
    131  C          8.0700    3.4320   25.1500 C.2   206  GLY206      0.2639
    132  O          7.2990    4.0940   24.4650 O.2   206  GLY206     -0.2714
    133  N          7.6970    2.3150   25.7690 N.am  207  GLU207     -0.1963
    134  CA         6.2860    1.8650   25.7480 C.3   207  GLU207      0.1733
    135  C          5.5240    2.6570   26.8230 C.2   207  GLU207      0.2617
    136  O          5.3090    2.1800   27.9390 O.2   207  GLU207     -0.2715
    137  CB         6.1910    0.3430   25.9450 C.3   207  GLU207      0.0429
    138  CG         6.9000   -0.4770   24.8620 C.3   207  GLU207      0.1163
    139  CD         6.8180   -1.9840   25.0930 C.2   207  GLU207      0.3649
    140  OE1        5.7090   -2.5030   25.3530 O.co2 207  GLU207     -0.2457
    141  OE2        7.8610   -2.6620   24.9970 O.co2 207  GLU207     -0.2457
    142  N          5.1230    3.8770   26.4660 N.am  208  GLY208     -0.1940
    143  CA         4.5260    4.8230   27.4060 C.3   208  GLY208      0.2014
    144  C          5.6540    5.4870   28.1910 C.2   208  GLY208      0.2639
    145  O          6.8080    5.4920   27.7400 O.2   208  GLY208     -0.2714
    146  N          5.3370    6.0160   29.3720 N.am  209  CYS209     -0.1967
    147  CA         6.3310    6.6770   30.2210 C.3   209  CYS209      0.1712
    148  C          6.2280    6.1530   31.6480 C.2   209  CYS209      0.2296
    149  O          5.1380    6.1620   32.2390 O.2   209  CYS209     -0.2864
    150  CB         6.1180    8.2080   30.2310 C.3   209  CYS209      0.0983
    151  SG         5.9580    8.9920   28.6070 S.3   209  CYS209     -0.0798
    152  N         13.3570    2.9940   29.5990 N.3   216  GLY216     -0.1210
    153  CA        13.5380    3.9750   28.5250 C.3   216  GLY216      0.1956
    154  C         14.5740    3.4410   27.5540 C.2   216  GLY216      0.2612
    155  O         15.5820    2.8530   27.9760 O.2   216  GLY216     -0.2717
    156  N         14.3350    3.6240   26.2540 N.am  217  ILE217     -0.1965
    157  CA        15.2580    3.1160   25.2480 C.3   217  ILE217      0.1727
    158  C         16.0010    4.3030   24.6100 C.2   217  ILE217      0.2616
    159  O         15.3770    5.2700   24.1450 O.2   217  ILE217     -0.2715
    160  CB        14.5560    2.2530   24.1590 C.3   217  ILE217      0.0290
    161  CG1       13.5650    1.2210   24.7660 C.3   217  ILE217      0.0022
    162  CG2       15.5850    1.5730   23.2490 C.3   217  ILE217      0.0023
    163  CD1       14.1320    0.3030   25.8410 C.3   217  ILE217      0.0001
    164  N         17.3260    4.1900   24.5740 N.am  218  TYR218     -0.1974
    165  CA        18.2050    5.2540   24.0880 C.3   218  TYR218      0.1639
    166  C         19.0810    4.8030   22.9240 C.2   218  TYR218      0.2290
    167  O         19.4920    3.6470   22.8670 O.2   218  TYR218     -0.2864
    168  CB        19.1120    5.7130   25.2450 C.3   218  TYR218      0.0560
    169  CG        18.3610    6.3140   26.4230 C.ar  218  TYR218     -0.0198
    170  CD1       17.7150    5.4940   27.3670 C.ar  218  TYR218     -0.0009
    171  CD2       18.3120    7.7010   26.6070 C.ar  218  TYR218     -0.0009
    172  CE1       17.0110    6.0450   28.4360 C.ar  218  TYR218      0.0417
    173  CE2       17.6320    8.2630   27.6880 C.ar  218  TYR218      0.0417
    174  CZ        16.9670    7.4350   28.5870 C.ar  218  TYR218      0.1957
    175  OH        16.2860    7.9890   29.6570 O.3   218  TYR218     -0.2866
@<TRIPOS>BOND
     1    28    26   ar
     2    19    18    1
     3    26    25    1
     4    26    27   ar
     5    18    17    1
     6    25    24    1
     7    17    16    1
     8    16    15    1
     9    11    12    1
    10    15    12    1
    11    24    21    1
    12    20    21    1
    13    20    13   am
    14    12    13    1
    15    21    22    1
    16    13    14    2
    17    22    29   am
    18    22    23    2
    19    29    30    1
    20    34    33    1
    21    35    33    1
    22     4     3    2
    23     1     2    1
    24     2     3    1
    25     2     5    1
    26    33    30    1
    27    30    31    1
    28    36    37    1
    29    36    31   am
    30    44    42   ar
    31    44    46   ar
    32     5     6    1
    33    42    41   ar
    34    37    38    1
    35    37    40    1
    36    31    32    2
    37    38    39    2
    38    47    46    1
    39    46    45   ar
    40    41    40    1
    41    41    43   ar
    42     6     8   ar
    43     6     7   ar
    44     8    10   ar
    45    45    43   ar
    46     7     9   ar
    47    10     9   ar
    48    64    66   ar
    49    64    62   ar
    50    66    67   ar
    51   114   113    1
    52    61    62    1
    53    61    58    1
    54    62    63   ar
    55    67    65   ar
    56   123   121   ar
    57   123   124   ar
    58   121   120   ar
    59    59    58    1
    60    59    60    2
    61    58    57    1
    62   112   111    2
    63   113   110    1
    64   124   126   ar
    65   124   122   ar
    66   120   119    1
    67   120   122   ar
    68    63    65   ar
    69   100   101    1
    70   100    97    1
    71   126   128   ar
    72   119   116    1
    73    99    98    2
    74   122   125   ar
    75   110   111    1
    76   110   109    1
    77   111   115   am
    78    98    97    1
    79   105   104    2
    80   128   127   ar
    81   125   127   ar
    82    97    96    1
    83    94    93    2
    84   115   116    1
    85   116   117    1
    86   109   104   am
    87   104   103    1
    88   167   166    2
    89   166   165    1
    90    93    92    1
    91    93    95   am
    92   162   160    1
    93    92    91    1
    94   102   103    1
    95   117   129   am
    96   117   118    2
    97   165   164    1
    98   165   168    1
    99   129   130    1
   100   103   106    1
   101   159   158    2
   102   160   161    1
   103   160   157    1
   104   132   131    2
   105   164   158   am
   106   158   157    1
   107   106   107    1
   108   106   108    1
   109   161   163    1
   110    91    88    1
   111   138   139    1
   112   138   137    1
   113   141   139   ar
   114   139   140   ar
   115    89    88    1
   116    89    90    2
   117    88    87    1
   118   131   130    1
   119   131   133   am
   120   168   169    1
   121   157   156    1
   122   134   133    1
   123   134   137    1
   124   134   135    1
   125   156   154   am
   126    84    83    2
   127    87    83   am
   128   169   171   ar
   129   169   170   ar
   130   142   135   am
   131   142   143    1
   132   171   173   ar
   133   135   136    2
   134    83    82    1
   135   170   172   ar
   136   143   144    1
   137   154   155    2
   138   154   153    1
   139   173   174   ar
   140   145   144    2
   141    82    81    1
   142    82    85    1
   143   144   146   am
   144    56    54   ar
   145    51    50    2
   146   172   174   ar
   147   153   152    1
   148   174   175    1
   149   151    86    1
   150   151   150    1
   151    81    78   am
   152    80    77    1
   153    86    85    1
   154    53    54    1
   155    53    52    1
   156    54    55   ar
   157   146   147    1
   158    78    79    2
   159    78    77    1
   160    50    49    1
   161    77    76    1
   162   147   150    1
   163   147   148    1
   164    49    52    1
   165    49    48    1
   166    74    73   ar
   167    75    73   ar
   168    76    70   am
   169    73    72    1
   170   148   149    2
   171    70    71    2
   172    70    69    1
   173    72    69    1
   174    69    68    1
