@<TRIPOS>MOLECULE
tmp/4y7eA11.pdb
 97 98 0 0 0
SMALL
GASTEIGER

@<TRIPOS>ATOM
      1  N         58.5430   59.6010   -9.5670 N.3    30  TRP30      -0.1241
      2  CA        59.9900   59.6720   -9.3590 C.3    30  TRP30       0.1605
      3  C         60.3850   59.2450   -7.9460 C.2    30  TRP30       0.2264
      4  O         61.5720   59.0780   -7.6700 O.2    30  TRP30      -0.2867
      5  CB        60.5290   61.0920   -9.6450 C.3    30  TRP30       0.0550
      6  CG        60.1390   61.5930  -11.0050 C.ar   30  TRP30       0.0003
      7  CD1       60.2980   60.9520  -12.2040 C.ar   30  TRP30       0.0946
      8  CD2       59.4580   62.8110  -11.2840 C.ar   30  TRP30       0.0152
      9  NE1       59.7590   61.7120  -13.2180 N.ar   30  TRP30      -0.2442
     10  CE2       59.2380   62.8590  -12.6800 C.ar   30  TRP30       0.0810
     11  CE3       59.0370   63.8810  -10.4950 C.ar   30  TRP30       0.0012
     12  CZ2       58.5850   63.9230  -13.2950 C.ar   30  TRP30       0.0191
     13  CZ3       58.3790   64.9450  -11.1060 C.ar   30  TRP30       0.0001
     14  CH2       58.1600   64.9500  -12.4900 C.ar   30  TRP30       0.0015
     15  N         58.2850   59.5930  -21.5300 N.3    58  ARG58      -0.1231
     16  CA        59.5060   60.2870  -21.1290 C.3    58  ARG58       0.1694
     17  C         60.1170   59.6270  -19.8990 C.2    58  ARG58       0.2592
     18  O         61.3340   59.4290  -19.8300 O.2    58  ARG58      -0.2718
     19  CB        59.2120   61.7620  -20.8470 C.3    58  ARG58       0.0321
     20  CG        60.4560   62.5630  -20.4430 C.3    58  ARG58       0.0489
     21  CD        60.1470   64.0660  -20.4180 C.3    58  ARG58       0.2205
     22  NE        61.3370   64.8040  -19.9800 N.pl3  58  ARG58      -0.0865
     23  CZ        61.3180   66.0870  -19.6130 C.cat  58  ARG58       0.5346
     24  NH1       60.1920   66.7680  -19.6280 N.pl3  58  ARG58       0.1354
     25  NH2       62.4320   66.6820  -19.1860 N.pl3  58  ARG58       0.1354
     26  N         59.2830   59.3130  -18.9140 N.am   59  TRP59      -0.1976
     27  CA        59.7860   58.6750  -17.6990 C.3    59  TRP59       0.1640
     28  C         59.3460   57.2180  -17.6420 C.2    59  TRP59       0.2290
     29  O         59.0740   56.6270  -18.6820 O.2    59  TRP59      -0.2864
     30  CB        59.3360   59.4830  -16.4600 C.3    59  TRP59       0.0576
     31  CG        60.0410   60.8240  -16.4310 C.ar   59  TRP59       0.0006
     32  CD1       61.3700   61.0350  -16.1940 C.ar   59  TRP59       0.0946
     33  CD2       59.4760   62.1150  -16.7010 C.ar   59  TRP59       0.0152
     34  NE1       61.6710   62.3840  -16.2830 N.ar   59  TRP59      -0.2442
     35  CE2       60.5230   63.0650  -16.5880 C.ar   59  TRP59       0.0810
     36  CE3       58.1830   62.5600  -17.0220 C.ar   59  TRP59       0.0012
     37  CZ2       60.3260   64.4400  -16.7860 C.ar   59  TRP59       0.0191
     38  CZ3       57.9890   63.9380  -17.2120 C.ar   59  TRP59       0.0001
     39  CH2       59.0450   64.8520  -17.0880 C.ar   59  TRP59       0.0015
     40  N         52.6010   63.1590  -16.4940 N.3    86  HIS86      -0.1241
     41  CA        53.5270   64.3050  -16.5380 C.3    86  HIS86       0.1621
     42  C         54.2610   64.3800  -17.8790 C.2    86  HIS86       0.2264
     43  O         54.8680   65.4090  -18.2000 O.2    86  HIS86      -0.2867
     44  CB        54.5460   64.2320  -15.3810 C.3    86  HIS86       0.0745
     45  CG        54.8890   65.5710  -14.8200 C.ar   86  HIS86       0.0817
     46  ND1       54.0270   66.2620  -13.9950 N.ar   86  HIS86      -0.2268
     47  CD2       55.9690   66.3700  -15.0120 C.ar   86  HIS86       0.1154
     48  CE1       54.5760   67.4230  -13.6800 C.ar   86  HIS86       0.1986
     49  NE2       55.7580   67.5140  -14.2770 N.ar   86  HIS86      -0.2212
     50  N         54.4180   67.3760  -20.5900 N.3    89  THR89      -0.1218
     51  CA        54.8690   68.7300  -20.1840 C.3    89  THR89       0.1862
     52  C         55.6910   69.4440  -21.2550 C.2    89  THR89       0.2287
     53  O         56.7450   68.9500  -21.6600 O.2    89  THR89      -0.2866
     54  CB        55.7200   68.6560  -18.9100 C.3    89  THR89       0.1770
     55  OG1       54.9520   68.0410  -17.8770 O.3    89  THR89      -0.2211
     56  CG2       56.1070   70.0700  -18.4490 C.3    89  THR89       0.0375
     57  N         52.3400   73.1480   -5.5780 N.3   253  TRP253     -0.1241
     58  CA        53.4710   72.3880   -6.0960 C.3   253  TRP253      0.1605
     59  C         54.6880   72.6380   -5.1800 C.2   253  TRP253      0.2264
     60  O         55.0760   73.8010   -5.0310 O.2   253  TRP253     -0.2867
     61  CB        53.7870   72.7850   -7.5530 C.3   253  TRP253      0.0550
     62  CG        54.8670   71.8860   -8.0930 C.ar  253  TRP253      0.0003
     63  CD1       56.2200   71.9940   -7.8720 C.ar  253  TRP253      0.0946
     64  CD2       54.6740   70.6500   -8.8020 C.ar  253  TRP253      0.0152
     65  NE1       56.8720   70.9310   -8.4360 N.ar  253  TRP253     -0.2442
     66  CE2       55.9480   70.0860   -9.0050 C.ar  253  TRP253      0.0810
     67  CE3       53.5380   69.9730   -9.2930 C.ar  253  TRP253      0.0012
     68  CZ2       56.1370   68.8680   -9.6880 C.ar  253  TRP253      0.0191
     69  CZ3       53.7240   68.7610   -9.9670 C.ar  253  TRP253      0.0001
     70  CH2       55.0150   68.2200  -10.1510 C.ar  253  TRP253      0.0015
     71  N         60.9810   66.8190   -3.0390 N.3   257  GLY257     -0.1210
     72  CA        61.7230   66.1130   -4.0670 C.3   257  GLY257      0.1956
     73  C         61.9680   66.8450   -5.3760 C.2   257  GLY257      0.2612
     74  O         62.4000   66.2250   -6.3450 O.2   257  GLY257     -0.2717
     75  N         61.7240   68.1440   -5.4360 N.am  258  ASN258     -0.1960
     76  CA        62.0930   68.8830   -6.6530 C.3   258  ASN258      0.1819
     77  C         63.6000   68.9370   -6.8460 C.2   258  ASN258      0.2622
     78  O         64.3270   69.1030   -5.8780 O.2   258  ASN258     -0.2715
     79  CB        61.5430   70.3130   -6.5900 C.3   258  ASN258      0.1195
     80  CG        60.0460   70.3620   -6.7010 C.2   258  ASN258      0.2630
     81  OD1       59.5070   70.1460   -7.7830 O.2   258  ASN258     -0.2716
     82  ND2       59.3620   70.6070   -5.5910 N.am  258  ASN258     -0.0877
     83  N         64.0800   68.8430   -8.0920 N.am  259  THR259     -0.1937
     84  CA        65.5160   68.8920   -8.3530 C.3   259  THR259      0.2028
     85  C         66.0950   70.1670   -7.7560 C.2   259  THR259      0.2642
     86  O         67.1390   70.1270   -7.1080 O.2   259  THR259     -0.2714
     87  CB        65.7940   68.8090   -9.8350 C.3   259  THR259      0.1808
     88  OG1       65.2530   67.5740  -10.3290 O.3   259  THR259     -0.2208
     89  CG2       67.3020   68.8000  -10.0970 C.3   259  THR259      0.0379
     90  N         65.3970   71.2720   -7.9700 N.am  260  ASP260     -0.1971
     91  CA        65.6490   72.5130   -7.2180 C.3   260  ASP260      0.1709
     92  C         64.6580   72.5740   -6.0640 C.2   260  ASP260      0.2293
     93  O         63.4510   72.7300   -6.2730 O.2   260  ASP260     -0.2864
     94  CB        65.4890   73.7350   -8.1200 C.3   260  ASP260      0.1436
     95  CG        65.8130   75.0350   -7.4070 C.2   260  ASP260      0.3671
     96  OD1       65.7650   75.0890   -6.1540 O.co2 260  ASP260     -0.2456
     97  OD2       66.1250   76.0060   -8.1340 O.co2 260  ASP260     -0.2456
@<TRIPOS>BOND
     1    53    52    2
     2    15    16    1
     3    52    51    1
     4    16    19    1
     5    16    17    1
     6    19    20    1
     7    50    51    1
     8    20    21    1
     9    21    22    1
    10    51    54    1
    11    22    23    2
    12    17    18    2
    13    17    26   am
    14    24    23    1
    15    23    25    1
    16    26    27    1
    17    54    56    1
    18    54    55    1
    19    29    28    2
    20    43    42    2
    21    42    41    1
    22    27    28    1
    23    27    30    1
    24    38    39   ar
    25    38    36   ar
    26    39    37   ar
    27    36    33   ar
    28    37    35   ar
    29    33    35   ar
    30    33    31   ar
    31    35    34   ar
    32    41    40    1
    33    41    44    1
    34    30    31    1
    35    31    32   ar
    36    34    32   ar
    37    44    45    1
    38    47    45   ar
    39    47    49   ar
    40    45    46   ar
    41    49    48   ar
    42    46    48   ar
    43    12    10   ar
    44    12    14   ar
    45     9    10   ar
    46     9     7   ar
    47    10     8   ar
    48    14    13   ar
    49     7     6   ar
    50     8     6   ar
    51     8    11   ar
    52    13    11   ar
    53     6     5    1
    54    88    87    1
    55    70    69   ar
    56    70    68   ar
    57    89    87    1
    58    69    67   ar
    59    87    84    1
    60    68    66   ar
    61     5     2    1
    62     1     2    1
    63     2     3    1
    64    67    64   ar
    65    66    64   ar
    66    66    65   ar
    67    64    62   ar
    68    65    63   ar
    69    84    83    1
    70    84    85    1
    71    97    95   ar
    72    94    95    1
    73    94    91    1
    74    62    63   ar
    75    62    61    1
    76    83    77   am
    77    90    85   am
    78    90    91    1
    79     3     4    2
    80    81    80    2
    81    85    86    2
    82    61    58    1
    83    95    96   ar
    84    91    92    1
    85    77    76    1
    86    77    78    2
    87    80    79    1
    88    80    82   am
    89    76    79    1
    90    76    75    1
    91    74    73    2
    92    93    92    2
    93    58    57    1
    94    58    59    1
    95    75    73   am
    96    73    72    1
    97    59    60    2
    98    72    71    1
