@<TRIPOS>MOLECULE
tmp/4y7eA10.pdb
 105 102 0 0 0
SMALL
GASTEIGER

@<TRIPOS>ATOM
      1  N         58.5430   59.6010   -9.5670 N.3    30  TRP30      -0.1241
      2  CA        59.9900   59.6720   -9.3590 C.3    30  TRP30       0.1605
      3  C         60.3850   59.2450   -7.9460 C.2    30  TRP30       0.2264
      4  O         61.5720   59.0780   -7.6700 O.2    30  TRP30      -0.2867
      5  CB        60.5290   61.0920   -9.6450 C.3    30  TRP30       0.0550
      6  CG        60.1390   61.5930  -11.0050 C.ar   30  TRP30       0.0003
      7  CD1       60.2980   60.9520  -12.2040 C.ar   30  TRP30       0.0946
      8  CD2       59.4580   62.8110  -11.2840 C.ar   30  TRP30       0.0152
      9  NE1       59.7590   61.7120  -13.2180 N.ar   30  TRP30      -0.2442
     10  CE2       59.2380   62.8590  -12.6800 C.ar   30  TRP30       0.0810
     11  CE3       59.0370   63.8810  -10.4950 C.ar   30  TRP30       0.0012
     12  CZ2       58.5850   63.9230  -13.2950 C.ar   30  TRP30       0.0191
     13  CZ3       58.3790   64.9450  -11.1060 C.ar   30  TRP30       0.0001
     14  CH2       58.1600   64.9500  -12.4900 C.ar   30  TRP30       0.0015
     15  N         52.6010   63.1590  -16.4940 N.3    86  HIS86      -0.1241
     16  CA        53.5270   64.3050  -16.5380 C.3    86  HIS86       0.1621
     17  C         54.2610   64.3800  -17.8790 C.2    86  HIS86       0.2264
     18  O         54.8680   65.4090  -18.2000 O.2    86  HIS86      -0.2867
     19  CB        54.5460   64.2320  -15.3810 C.3    86  HIS86       0.0745
     20  CG        54.8890   65.5710  -14.8200 C.ar   86  HIS86       0.0817
     21  ND1       54.0270   66.2620  -13.9950 N.ar   86  HIS86      -0.2268
     22  CD2       55.9690   66.3700  -15.0120 C.ar   86  HIS86       0.1154
     23  CE1       54.5760   67.4230  -13.6800 C.ar   86  HIS86       0.1986
     24  NE2       55.7580   67.5140  -14.2770 N.ar   86  HIS86      -0.2212
     25  N         54.4180   67.3760  -20.5900 N.3    89  THR89      -0.1218
     26  CA        54.8690   68.7300  -20.1840 C.3    89  THR89       0.1862
     27  C         55.6910   69.4440  -21.2550 C.2    89  THR89       0.2287
     28  O         56.7450   68.9500  -21.6600 O.2    89  THR89      -0.2866
     29  CB        55.7200   68.6560  -18.9100 C.3    89  THR89       0.1770
     30  OG1       54.9520   68.0410  -17.8770 O.3    89  THR89      -0.2211
     31  CG2       56.1070   70.0700  -18.4490 C.3    89  THR89       0.0375
     32  N         49.8070   66.7750  -17.9290 N.3   127  ASN127     -0.1225
     33  CA        50.3680   67.9680  -17.3310 C.3   127  ASN127      0.1785
     34  C         50.8370   68.9700  -18.3650 C.2   127  ASN127      0.2597
     35  O         51.5810   68.6120  -19.2850 O.2   127  ASN127     -0.2718
     36  CB        51.5690   67.6140  -16.4440 C.3   127  ASN127      0.1169
     37  CG        52.0850   68.8230  -15.6750 C.2   127  ASN127      0.2627
     38  OD1       51.3760   69.3860  -14.8560 O.2   127  ASN127     -0.2716
     39  ND2       53.3450   69.2100  -15.9340 N.am  127  ASN127     -0.0877
     40  N         50.4400   70.2290  -18.1550 N.am  128  GLU128     -0.1979
     41  CA        51.0390   71.3620  -18.8880 C.3   128  GLU128      0.1602
     42  C         51.4130   70.9800  -20.3190 C.2   128  GLU128      0.2287
     43  O         52.5710   71.1020  -20.6990 O.2   128  GLU128     -0.2864
     44  CB        52.2980   71.8510  -18.1430 C.3   128  GLU128      0.0415
     45  CG        51.9630   72.2510  -16.7050 C.3   128  GLU128      0.1163
     46  CD        53.1460   72.6840  -15.8870 C.2   128  GLU128      0.3649
     47  OE1       54.2850   72.4240  -16.3270 O.co2 128  GLU128     -0.2457
     48  OE2       52.9470   73.2630  -14.7870 O.co2 128  GLU128     -0.2457
     49  N         47.7210   76.6720  -13.9810 N.3   194  HIS194     -0.1241
     50  CA        48.8980   76.6230  -13.1150 C.3   194  HIS194      0.1621
     51  C         49.4250   78.0430  -12.9720 C.2   194  HIS194      0.2264
     52  O         49.4790   78.7780  -13.9540 O.2   194  HIS194     -0.2867
     53  CB        49.9850   75.6820  -13.6750 C.3   194  HIS194      0.0745
     54  CG        49.5650   74.2390  -13.7010 C.ar  194  HIS194      0.0817
     55  ND1       50.4220   73.2170  -14.0540 N.ar  194  HIS194     -0.2268
     56  CD2       48.3770   73.6540  -13.4170 C.ar  194  HIS194      0.1154
     57  CE1       49.7870   72.0600  -13.9780 C.ar  194  HIS194      0.1986
     58  NE2       48.5390   72.2970  -13.5960 N.ar  194  HIS194     -0.2212
     59  N         52.4600   80.3390  -11.7490 N.3   196  TYR196     -0.1241
     60  CA        53.8280   80.6360  -11.3040 C.3   196  TYR196      0.1605
     61  C         54.0880   82.1160  -11.6040 C.2   196  TYR196      0.2264
     62  O         53.2120   82.9220  -11.3640 O.2   196  TYR196     -0.2867
     63  CB        54.8110   79.6560  -11.9610 C.3   196  TYR196      0.0534
     64  CG        54.5300   78.2180  -11.5480 C.ar  196  TYR196     -0.0201
     65  CD1       54.8990   77.7630  -10.2900 C.ar  196  TYR196     -0.0009
     66  CD2       53.8770   77.3450  -12.3940 C.ar  196  TYR196     -0.0009
     67  CE1       54.6450   76.4680   -9.8890 C.ar  196  TYR196      0.0417
     68  CE2       53.6070   76.0090  -12.0040 C.ar  196  TYR196      0.0417
     69  CZ        53.9930   75.5930  -10.7480 C.ar  196  TYR196      0.1957
     70  OH        53.7300   74.2770  -10.3640 O.3   196  TYR196     -0.2866
     71  N         48.2550   73.4150   -9.9240 N.3   223  ALA223     -0.1245
     72  CA        49.6540   73.4930   -9.4880 C.3   223  ALA223      0.1562
     73  C         49.9830   74.9730   -9.3920 C.2   223  ALA223      0.2260
     74  O         49.6080   75.7540  -10.2910 O.2   223  ALA223     -0.2867
     75  CB        50.5970   72.7730  -10.4790 C.3   223  ALA223      0.0290
     76  N         52.3400   73.1480   -5.5780 N.3   253  TRP253     -0.1241
     77  CA        53.4710   72.3880   -6.0960 C.3   253  TRP253      0.1605
     78  C         54.6880   72.6380   -5.1800 C.2   253  TRP253      0.2264
     79  O         55.0760   73.8010   -5.0310 O.2   253  TRP253     -0.2867
     80  CB        53.7870   72.7850   -7.5530 C.3   253  TRP253      0.0550
     81  CG        54.8670   71.8860   -8.0930 C.ar  253  TRP253      0.0003
     82  CD1       56.2200   71.9940   -7.8720 C.ar  253  TRP253      0.0946
     83  CD2       54.6740   70.6500   -8.8020 C.ar  253  TRP253      0.0152
     84  NE1       56.8720   70.9310   -8.4360 N.ar  253  TRP253     -0.2442
     85  CE2       55.9480   70.0860   -9.0050 C.ar  253  TRP253      0.0810
     86  CE3       53.5380   69.9730   -9.2930 C.ar  253  TRP253      0.0012
     87  CZ2       56.1370   68.8680   -9.6880 C.ar  253  TRP253      0.0191
     88  CZ3       53.7240   68.7610   -9.9670 C.ar  253  TRP253      0.0001
     89  CH2       55.0150   68.2200  -10.1510 C.ar  253  TRP253      0.0015
     90  N         61.7240   68.1440   -5.4360 N.3   258  ASN258     -0.1240
     91  CA        62.0930   68.8830   -6.6530 C.3   258  ASN258      0.1653
     92  C         63.6000   68.9370   -6.8460 C.2   258  ASN258      0.2266
     93  O         64.3270   69.1030   -5.8780 O.2   258  ASN258     -0.2867
     94  CB        61.5430   70.3130   -6.5900 C.3   258  ASN258      0.1155
     95  CG        60.0460   70.3620   -6.7010 C.2   258  ASN258      0.2627
     96  OD1       59.5070   70.1460   -7.7830 O.2   258  ASN258     -0.2716
     97  ND2       59.3620   70.6070   -5.5910 N.am  258  ASN258     -0.0877
     98  N         60.8030   74.7320   -4.4000 N.3   263  LEU263     -0.1245
     99  CA        59.3530   74.5020   -4.3150 C.3   263  LEU263      0.1561
    100  C         58.9630   73.3200   -3.4250 C.2   263  LEU263      0.2260
    101  O         57.7910   72.9580   -3.3740 O.2   263  LEU263     -0.2867
    102  CB        58.7570   74.3050   -5.7320 C.3   263  LEU263      0.0270
    103  CG        58.5530   75.6600   -6.4440 C.3   263  LEU263      0.0019
    104  CD1       58.2690   75.4510   -7.9440 C.3   263  LEU263      0.0001
    105  CD2       57.4140   76.4660   -5.7650 C.3   263  LEU263      0.0001
@<TRIPOS>BOND
     1    28    27    2
     2    27    26    1
     3    43    42    2
     4    25    26    1
     5    42    41    1
     6    26    29    1
     7    35    34    2
     8    29    31    1
     9    29    30    1
    10    41    40    1
    11    41    44    1
    12    34    40   am
    13    34    33    1
    14    18    17    2
    15    44    45    1
    16    32    33    1
    17    17    16    1
    18    33    36    1
    19    45    46    1
    20    16    15    1
    21    16    19    1
    22    36    37    1
    23    47    46   ar
    24    39    37   am
    25    46    48   ar
    26    37    38    2
    27    19    20    1
    28    22    20   ar
    29    22    24   ar
    30    20    21   ar
    31    24    23   ar
    32    55    57   ar
    33    55    54   ar
    34    21    23   ar
    35    49    50    1
    36    57    58   ar
    37    52    51    2
    38    54    53    1
    39    54    56   ar
    40    53    50    1
    41    58    56   ar
    42    12    10   ar
    43    12    14   ar
    44     9    10   ar
    45     9     7   ar
    46    50    51    1
    47    10     8   ar
    48    14    13   ar
    49    66    68   ar
    50    66    64   ar
    51     7     6   ar
    52    68    69   ar
    53    63    64    1
    54    63    60    1
    55    59    60    1
    56    61    62    2
    57    61    60    1
    58    64    65   ar
    59     8     6   ar
    60     8    11   ar
    61    13    11   ar
    62     6     5    1
    63    69    70    1
    64    69    67   ar
    65    75    72    1
    66    74    73    2
    67    65    67   ar
    68    89    88   ar
    69    89    87   ar
    70    88    86   ar
    71    71    72    1
    72    87    85   ar
    73     5     2    1
    74     1     2    1
    75    72    73    1
    76     2     3    1
    77    86    83   ar
    78    85    83   ar
    79    85    84   ar
    80    83    81   ar
    81    84    82   ar
    82    81    82   ar
    83    81    80    1
    84     3     4    2
    85   104   103    1
    86    96    95    2
    87    80    77    1
    88    92    91    1
    89    92    93    2
    90    95    94    1
    91    95    97   am
    92    91    94    1
    93    91    90    1
    94   103   105    1
    95   103   102    1
    96    77    76    1
    97    77    78    1
    98   102    99    1
    99    78    79    2
   100    98    99    1
   101    99   100    1
   102   100   101    2
