@<TRIPOS>MOLECULE
tmp/4y7rA01.pdb
 105 101 0 0 0
SMALL
GASTEIGER

@<TRIPOS>ATOM
      1  N          5.1400   27.2510    2.1670 N.3    19  SER19      -0.1202
      2  CA         6.5560   26.8990    2.0230 C.3    19  SER19       0.2020
      3  C          7.1650   26.3090    3.2850 C.2    19  SER19       0.2619
      4  O          8.1160   25.5170    3.2210 O.2    19  SER19      -0.2717
      5  CB         7.3700   28.1300    1.5860 C.3    19  SER19       0.2103
      6  OG         7.1260   29.2510    2.4240 O.3    19  SER19      -0.2182
      7  N          6.6220   26.6870    4.4370 N.am   20  SER20      -0.1951
      8  CA         7.2000   26.2580    5.7060 C.3    20  SER20       0.1924
      9  C          6.2340   26.4280    6.8760 C.2    20  SER20       0.2314
     10  O          5.4650   27.3880    6.9180 O.2    20  SER20      -0.2863
     11  CB         8.4920   27.0390    5.9770 C.3    20  SER20       0.2116
     12  OG         8.9990   26.7700    7.2700 O.3    20  SER20      -0.2180
     13  N          9.9730   31.8440    1.5620 N.3    61  SER61      -0.1202
     14  CA        10.3540   30.4280    1.5650 C.3    61  SER61       0.2020
     15  C         10.4650   29.8160    2.9580 C.2    61  SER61       0.2618
     16  O         10.3610   28.6030    3.1080 O.2    61  SER61      -0.2717
     17  CB        11.6970   30.2180    0.8390 C.3    61  SER61       0.2103
     18  OG        11.5770   30.4730   -0.5470 O.3    61  SER61      -0.2182
     19  N         10.7020   30.6350    3.9780 N.am   62  ASP62      -0.1973
     20  CA        11.0170   30.0780    5.2920 C.3    62  ASP62       0.1709
     21  C         10.6730   31.0720    6.3940 C.2    62  ASP62       0.2293
     22  O         10.7050   32.2890    6.1800 O.2    62  ASP62      -0.2864
     23  CB        12.5110   29.6940    5.3400 C.3    62  ASP62       0.1436
     24  CG        12.8470   28.6750    6.4370 C.2    62  ASP62       0.3671
     25  OD1       11.9190   28.1080    7.0550 O.co2  62  ASP62      -0.2456
     26  OD2       14.0610   28.4240    6.6660 O.co2  62  ASP62      -0.2456
     27  N         16.4550   31.7750    0.9970 N.3   103  PHE103     -0.1227
     28  CA        15.7320   30.5070    0.9370 C.3   103  PHE103      0.1736
     29  C         15.5450   29.8470    2.3030 C.2   103  PHE103      0.2595
     30  O         14.6890   28.9780    2.4680 O.2   103  PHE103     -0.2718
     31  CB        16.4640   29.5460   -0.0000 C.3   103  PHE103      0.0547
     32  CG        15.6540   28.3530   -0.4150 C.ar  103  PHE103     -0.0202
     33  CD1       14.4830   28.5090   -1.1420 C.ar  103  PHE103     -0.0042
     34  CD2       16.0810   27.0710   -0.1070 C.ar  103  PHE103     -0.0042
     35  CE1       13.7440   27.4070   -1.5370 C.ar  103  PHE103     -0.0003
     36  CE2       15.3510   25.9630   -0.5020 C.ar  103  PHE103     -0.0003
     37  CZ        14.1800   26.1350   -1.2200 C.ar  103  PHE103     -0.0000
     38  N         16.3430   30.2530    3.2850 N.am  104  CYS104     -0.1970
     39  CA        16.2700   29.6230    4.6030 C.3   104  CYS104      0.1712
     40  C         16.8200   30.5170    5.7030 C.2   104  CYS104      0.2296
     41  O         17.7000   31.3420    5.4530 O.2   104  CYS104     -0.2864
     42  CB        17.0260   28.2890    4.5790 C.3   104  CYS104      0.0983
     43  SG        18.7140   28.3990    3.8790 S.3   104  CYS104     -0.0798
     44  N         20.2590   25.5410    0.6340 N.3   145  SER145     -0.1217
     45  CA        18.9020   25.0230    0.8370 C.3   145  SER145      0.1889
     46  C         18.4370   25.0500    2.3010 C.2   145  SER145      0.2288
     47  O         17.2470   25.1710    2.5660 O.2   145  SER145     -0.2866
     48  CB        18.8050   23.5910    0.3000 C.3   145  SER145      0.2089
     49  OG        19.8230   22.7560    0.8540 O.3   145  SER145     -0.2183
     50  N         19.0070   19.0300   -0.1170 N.3   188  SER188     -0.1202
     51  CA        17.8440   19.9070   -0.1600 C.3   188  SER188      0.2020
     52  C         17.3700   20.3190    1.2260 C.2   188  SER188      0.2618
     53  O         16.4330   21.1200    1.3630 O.2   188  SER188     -0.2717
     54  CB        16.7090   19.2060   -0.9030 C.3   188  SER188      0.2103
     55  OG        16.5560   17.8750   -0.4270 O.3   188  SER188     -0.2182
     56  N         18.0070   19.7650    2.2530 N.am  189  PHE189     -0.1975
     57  CA        17.6260   20.0310    3.6360 C.3   189  PHE189      0.1639
     58  C         18.6710   19.4980    4.6060 C.2   189  PHE189      0.2290
     59  O         19.2800   18.4590    4.3520 O.2   189  PHE189     -0.2864
     60  CB        16.2660   19.3980    3.9700 C.3   189  PHE189      0.0560
     61  CG        16.0630   19.1690    5.4450 C.ar  189  PHE189     -0.0200
     62  CD1       15.6190   20.2000    6.2600 C.ar  189  PHE189     -0.0042
     63  CD2       16.3590   17.9380    6.0230 C.ar  189  PHE189     -0.0042
     64  CE1       15.4490   20.0050    7.6190 C.ar  189  PHE189     -0.0003
     65  CE2       16.1960   17.7380    7.3820 C.ar  189  PHE189     -0.0003
     66  CZ        15.7380   18.7730    8.1810 C.ar  189  PHE189     -0.0000
     67  N         12.7480   21.1200   -2.0060 N.3   231  CYS231     -0.1221
     68  CA        13.4040   21.1780   -0.7090 C.3   231  CYS231      0.1808
     69  C         12.3700   20.9110    0.3770 C.2   231  CYS231      0.2601
     70  O         11.6570   21.8120    0.8200 O.2   231  CYS231     -0.2717
     71  CB        14.0960   22.5260   -0.5180 C.3   231  CYS231      0.0970
     72  SG        15.5490   22.7090   -1.6220 S.3   231  CYS231     -0.0800
     73  N         12.2880   19.6480    0.7750 N.am  232  ILE232     -0.1965
     74  CA        11.3080   19.1810    1.7450 C.3   232  ILE232      0.1727
     75  C         11.9120   19.0810    3.1380 C.2   232  ILE232      0.2616
     76  O         12.9310   18.4130    3.3320 O.2   232  ILE232     -0.2715
     77  CB        10.7440   17.8240    1.3170 C.3   232  ILE232      0.0290
     78  CG1       10.0200   17.9520   -0.0250 C.3   232  ILE232      0.0022
     79  CG2        9.8500   17.2620    2.3960 C.3   232  ILE232      0.0023
     80  CD1        9.4140   16.6570   -0.5170 C.3   232  ILE232      0.0001
     81  N         11.2680   19.7260    4.1080 N.am  233  PHE233     -0.1974
     82  CA        11.7630   19.7690    5.4820 C.3   233  PHE233      0.1639
     83  C         11.4730   18.4710    6.2370 C.2   233  PHE233      0.2290
     84  O         10.3650   17.9280    6.1570 O.2   233  PHE233     -0.2864
     85  CB        11.1390   20.9580    6.2270 C.3   233  PHE233      0.0560
     86  CG        11.9250   21.4090    7.4250 C.ar  233  PHE233     -0.0200
     87  CD1       11.7580   20.7940    8.6550 C.ar  233  PHE233     -0.0042
     88  CD2       12.8290   22.4560    7.3190 C.ar  233  PHE233     -0.0042
     89  CE1       12.4910   21.2090    9.7630 C.ar  233  PHE233     -0.0003
     90  CE2       13.5620   22.8790    8.4230 C.ar  233  PHE233     -0.0003
     91  CZ        13.3880   22.2550    9.6450 C.ar  233  PHE233     -0.0000
     92  N          5.6210   19.8700    1.4320 N.3   275  ILE275     -0.1231
     93  CA         6.8910   20.5710    1.3340 C.3   275  ILE275      0.1692
     94  C          7.5270   20.7150    2.7120 C.2   275  ILE275      0.2592
     95  O          8.7430   20.8560    2.8350 O.2   275  ILE275     -0.2718
     96  CB         6.6980   21.9540    0.6700 C.3   275  ILE275      0.0266
     97  CG1        8.0420   22.6100    0.3430 C.3   275  ILE275      0.0019
     98  CG2        5.8710   22.8610    1.5670 C.3   275  ILE275      0.0020
     99  CD1        8.7350   22.0250   -0.8820 C.3   275  ILE275      0.0001
    100  N          6.7000   20.6780    3.7520 N.am  276  SER276     -0.1952
    101  CA         7.1760   21.0000    5.0910 C.3   276  SER276      0.1924
    102  C          6.4570   20.2100    6.1650 C.2   276  SER276      0.2314
    103  O          5.2430   19.9830    6.0950 O.2   276  SER276     -0.2863
    104  CB         7.0180   22.5030    5.3740 C.3   276  SER276      0.2116
    105  OG         7.5500   22.8440    6.6470 O.3   276  SER276     -0.2180
@<TRIPOS>BOND
     1    67    68    1
     2    72    71    1
     3    35    37   ar
     4    35    33   ar
     5    37    36   ar
     6    33    32   ar
     7    54    55    1
     8    54    51    1
     9    99    97    1
    10    68    71    1
    11    68    69    1
    12    18    17    1
    13    80    78    1
    14    36    34   ar
    15    32    34   ar
    16    32    31    1
    17    51    50    1
    18    51    52    1
    19    78    77    1
    20    31    28    1
    21    48    45    1
    22    48    49    1
    23    97    96    1
    24    69    73   am
    25    69    70    2
    26    44    45    1
    27    96    93    1
    28    96    98    1
    29    73    74    1
    30    45    46    1
    31    17    14    1
    32    28    27    1
    33    28    29    1
    34    52    53    2
    35    52    56   am
    36    77    74    1
    37    77    79    1
    38    93    92    1
    39    93    94    1
    40    13    14    1
    41    14    15    1
    42     5     2    1
    43     5     6    1
    44    74    75    1
    45     2     1    1
    46     2     3    1
    47    56    57    1
    48    46    47    2
    49    29    30    2
    50    29    38   am
    51    94    95    2
    52    94   100   am
    53    15    16    2
    54    15    19   am
    55    75    76    2
    56    75    81   am
    57     4     3    2
    58    38    39    1
    59     3     7   am
    60    57    60    1
    61    57    58    1
    62   100   101    1
    63    43    42    1
    64    60    61    1
    65    19    20    1
    66    81    82    1
    67    59    58    2
    68     7     8    1
    69    42    39    1
    70    39    40    1
    71   101   104    1
    72   101   102    1
    73    20    23    1
    74    20    21    1
    75    23    24    1
    76   104   105    1
    77    61    63   ar
    78    61    62   ar
    79    41    40    2
    80    82    85    1
    81    82    83    1
    82     8    11    1
    83     8     9    1
    84    11    12    1
    85    63    65   ar
    86   103   102    2
    87    84    83    2
    88    22    21    2
    89    85    86    1
    90    62    64   ar
    91    24    26   ar
    92    24    25   ar
    93     9    10    2
    94    88    86   ar
    95    88    90   ar
    96    65    66   ar
    97    86    87   ar
    98    64    66   ar
    99    90    91   ar
   100    87    89   ar
   101    91    89   ar
