@<TRIPOS>MOLECULE
tmp/4y7sB01.pdb
 167 169 0 0 0
SMALL
GASTEIGER

@<TRIPOS>ATOM
      1  N         58.1410    8.2290   21.5080 N.3     1  ASN1       -0.1226
      2  CA        56.7030    8.4950   21.4970 C.3     1  ASN1        0.1770
      3  C         55.9090    7.2010   21.6620 C.2     1  ASN1        0.2439
      4  O         56.1960    6.2200   20.9790 O.2     1  ASN1       -0.2733
      5  CB        56.3190    9.1610   20.1770 C.3     1  ASN1        0.1168
      6  CG        54.8750    9.6150   20.1380 C.2     1  ASN1        0.2627
      7  OD1       53.9540    8.8030   20.0880 O.2     1  ASN1       -0.2716
      8  ND2       54.6740   10.9260   20.1350 N.am    1  ASN1       -0.0877
      9  N         54.8850    7.1920   22.5320 N.am    2  PRO2       -0.2718
     10  CA        54.2230    5.8880   22.7180 C.3     2  PRO2        0.1535
     11  C         53.2980    5.4250   21.5810 C.2     2  PRO2        0.2599
     12  O         53.0010    4.2400   21.4890 O.2     2  PRO2       -0.2715
     13  CB        53.4230    6.0900   24.0160 C.3     2  PRO2        0.0310
     14  CG        53.2760    7.5370   24.1860 C.3     2  PRO2        0.0237
     15  CD        54.4510    8.1890   23.5280 C.3     2  PRO2        0.0939
     16  N         52.9190    6.3240   20.6830 N.am    3  TYR3       -0.1960
     17  CA        51.8940    6.0340   19.6770 C.3     3  TYR3        0.1771
     18  C         52.4250    5.5710   18.3110 C.2     3  TYR3        0.2620
     19  O         51.6580    5.4920   17.3550 O.2     3  TYR3       -0.2715
     20  CB        51.0040    7.2580   19.5220 C.3     3  TYR3        0.0574
     21  CG        50.2640    7.5840   20.8010 C.ar    3  TYR3       -0.0198
     22  CD1       49.1160    6.8810   21.1560 C.ar    3  TYR3       -0.0009
     23  CD2       50.7450    8.5410   21.6890 C.ar    3  TYR3       -0.0009
     24  CE1       48.4300    7.1720   22.3300 C.ar    3  TYR3        0.0417
     25  CE2       50.0780    8.8230   22.8640 C.ar    3  TYR3        0.0417
     26  CZ        48.9260    8.1280   23.1820 C.ar    3  TYR3        0.1957
     27  OH        48.2660    8.3970   24.3550 O.3     3  TYR3       -0.2866
     28  N         53.7190    5.2600   18.2070 N.am    4  THR4       -0.1951
     29  CA        54.2860    4.8670   16.9110 C.3     4  THR4        0.1897
     30  C         53.8890    3.4300   16.5510 C.2     4  THR4        0.2313
     31  O         54.1470    2.9800   15.4420 O.2     4  THR4       -0.2863
     32  CB        55.8270    4.9610   16.8930 C.3     4  THR4        0.1794
     33  OG1       56.3900    3.9540   17.7390 O.3     4  THR4       -0.2208
     34  CG2       56.3000    6.3620   17.3200 C.3     4  THR4        0.0378
     35  N         50.8990    2.6840   16.1580 N.3     6  TYR6       -0.1228
     36  CA        49.6870    2.9060   15.3740 C.3     6  TYR6        0.1721
     37  C         50.0880    3.4210   14.0030 C.2     6  TYR6        0.2437
     38  O         51.2220    3.9130   13.8320 O.2     6  TYR6       -0.2733
     39  CB        48.7580    3.8870   16.0890 C.3     6  TYR6        0.0547
     40  CG        48.3260    3.3340   17.4320 C.ar    6  TYR6       -0.0200
     41  CD1       47.5150    2.2110   17.5110 C.ar    6  TYR6       -0.0009
     42  CD2       48.7830    3.8940   18.6160 C.ar    6  TYR6       -0.0009
     43  CE1       47.1300    1.6720   18.7550 C.ar    6  TYR6        0.0417
     44  CE2       48.4130    3.3670   19.8530 C.ar    6  TYR6        0.0417
     45  CZ        47.5850    2.2490   19.9110 C.ar    6  TYR6        0.1957
     46  OH        47.2080    1.7070   21.1230 O.3     6  TYR6       -0.2866
     47  N         49.1830    3.2910   13.0110 N.am    7  PRO7       -0.2718
     48  CA        49.3950    3.9180   11.7020 C.3     7  PRO7        0.1520
     49  C         49.5510    5.4240   11.8740 C.2     7  PRO7        0.2440
     50  O         48.8110    6.0020   12.6680 O.2     7  PRO7       -0.2731
     51  CB        48.1040    3.6040   10.9300 C.3     7  PRO7        0.0310
     52  CG        47.5580    2.3970   11.5990 C.3     7  PRO7        0.0237
     53  CD        47.9230    2.5230   13.0460 C.3     7  PRO7        0.0939
     54  N         50.4910    6.0460   11.1610 N.am    8  PRO8       -0.2716
     55  CA        50.6910    7.4920   11.2850 C.3     8  PRO8        0.1536
     56  C         49.5080    8.3110   10.8040 C.2     8  PRO8        0.2598
     57  O         48.7450    7.8480    9.9620 O.2     8  PRO8       -0.2715
     58  CB        51.9080    7.7580   10.4020 C.3     8  PRO8        0.0310
     59  CG        51.9200    6.6480    9.4220 C.3     8  PRO8        0.0237
     60  CD        51.3540    5.4510   10.1300 C.3     8  PRO8        0.0939
     61  N         49.3500    9.4990   11.3750 N.am    9  VAL9       -0.1978
     62  CA        48.3250   10.4440   10.9550 C.3     9  VAL9        0.1596
     63  C         48.9720   11.8020   10.7210 C.2     9  VAL9        0.2287
     64  O         49.9700   12.1360   11.3640 O.2     9  VAL9       -0.2864
     65  CB        47.1960   10.5950   12.0040 C.3     9  VAL9        0.0276
     66  CG1       46.3530    9.3570   12.0560 C.3     9  VAL9        0.0022
     67  CG2       47.7930   10.9270   13.3700 C.3     9  VAL9        0.0022
     68  N         49.7830   15.5270   11.1990 N.3    11  LYS11      -0.1245
     69  CA        49.8430   16.3210   12.3850 C.3    11  LYS11       0.1561
     70  C         49.2410   17.7070   12.2470 C.2    11  LYS11       0.2260
     71  O         49.5200   18.5810   13.0360 O.2    11  LYS11      -0.2867
     72  CB        51.2720   16.5340   12.7590 C.3    11  LYS11       0.0271
     73  CG        52.0670   15.2650   12.9300 C.3    11  LYS11       0.0035
     74  CD        51.6500   14.5620   14.1830 C.3    11  LYS11       0.0206
     75  CE        52.5910   13.4150   14.4750 C.3    11  LYS11       0.1093
     76  NZ        53.8470   13.8950   15.1200 N.3    11  LYS11      -0.1314
     77  N         41.2280   15.4170   25.7420 N.3    42  PRO42      -0.2116
     78  CA        42.6850   15.4140   25.9100 C.3    42  PRO42       0.1372
     79  C         43.4000   15.1180   24.5960 C.2    42  PRO42       0.2244
     80  O         44.6060   14.8750   24.5880 O.2    42  PRO42      -0.2868
     81  CB        42.9080   14.2940   26.9260 C.3    42  PRO42       0.0268
     82  CG        41.8230   13.3100   26.6130 C.3    42  PRO42       0.0207
     83  CD        40.6240   14.1420   26.1710 C.3    42  PRO42       0.0892
     84  N         45.0610   15.6350   20.8870 N.3    44  PRO44      -0.2116
     85  CA        45.5080   16.5620   19.8470 C.3    44  PRO44       0.1372
     86  C         44.4100   16.6680   18.7940 C.2    44  PRO44       0.2244
     87  O         43.7790   15.6490   18.5060 O.2    44  PRO44      -0.2868
     88  CB        46.7740   15.8920   19.2820 C.3    44  PRO44       0.0268
     89  CG        47.2190   14.9640   20.3450 C.3    44  PRO44       0.0207
     90  CD        45.9670   14.4830   21.0120 C.3    44  PRO44       0.0892
     91  N         44.3070   16.8090   15.7720 N.3    46  TRP46      -0.1227
     92  CA        44.5600   16.0340   14.5560 C.3    46  TRP46       0.1737
     93  C         44.5400   14.5220   14.7780 C.2    46  TRP46       0.2595
     94  O         44.7070   13.7400   13.8390 O.2    46  TRP46      -0.2718
     95  CB        45.9070   16.4310   13.9450 C.3    46  TRP46       0.0564
     96  CG        47.0320   16.5470   14.9360 C.ar   46  TRP46       0.0003
     97  CD1       47.5590   17.7040   15.4370 C.ar   46  TRP46       0.0946
     98  CD2       47.7590   15.4770   15.5490 C.ar   46  TRP46       0.0152
     99  NE1       48.5710   17.4170   16.3180 N.ar   46  TRP46      -0.2442
    100  CE2       48.7160   16.0590   16.4050 C.ar   46  TRP46       0.0810
    101  CE3       47.7000   14.0860   15.4550 C.ar   46  TRP46       0.0012
    102  CZ2       49.5990   15.3000   17.1620 C.ar   46  TRP46       0.0191
    103  CZ3       48.5730   13.3330   16.2090 C.ar   46  TRP46       0.0001
    104  CH2       49.5140   13.9410   17.0520 C.ar   46  TRP46       0.0015
    105  N         44.3420   14.1130   16.0210 N.am   47  ASP47      -0.1974
    106  CA        44.4750   12.7170   16.4150 C.3    47  ASP47       0.1709
    107  C         43.1910   11.9070   16.2560 C.2    47  ASP47       0.2293
    108  O         42.3710   11.8320   17.1810 O.2    47  ASP47      -0.2864
    109  CB        44.9220   12.6680   17.8700 C.3    47  ASP47       0.1436
    110  CG        45.2220   11.2780   18.3520 C.2    47  ASP47       0.3671
    111  OD1       44.9260   10.2630   17.6800 O.co2  47  ASP47      -0.2456
    112  OD2       45.7340   11.2170   19.4750 O.co2  47  ASP47      -0.2456
    113  N         42.5180    8.5570   16.1940 N.3    49  GLY49      -0.1210
    114  CA        42.3280    7.4910   17.1520 C.3    49  GLY49       0.1956
    115  C         41.7940    7.9890   18.4840 C.2    49  GLY49       0.2612
    116  O         40.8630    7.4200   19.0420 O.2    49  GLY49      -0.2717
    117  N         42.3900    9.0500   18.9960 N.am   50  CYS50      -0.1970
    118  CA        41.9510    9.6140   20.2580 C.3    50  CYS50       0.1712
    119  C         40.5240   10.1270   20.1280 C.2    50  CYS50       0.2296
    120  O         39.7060    9.9300   21.0280 O.2    50  CYS50      -0.2864
    121  CB        42.8870   10.7110   20.7030 C.3    50  CYS50       0.0983
    122  SG        42.5130   11.4140   22.3390 S.3    50  CYS50      -0.0798
    123  N         37.6510    7.5620   20.5790 N.3    53  VAL53      -0.1231
    124  CA        37.4160    6.8600   21.8480 C.3    53  VAL53       0.1692
    125  C         37.0320    7.7670   23.0240 C.2    53  VAL53       0.2591
    126  O         36.7100    7.2740   24.1000 O.2    53  VAL53      -0.2718
    127  CB        38.6660    6.0190   22.2650 C.3    53  VAL53       0.0266
    128  CG1       39.0680    5.0940   21.1290 C.3    53  VAL53       0.0020
    129  CG2       39.8520    6.9040   22.7090 C.3    53  VAL53       0.0020
    130  N         37.0700    9.0780   22.8450 N.am   54  ILE54      -0.1980
    131  CA        36.7010    9.9860   23.9490 C.3    54  ILE54       0.1595
    132  C         35.2010   10.2450   23.9060 C.2    54  ILE54       0.2287
    133  O         34.7070   10.8940   22.9830 O.2    54  ILE54      -0.2864
    134  CB        37.4690   11.3190   23.8880 C.3    54  ILE54       0.0276
    135  CG1       38.9750   11.0830   23.9910 C.3    54  ILE54       0.0022
    136  CG2       37.0340   12.2310   25.0030 C.3    54  ILE54       0.0022
    137  CD1       39.4380   10.4140   25.2840 C.3    54  ILE54       0.0001
    138  N         42.5830    3.6890   11.9900 N.3    88  ALA88      -0.1231
    139  CA        43.4970    4.4350   12.8310 C.3    88  ALA88       0.1694
    140  C         44.1180    3.5460   13.9090 C.2    88  ALA88       0.2593
    141  O         45.1280    3.9180   14.5050 O.2    88  ALA88      -0.2718
    142  CB        42.7770    5.6170   13.4780 C.3    88  ALA88       0.0304
    143  N         43.5400    2.3660   14.1190 N.am   89  GLY89      -0.1942
    144  CA        44.0870    1.3830   15.0440 C.3    89  GLY89       0.2014
    145  C         43.3070    1.2160   16.3400 C.2    89  GLY89       0.2639
    146  O         43.7780    0.5690   17.2810 O.2    89  GLY89      -0.2714
    147  N         42.1050    1.7760   16.3920 N.am   90  VAL90      -0.1963
    148  CA        41.2650    1.6670   17.5880 C.3    90  VAL90       0.1727
    149  C         40.7520    0.2420   17.7400 C.2    90  VAL90       0.2616
    150  O         40.5850   -0.4700   16.7600 O.2    90  VAL90      -0.2715
    151  CB        40.0730    2.6430   17.5110 C.3    90  VAL90       0.0290
    152  CG1       39.2090    2.5830   18.7520 C.3    90  VAL90       0.0023
    153  CG2       40.5790    4.0280   17.3170 C.3    90  VAL90       0.0023
    154  N         40.5300   -0.1740   18.9810 N.am   91  TRP91      -0.1974
    155  CA        39.9410   -1.4750   19.2680 C.3    91  TRP91       0.1640
    156  C         38.4280   -1.4870   18.9890 C.2    91  TRP91       0.2290
    157  O         37.8010   -0.4430   18.9100 O.2    91  TRP91      -0.2864
    158  CB        40.1940   -1.8680   20.7200 C.3    91  TRP91       0.0576
    159  CG        39.6810   -0.8480   21.6910 C.ar   91  TRP91       0.0006
    160  CD1       38.4340   -0.8180   22.2640 C.ar   91  TRP91       0.0946
    161  CD2       40.3840    0.2860   22.2050 C.ar   91  TRP91       0.0152
    162  NE1       38.3230    0.2660   23.1020 N.ar   91  TRP91      -0.2442
    163  CE2       39.5040    0.9590   23.0870 C.ar   91  TRP91       0.0810
    164  CE3       41.6740    0.7970   22.0180 C.ar   91  TRP91       0.0012
    165  CZ2       39.8720    2.1130   23.7730 C.ar   91  TRP91       0.0191
    166  CZ3       42.0360    1.9590   22.7060 C.ar   91  TRP91       0.0001
    167  CH2       41.1320    2.6030   23.5670 C.ar   91  TRP91       0.0015
@<TRIPOS>BOND
     1    59    60    1
     2    59    58    1
     3    57    56    2
     4    60    54    1
     5    58    55    1
     6    63    62    1
     7    63    64    2
     8    56    55    1
     9    56    61   am
    10    51    52    1
    11    51    48    1
    12    62    61    1
    13    62    65    1
    14    54    55    1
    15    54    49   am
    16    68    69    1
    17    52    53    1
    18    48    49    1
    19    48    47    1
    20    49    50    2
    21   138   139    1
    22    65    66    1
    23    65    67    1
    24    70    69    1
    25    70    71    2
    26    69    72    1
    27    72    73    1
    28   139   142    1
    29   139   140    1
    30    73    74    1
    31    47    53    1
    32    47    37   am
    33    38    37    2
    34    94    93    2
    35   140   143   am
    36   140   141    2
    37    95    92    1
    38    95    96    1
    39    37    36    1
    40   143   144    1
    41    74    75    1
    42    75    76    1
    43    92    93    1
    44    92    91    1
    45    93   105   am
    46    96    97   ar
    47    96    98   ar
    48   144   145    1
    49    36    39    1
    50    36    35    1
    51    97    99   ar
    52    31    30    2
    53   101    98   ar
    54   101   103   ar
    55    98   100   ar
    56   105   106    1
    57    39    40    1
    58   113   114    1
    59   103   104   ar
    60   107   106    1
    61   107   108    2
    62    99   100   ar
    63   145   147   am
    64   145   146    2
    65   147   148    1
    66   100   102   ar
    67   106   109    1
    68    30    29    1
    69   150   149    2
    70    32    29    1
    71    32    34    1
    72    32    33    1
    73    29    28    1
    74   104   102   ar
    75   114   115    1
    76   153   151    1
    77    19    18    2
    78    40    41   ar
    79    40    42   ar
    80   151   148    1
    81   151   152    1
    82    41    43   ar
    83   148   149    1
    84   111   110   ar
    85   149   154   am
    86   109   110    1
    87    28    18   am
    88    18    17    1
    89   110   112   ar
    90   115   117   am
    91   115   116    2
    92    87    86    2
    93    42    44   ar
    94    43    45   ar
    95    86    85    1
    96   157   156    2
    97   154   155    1
    98   156   155    1
    99   117   118    1
   100   155   158    1
   101    88    85    1
   102    88    89    1
   103    20    17    1
   104    20    21    1
   105    17    16    1
   106    85    84    1
   107    44    45   ar
   108    45    46    1
   109     7     6    2
   110   119   118    1
   111   119   120    2
   112     8     6   am
   113     6     5    1
   114     5     2    1
   115   118   121    1
   116    89    90    1
   117   123   124    1
   118    16    11   am
   119   121   122    1
   120   158   159    1
   121    21    22   ar
   122    21    23   ar
   123    84    90    1
   124     4     3    2
   125   128   127    1
   126    22    24   ar
   127    12    11    2
   128     2     1    1
   129     2     3    1
   130    11    10    1
   131     3     9   am
   132    23    25   ar
   133   159   161   ar
   134   159   160   ar
   135   124   127    1
   136   124   125    1
   137   164   161   ar
   138   164   166   ar
   139   161   163   ar
   140   160   162   ar
   141   127   129    1
   142    24    26   ar
   143     9    10    1
   144     9    15    1
   145   166   167   ar
   146    10    13    1
   147   130   125   am
   148   130   131    1
   149    25    26   ar
   150   133   132    2
   151   125   126    2
   152   163   162   ar
   153   163   165   ar
   154    26    27    1
   155    15    14    1
   156   167   165   ar
   157   134   131    1
   158   134   135    1
   159   134   136    1
   160   132   131    1
   161   135   137    1
   162    13    14    1
   163    80    79    2
   164    79    78    1
   165    77    78    1
   166    77    83    1
   167    78    81    1
   168    83    82    1
   169    82    81    1
