@<TRIPOS>MOLECULE
tmp/4y7uA01.pdb
 174 166 0 0 0
SMALL
GASTEIGER

@<TRIPOS>ATOM
      1  N        -12.9920  -30.0340    6.4950 N.3     6  LEU6       -0.1245
      2  CA       -12.0060  -30.7730    7.2760 C.3     6  LEU6        0.1561
      3  C        -11.3560  -31.8210    6.3690 C.2     6  LEU6        0.2260
      4  O        -12.0370  -32.6690    5.7880 O.2     6  LEU6       -0.2867
      5  CB       -12.6560  -31.4560    8.4830 C.3     6  LEU6        0.0270
      6  CG       -13.4180  -30.5960    9.4960 C.3     6  LEU6        0.0019
      7  CD1      -14.2020  -31.4890   10.4600 C.3     6  LEU6        0.0001
      8  CD2      -12.4410  -29.7050   10.2850 C.3     6  LEU6        0.0001
      9  N         -7.9870  -46.3000    7.8570 N.3    13  ARG13      -0.1245
     10  CA        -8.9120  -47.3770    7.5310 C.3    13  ARG13       0.1563
     11  C         -9.0960  -47.5140    6.0290 C.2    13  ARG13       0.2260
     12  O         -9.6380  -48.5160    5.5640 O.2    13  ARG13      -0.2867
     13  CB       -10.2600  -47.1520    8.2090 C.3    13  ARG13       0.0307
     14  CG       -10.2470  -47.4170    9.7000 C.3    13  ARG13       0.0489
     15  CD       -11.6130  -47.1430   10.2950 C.3    13  ARG13       0.2205
     16  NE       -12.0770  -45.8080    9.9360 N.pl3  13  ARG13      -0.0865
     17  CZ       -13.3290  -45.3900   10.0770 C.cat  13  ARG13       0.5346
     18  NH1      -13.6580  -44.1540    9.7240 N.pl3  13  ARG13       0.1354
     19  NH2      -14.2510  -46.2100   10.5650 N.pl3  13  ARG13       0.1354
     20  N        -10.4710  -32.4880   15.3840 N.3    85  THR85      -0.1218
     21  CA       -11.4500  -31.6260   14.7410 C.3    85  THR85       0.1862
     22  C        -11.5170  -30.2420   15.3810 C.2    85  THR85       0.2287
     23  O        -11.4320  -29.2220   14.6850 O.2    85  THR85      -0.2866
     24  CB       -12.8380  -32.2710   14.7700 C.3    85  THR85       0.1770
     25  OG1      -12.7430  -33.5840   14.2100 O.3    85  THR85      -0.2211
     26  CG2      -13.8300  -31.4450   13.9690 C.3    85  THR85       0.0375
     27  N        -19.3470  -25.7150    8.0670 N.3   103  LEU103     -0.1245
     28  CA       -18.3080  -26.6880    8.3760 C.3   103  LEU103      0.1561
     29  C        -18.7030  -28.0170    7.7660 C.2   103  LEU103      0.2260
     30  O        -19.8020  -28.5090    8.0260 O.2   103  LEU103     -0.2867
     31  CB       -18.1190  -26.8400    9.8830 C.3   103  LEU103      0.0270
     32  CG       -17.0150  -27.8370   10.2580 C.3   103  LEU103      0.0019
     33  CD1      -15.6860  -27.3550    9.6990 C.3   103  LEU103      0.0001
     34  CD2      -16.9330  -28.0320   11.7510 C.3   103  LEU103      0.0001
     35  N        -17.2820  -31.9400    7.0180 N.3   105  ASN105     -0.1240
     36  CA       -16.3110  -33.0140    7.1730 C.3   105  ASN105      0.1653
     37  C        -16.0160  -33.5900    5.7890 C.2   105  ASN105      0.2266
     38  O        -16.8860  -34.1390    5.1230 O.2   105  ASN105     -0.2867
     39  CB       -16.8470  -34.0610    8.1530 C.3   105  ASN105      0.1155
     40  CG       -15.8860  -35.1830    8.3950 C.2   105  ASN105      0.2627
     41  OD1      -15.0900  -35.5370    7.5250 O.2   105  ASN105     -0.2716
     42  ND2      -15.9600  -35.7680    9.5820 N.am  105  ASN105     -0.0877
     43  N        -14.6780  -36.0770    4.5810 N.3   107  ASP107     -0.1225
     44  CA       -14.8200  -37.5230    4.3430 C.3   107  ASP107      0.1805
     45  C        -16.2280  -37.8830    3.8810 C.2   107  ASP107      0.2597
     46  O        -16.4680  -39.0050    3.4200 O.2   107  ASP107     -0.2718
     47  CB       -14.5110  -38.3300    5.6070 C.3   107  ASP107      0.1424
     48  CG       -13.0450  -38.2930    5.9910 C.2   107  ASP107      0.3668
     49  OD1      -12.2790  -37.5030    5.3880 O.co2 107  ASP107     -0.2456
     50  OD2      -12.6690  -39.0550    6.9090 O.co2 107  ASP107     -0.2456
     51  N        -17.1610  -36.9390    4.0320 N.am  108  VAL108     -0.1980
     52  CA       -18.5580  -37.1920    3.7180 C.3   108  VAL108      0.1595
     53  C        -18.8410  -37.0980    2.2280 C.2   108  VAL108      0.2287
     54  O        -18.2720  -36.2580    1.5230 O.2   108  VAL108     -0.2864
     55  CB       -19.4660  -36.1990    4.4810 C.3   108  VAL108      0.0276
     56  CG1      -20.8560  -36.1120    3.8500 C.3   108  VAL108      0.0022
     57  CG2      -19.5490  -36.6030    5.9340 C.3   108  VAL108      0.0022
     58  N        -26.0830  -44.8160   10.9860 N.3   133  PRO133     -0.2116
     59  CA       -25.5780  -45.8050   10.0290 C.3   133  PRO133      0.1372
     60  C        -25.4230  -47.1740   10.6790 C.2   133  PRO133      0.2244
     61  O        -25.0230  -47.2550   11.8390 O.2   133  PRO133     -0.2868
     62  CB       -24.2120  -45.2440    9.6170 C.3   133  PRO133      0.0268
     63  CG       -24.2020  -43.8190   10.1050 C.3   133  PRO133      0.0207
     64  CD       -25.0640  -43.8130   11.3220 C.3   133  PRO133      0.0892
     65  N        -25.7020  -40.0290   18.2380 N.3   140  ASP140     -0.1225
     66  CA       -24.9900  -39.0070   18.9980 C.3   140  ASP140      0.1805
     67  C        -25.9530  -38.1000   19.7530 C.2   140  ASP140      0.2597
     68  O        -25.7750  -37.8380   20.9410 O.2   140  ASP140     -0.2718
     69  CB       -24.1210  -38.1400   18.0750 C.3   140  ASP140      0.1424
     70  CG       -23.1980  -38.9540   17.1840 C.2   140  ASP140      0.3668
     71  OD1      -22.5210  -39.8730   17.6970 O.co2 140  ASP140     -0.2456
     72  OD2      -23.1480  -38.6660   15.9670 O.co2 140  ASP140     -0.2456
     73  N        -26.9670  -37.6070   19.0440 N.am  141  PHE141     -0.1976
     74  CA       -27.8380  -36.5720   19.5820 C.3   141  PHE141      0.1639
     75  C        -29.3110  -36.8930   19.3540 C.2   141  PHE141      0.2290
     76  O        -29.6600  -37.8580   18.6630 O.2   141  PHE141     -0.2864
     77  CB       -27.5110  -35.2090   18.9490 C.3   141  PHE141      0.0560
     78  CG       -26.0390  -34.8830   18.9120 C.ar  141  PHE141     -0.0200
     79  CD1      -25.3300  -34.6570   20.0840 C.ar  141  PHE141     -0.0042
     80  CD2      -25.3640  -34.7960   17.6990 C.ar  141  PHE141     -0.0042
     81  CE1      -23.9710  -34.3590   20.0510 C.ar  141  PHE141     -0.0003
     82  CE2      -24.0110  -34.4940   17.6580 C.ar  141  PHE141     -0.0003
     83  CZ       -23.3140  -34.2770   18.8370 C.ar  141  PHE141     -0.0000
     84  N        -27.5450  -39.2300   14.1810 N.3   159  THR159     -0.1203
     85  CA       -26.1000  -39.1770   14.0090 C.3   159  THR159      0.1994
     86  C        -25.7120  -37.8340   13.4120 C.2   159  THR159      0.2618
     87  O        -26.3940  -37.3040   12.5160 O.2   159  THR159     -0.2717
     88  CB       -25.5870  -40.3210   13.1100 C.3   159  THR159      0.1784
     89  OG1      -25.6820  -41.5680   13.8100 O.3   159  THR159     -0.2211
     90  CG2      -24.1180  -40.0950   12.7080 C.3   159  THR159      0.0376
     91  N        -24.6200  -37.2660   13.9080 N.am  160  PHE160     -0.1961
     92  CA       -24.1450  -36.0060   13.3470 C.3   160  PHE160      0.1771
     93  C        -23.5510  -36.2430   11.9570 C.2   160  PHE160      0.2620
     94  O        -22.6890  -37.0970   11.7790 O.2   160  PHE160     -0.2715
     95  CB       -23.1180  -35.3520   14.2800 C.3   160  PHE160      0.0574
     96  CG       -22.5320  -34.0790   13.7260 C.ar  160  PHE160     -0.0200
     97  CD1      -23.3270  -33.1660   13.0540 C.ar  160  PHE160     -0.0042
     98  CD2      -21.1880  -33.8100   13.8570 C.ar  160  PHE160     -0.0042
     99  CE1      -22.7910  -32.0150   12.5190 C.ar  160  PHE160     -0.0003
    100  CE2      -20.6490  -32.6420   13.3350 C.ar  160  PHE160     -0.0003
    101  CZ       -21.4490  -31.7480   12.6710 C.ar  160  PHE160     -0.0000
    102  N        -24.0130  -35.4690   10.9790 N.am  161  SER161     -0.1936
    103  CA       -23.6640  -35.6950    9.5890 C.3   161  SER161      0.2055
    104  C        -22.2890  -35.1440    9.2300 C.2   161  SER161      0.2643
    105  O        -21.7770  -35.4410    8.1620 O.2   161  SER161     -0.2714
    106  CB       -24.7010  -35.0430    8.6650 C.3   161  SER161      0.2130
    107  OG       -24.5800  -33.6260    8.7030 O.3   161  SER161     -0.2179
    108  N        -21.7250  -34.3140   10.1030 N.am  162  GLY162     -0.1954
    109  CA       -20.4840  -33.6410    9.7470 C.3   162  GLY162      0.1869
    110  C        -20.7640  -32.4320    8.8700 C.2   162  GLY162      0.2309
    111  O        -19.8790  -31.8930    8.1980 O.2   162  GLY162     -0.2863
    112  N        -11.3220  -31.8340   21.0650 N.3   180  LYS180     -0.1231
    113  CA       -12.4480  -32.3930   20.3270 C.3   180  LYS180      0.1693
    114  C        -13.5900  -31.3900   20.1810 C.2   180  LYS180      0.2592
    115  O        -13.8020  -30.5320   21.0400 O.2   180  LYS180     -0.2718
    116  CB       -12.9490  -33.6660   21.0090 C.3   180  LYS180      0.0285
    117  CG       -11.9180  -34.3150   21.9210 C.3   180  LYS180      0.0035
    118  CD       -12.2690  -35.7560   22.2450 C.3   180  LYS180      0.0206
    119  CE       -11.7140  -36.7180   21.1970 C.3   180  LYS180      0.1093
    120  NZ       -12.2680  -36.4700   19.8350 N.3   180  LYS180     -0.1314
    121  N        -14.3140  -31.5100   19.0760 N.am  181  LEU181     -0.1966
    122  CA       -15.4020  -30.5940   18.7590 C.3   181  LEU181      0.1728
    123  C        -16.7020  -30.9590   19.4720 C.2   181  LEU181      0.2616
    124  O        -17.4080  -30.0810   19.9640 O.2   181  LEU181     -0.2715
    125  CB       -15.6390  -30.5620   17.2560 C.3   181  LEU181      0.0311
    126  CG       -16.9420  -29.8560   16.8830 C.3   181  LEU181      0.0022
    127  CD1      -16.8340  -28.3830   17.2400 C.3   181  LEU181      0.0001
    128  CD2      -17.2750  -30.0630   15.4160 C.3   181  LEU181      0.0001
    129  N        -17.0080  -32.2530   19.5160 N.am  182  ALA182     -0.1977
    130  CA       -18.2510  -32.7330   20.1090 C.3   182  ALA182      0.1597
    131  C        -18.4960  -32.1340   21.4960 C.2   182  ALA182      0.2287
    132  O        -19.5360  -31.5220   21.7240 O.2   182  ALA182     -0.2864
    133  CB       -18.2510  -34.2560   20.1750 C.3   182  ALA182      0.0319
    134  N        -19.8100  -28.7370   21.5230 N.3   185  LEU185     -0.1231
    135  CA       -21.1980  -28.7030   21.0570 C.3   185  LEU185      0.1693
    136  C        -22.1810  -29.0620   22.1600 C.2   185  LEU185      0.2591
    137  O        -23.3260  -28.6180   22.1470 O.2   185  LEU185     -0.2718
    138  CB       -21.3760  -29.6420   19.8620 C.3   185  LEU185      0.0284
    139  CG       -20.6540  -29.2880   18.5590 C.3   185  LEU185      0.0019
    140  CD1      -20.7220  -30.4560   17.5790 C.3   185  LEU185      0.0001
    141  CD2      -21.2350  -28.0340   17.9290 C.3   185  LEU185      0.0001
    142  N        -21.7360  -29.8500   23.1290 N.am  186  ARG186     -0.1980
    143  CA       -22.6130  -30.2410   24.2250 C.3   186  ARG186      0.1597
    144  C        -22.7290  -29.1460   25.2740 C.2   186  ARG186      0.2287
    145  O        -23.7470  -29.0500   25.9600 O.2   186  ARG186     -0.2864
    146  CB       -22.1180  -31.5390   24.8530 C.3   186  ARG186      0.0334
    147  CG       -21.6950  -32.5350   23.8020 C.3   186  ARG186      0.0492
    148  CD       -21.8470  -33.9710   24.2380 C.3   186  ARG186      0.2205
    149  NE       -21.4490  -34.8600   23.1500 N.pl3 186  ARG186     -0.0865
    150  CZ       -21.7120  -36.1620   23.1010 C.cat 186  ARG186      0.5346
    151  NH1      -21.3030  -36.8780   22.0590 N.pl3 186  ARG186      0.1354
    152  NH2      -22.3860  -36.7450   24.0850 N.pl3 186  ARG186      0.1354
    153  N        -26.4100  -39.9370    2.3700 N.3   203  TRP203     -0.1241
    154  CA       -25.2730  -39.4990    3.1650 C.3   203  TRP203      0.1605
    155  C        -24.4300  -40.7200    3.4820 C.2   203  TRP203      0.2264
    156  O        -24.9570  -41.7630    3.9190 O.2   203  TRP203     -0.2867
    157  CB       -25.7430  -38.7870    4.4440 C.3   203  TRP203      0.0550
    158  CG       -24.6470  -38.4200    5.4000 C.ar  203  TRP203      0.0003
    159  CD1      -23.9710  -37.2300    5.4600 C.ar  203  TRP203      0.0946
    160  CD2      -24.1190  -39.2390    6.4520 C.ar  203  TRP203      0.0152
    161  NE1      -23.0440  -37.2620    6.4770 N.ar  203  TRP203     -0.2442
    162  CE2      -23.1100  -38.4860    7.0970 C.ar  203  TRP203      0.0810
    163  CE3      -24.3780  -40.5420    6.8940 C.ar  203  TRP203      0.0012
    164  CZ2      -22.3750  -38.9930    8.1670 C.ar  203  TRP203      0.0191
    165  CZ3      -23.6420  -41.0410    7.9590 C.ar  203  TRP203      0.0001
    166  CH2      -22.6530  -40.2650    8.5790 C.ar  203  TRP203      0.0015
    167  N        -20.5250  -41.6180    5.2630 N.3   205  ASP205     -0.1239
    168  CA       -19.2560  -41.2120    5.8490 C.3   205  ASP205      0.1674
    169  C        -18.2110  -42.1480    5.2340 C.2   205  ASP205      0.2266
    170  O        -18.1570  -43.3120    5.6000 O.2   205  ASP205     -0.2867
    171  CB       -19.2980  -41.3270    7.3780 C.3   205  ASP205      0.1410
    172  CG       -17.9970  -40.8980    8.0470 C.2   205  ASP205      0.3668
    173  OD1      -17.0060  -40.6130    7.3420 O.co2 205  ASP205     -0.2456
    174  OD2      -17.9640  -40.8560    9.2950 O.co2 205  ASP205     -0.2456
@<TRIPOS>BOND
     1    54    53    2
     2    53    52    1
     3   153   154    1
     4   154   155    1
     5   154   157    1
     6    46    45    2
     7   155   156    2
     8    52    51    1
     9    52    55    1
    10    56    55    1
    11    45    51   am
    12    45    44    1
    13    44    43    1
    14    44    47    1
    15   157   158    1
    16    55    57    1
    17    38    37    2
    18   169   170    2
    19   169   168    1
    20   167   168    1
    21    49    48   ar
    22   158   159   ar
    23   158   160   ar
    24   159   161   ar
    25    12    11    2
    26    47    48    1
    27     4     3    2
    28    37    36    1
    29   168   171    1
    30    48    50   ar
    31    11    10    1
    32     3     2    1
    33   160   163   ar
    34   160   162   ar
    35   161   162   ar
    36     1     2    1
    37   163   165   ar
    38    35    36    1
    39   162   164   ar
    40    36    39    1
    41     2     5    1
    42   173   172   ar
    43   171   172    1
    44    41    40    2
    45    10     9    1
    46    10    13    1
    47    29    30    2
    48    29    28    1
    49   165   166   ar
    50   172   174   ar
    51    27    28    1
    52    39    40    1
    53   105   104    2
    54   164   166   ar
    55   111   110    2
    56    13    14    1
    57    28    31    1
    58    40    42   am
    59     5     6    1
    60   106   107    1
    61   106   103    1
    62   110   109    1
    63   104   103    1
    64   104   108   am
    65     6     8    1
    66     6     7    1
    67   103   102    1
    68    62    59    1
    69    62    63    1
    70    33    32    1
    71    14    15    1
    72    18    17    1
    73   109   108    1
    74    31    32    1
    75    16    17    2
    76    16    15    1
    77    59    60    1
    78    59    58    1
    79    17    19    1
    80    63    64    1
    81    32    34    1
    82    60    61    2
    83   102    93   am
    84    58    64    1
    85    94    93    2
    86    93    92    1
    87    87    86    2
    88    99   101   ar
    89    99    97   ar
    90   101   100   ar
    91    90    88    1
    92    97    96   ar
    93    88    89    1
    94    88    85    1
    95   100    98   ar
    96    92    91    1
    97    92    95    1
    98    86    91   am
    99    86    85    1
   100    96    98   ar
   101    96    95    1
   102    26    24    1
   103    85    84    1
   104    25    24    1
   105    23    22    2
   106    21    24    1
   107    21    22    1
   108    21    20    1
   109   128   126    1
   110    72    70   ar
   111   126   127    1
   112   126   125    1
   113    70    71   ar
   114    70    69    1
   115   125   122    1
   116   140   139    1
   117    82    80   ar
   118    82    83   ar
   119    80    78   ar
   120   141   139    1
   121    69    66    1
   122    65    66    1
   123   139   138    1
   124    76    75    2
   125   122   121    1
   126   122   123    1
   127    83    81   ar
   128    78    77    1
   129    78    79   ar
   130    77    74    1
   131    66    67    1
   132    73    74    1
   133    73    67   am
   134   121   114   am
   135    75    74    1
   136   123   129   am
   137   123   124    2
   138   129   130    1
   139    67    68    2
   140   120   119    1
   141   138   135    1
   142    81    79   ar
   143   130   133    1
   144   130   131    1
   145   114   113    1
   146   114   115    2
   147   113   116    1
   148   113   112    1
   149   116   117    1
   150   135   134    1
   151   135   136    1
   152   119   118    1
   153   131   132    2
   154   117   118    1
   155   151   150    1
   156   137   136    2
   157   136   142   am
   158   150   149    2
   159   150   152    1
   160   142   143    1
   161   149   148    1
   162   147   148    1
   163   147   146    1
   164   143   146    1
   165   143   144    1
   166   144   145    2
