@<TRIPOS>MOLECULE
tmp/4y7uA00.pdb
 139 133 0 0 0
SMALL
GASTEIGER

@<TRIPOS>ATOM
      1  N        -12.9920  -30.0340    6.4950 N.3     6  LEU6       -0.1231
      2  CA       -12.0060  -30.7730    7.2760 C.3     6  LEU6        0.1693
      3  C        -11.3560  -31.8210    6.3690 C.2     6  LEU6        0.2592
      4  O        -12.0370  -32.6690    5.7880 O.2     6  LEU6       -0.2718
      5  CB       -12.6560  -31.4560    8.4830 C.3     6  LEU6        0.0284
      6  CG       -13.4180  -30.5960    9.4960 C.3     6  LEU6        0.0019
      7  CD1      -14.2020  -31.4890   10.4600 C.3     6  LEU6        0.0001
      8  CD2      -12.4410  -29.7050   10.2850 C.3     6  LEU6        0.0001
      9  N        -10.0390  -31.7750    6.2510 N.am    7  ALA7       -0.1966
     10  CA        -9.3430  -32.6800    5.3380 C.3     7  ALA7        0.1728
     11  C         -7.9970  -33.0930    5.9140 C.2     7  ALA7        0.2616
     12  O         -7.0860  -33.4310    5.1600 O.2     7  ALA7       -0.2715
     13  CB        -9.1390  -32.0210    3.9560 C.3     7  ALA7        0.0334
     14  N         -7.8660  -33.0480    7.2410 N.am    8  ALA8       -0.1963
     15  CA        -6.5850  -33.3670    7.8820 C.3     8  ALA8        0.1728
     16  C         -6.4470  -34.8300    8.3220 C.2     8  ALA8        0.2617
     17  O         -5.3880  -35.2330    8.8130 O.2     8  ALA8       -0.2715
     18  CB        -6.3540  -32.4470    9.0770 C.3     8  ALA8        0.0334
     19  N         -7.4940  -35.6260    8.1370 N.am    9  GLY9       -0.1940
     20  CA        -7.4630  -37.0190    8.5620 C.3     9  GLY9        0.2014
     21  C         -6.5110  -37.9060    7.7670 C.2     9  GLY9        0.2639
     22  O         -6.3090  -37.7100    6.5630 O.2     9  GLY9       -0.2714
     23  N         -5.9460  -38.9080    8.4360 N.am   10  LYS10      -0.1963
     24  CA        -4.9800  -39.7930    7.8040 C.3    10  LYS10       0.1728
     25  C         -5.5900  -40.9530    7.0150 C.2    10  LYS10       0.2617
     26  O         -4.8980  -41.5690    6.2030 O.2    10  LYS10      -0.2715
     27  CB        -4.0190  -40.3510    8.8590 C.3    10  LYS10       0.0311
     28  CG        -2.7520  -40.9570    8.2740 C.3    10  LYS10       0.0038
     29  CD        -1.6610  -41.0900    9.3210 C.3    10  LYS10       0.0206
     30  CE        -1.3170  -39.7320    9.9220 C.3    10  LYS10       0.1093
     31  NZ        -0.1430  -39.7930   10.8420 N.3    10  LYS10      -0.1314
     32  N         -6.8670  -41.2550    7.2440 N.am   11  GLY11      -0.1940
     33  CA        -7.5470  -42.3030    6.4930 C.3    11  GLY11       0.2014
     34  C         -6.9130  -43.6780    6.6160 C.2    11  GLY11       0.2639
     35  O         -6.8400  -44.4460    5.6430 O.2    11  GLY11      -0.2714
     36  N         -6.4620  -44.0050    7.8220 N.am   12  GLU12      -0.1963
     37  CA        -5.7910  -45.2780    8.0590 C.3    12  GLU12       0.1733
     38  C         -6.6770  -46.4780    7.7440 C.2    12  GLU12       0.2616
     39  O         -6.1810  -47.5470    7.3860 O.2    12  GLU12      -0.2715
     40  CB        -5.2920  -45.3480    9.5020 C.3    12  GLU12       0.0429
     41  CG        -3.9780  -44.6000    9.6990 C.3    12  GLU12       0.1163
     42  CD        -3.4950  -44.6090   11.1330 C.2    12  GLU12       0.3649
     43  OE1       -4.2950  -44.2790   12.0340 O.co2  12  GLU12      -0.2457
     44  OE2       -2.3110  -44.9400   11.3570 O.co2  12  GLU12      -0.2457
     45  N         -7.9870  -46.3000    7.8570 N.am   13  ARG13      -0.1977
     46  CA        -8.9120  -47.3770    7.5310 C.3    13  ARG13       0.1597
     47  C         -9.0960  -47.5140    6.0290 C.2    13  ARG13       0.2287
     48  O         -9.6380  -48.5160    5.5640 O.2    13  ARG13      -0.2864
     49  CB       -10.2600  -47.1520    8.2090 C.3    13  ARG13       0.0334
     50  CG       -10.2470  -47.4170    9.7000 C.3    13  ARG13       0.0492
     51  CD       -11.6130  -47.1430   10.2950 C.3    13  ARG13       0.2205
     52  NE       -12.0770  -45.8080    9.9360 N.pl3  13  ARG13      -0.0865
     53  CZ       -13.3290  -45.3900   10.0770 C.cat  13  ARG13       0.5346
     54  NH1      -13.6580  -44.1540    9.7240 N.pl3  13  ARG13       0.1354
     55  NH2      -14.2510  -46.2100   10.5650 N.pl3  13  ARG13       0.1354
     56  N         -6.8220  -38.8150    1.6040 N.3    23  LYS23      -0.1231
     57  CA        -8.2270  -39.2160    1.5610 C.3    23  LYS23       0.1678
     58  C         -9.1450  -38.3040    0.7310 C.2    23  LYS23       0.2434
     59  O         -9.9780  -38.7760   -0.0460 O.2    23  LYS23      -0.2733
     60  CB        -8.7500  -39.3050    3.0010 C.3    23  LYS23       0.0284
     61  CG        -9.9830  -40.1510    3.1820 C.3    23  LYS23       0.0035
     62  CD       -10.2380  -40.3790    4.6610 C.3    23  LYS23       0.0206
     63  CE       -11.4920  -41.1900    4.8970 C.3    23  LYS23       0.1093
     64  NZ       -11.8330  -41.2180    6.3510 N.3    23  LYS23      -0.1314
     65  N         -9.0160  -36.9790    0.9140 N.am   24  PRO24      -0.2729
     66  CA        -9.7780  -35.9770    0.1590 C.3    24  PRO24       0.1401
     67  C         -9.6240  -36.1470   -1.3440 C.2    24  PRO24       0.2269
     68  O        -10.5250  -35.7670   -2.0990 O.2    24  PRO24      -0.2865
     69  CB        -9.1670  -34.6520    0.6250 C.3    24  PRO24       0.0296
     70  CG        -8.5680  -34.9720    1.9630 C.3    24  PRO24       0.0237
     71  CD        -8.1180  -36.3710    1.9110 C.3    24  PRO24       0.0939
     72  N         -8.2000  -27.4430    6.0720 N.3    52  ASN52      -0.1240
     73  CA        -7.0640  -27.8610    6.9010 C.3    52  ASN52       0.1653
     74  C         -6.5200  -29.1920    6.4110 C.2    52  ASN52       0.2266
     75  O         -7.1970  -29.9410    5.7000 O.2    52  ASN52      -0.2867
     76  CB        -7.4360  -27.9310    8.3870 C.3    52  ASN52       0.1155
     77  CG        -8.4400  -29.0310    8.7040 C.2    52  ASN52       0.2627
     78  OD1       -9.2510  -29.4320    7.8620 O.2    52  ASN52      -0.2716
     79  ND2       -8.3710  -29.5360    9.9230 N.am   52  ASN52      -0.0877
     80  N         -1.4750  -28.3500    9.4680 N.3    79  GLU79      -0.1245
     81  CA        -1.3030  -28.7780   10.8470 C.3    79  GLU79       0.1567
     82  C         -0.1120  -29.7270   10.9580 C.2    79  GLU79       0.2260
     83  O         -0.0680  -30.7590   10.2930 O.2    79  GLU79      -0.2867
     84  CB        -2.5810  -29.4500   11.3570 C.3    79  GLU79       0.0388
     85  CG        -3.8110  -28.5730   11.1940 C.3    79  GLU79       0.1160
     86  CD        -5.1240  -29.2820   11.5220 C.2    79  GLU79       0.3649
     87  OE1       -6.1560  -28.5940   11.4710 O.co2  79  GLU79      -0.2457
     88  OE2       -5.1370  -30.4970   11.8340 O.co2  79  GLU79      -0.2457
     89  N         -1.0830  -33.3840   15.5280 N.3    82  PRO82      -0.2102
     90  CA        -2.4720  -33.8460   15.4960 C.3    82  PRO82       0.1504
     91  C         -3.3600  -32.9080   16.3010 C.2    82  PRO82       0.2576
     92  O         -3.2270  -32.8410   17.5220 O.2    82  PRO82      -0.2718
     93  CB        -2.3930  -35.2370   16.1340 C.3    82  PRO82       0.0282
     94  CG        -1.1580  -35.1970   16.9830 C.3    82  PRO82       0.0208
     95  CD        -0.2000  -34.3140   16.2540 C.3    82  PRO82       0.0893
     96  N         -4.2360  -32.1720   15.6330 N.am   83  LEU83      -0.1966
     97  CA        -5.0500  -31.1970   16.3440 C.3    83  LEU83       0.1728
     98  C         -6.4700  -31.7020   16.5970 C.2    83  LEU83       0.2616
     99  O         -7.1850  -31.1650   17.4450 O.2    83  LEU83      -0.2715
    100  CB        -5.0870  -29.8810   15.5730 C.3    83  LEU83       0.0311
    101  CG        -3.8000  -29.0630   15.6200 C.3    83  LEU83       0.0022
    102  CD1       -3.9250  -27.8240   14.7680 C.3    83  LEU83       0.0001
    103  CD2       -3.4590  -28.7070   17.0620 C.3    83  LEU83       0.0001
    104  N         -6.8670  -32.7450   15.8740 N.am   84  GLU84      -0.1963
    105  CA        -8.2330  -33.2370   15.9390 C.3    84  GLU84       0.1733
    106  C         -9.1750  -32.1930   15.3570 C.2    84  GLU84       0.2617
    107  O         -8.7360  -31.1330   14.9010 O.2    84  GLU84      -0.2715
    108  CB        -8.6380  -33.5770   17.3780 C.3    84  GLU84       0.0429
    109  CG        -8.0220  -34.8640   17.9160 C.3    84  GLU84       0.1163
    110  CD        -8.3530  -35.0930   19.3820 C.2    84  GLU84       0.3649
    111  OE1       -8.5390  -36.2630   19.7790 O.co2  84  GLU84      -0.2457
    112  OE2       -8.4200  -34.1000   20.1410 O.co2  84  GLU84      -0.2457
    113  N        -10.4710  -32.4880   15.3840 N.am   85  THR85      -0.1951
    114  CA       -11.4500  -31.6260   14.7410 C.3    85  THR85       0.1897
    115  C        -11.5170  -30.2420   15.3810 C.2    85  THR85       0.2313
    116  O        -11.4320  -29.2220   14.6850 O.2    85  THR85      -0.2863
    117  CB       -12.8380  -32.2710   14.7700 C.3    85  THR85       0.1794
    118  OG1      -12.7430  -33.5840   14.2100 O.3    85  THR85      -0.2208
    119  CG2      -13.8300  -31.4450   13.9690 C.3    85  THR85       0.0378
    120  N        -17.2820  -31.9400    7.0180 N.3   105  ASN105     -0.1240
    121  CA       -16.3110  -33.0140    7.1730 C.3   105  ASN105      0.1653
    122  C        -16.0160  -33.5900    5.7890 C.2   105  ASN105      0.2266
    123  O        -16.8860  -34.1390    5.1230 O.2   105  ASN105     -0.2867
    124  CB       -16.8470  -34.0610    8.1530 C.3   105  ASN105      0.1155
    125  CG       -15.8860  -35.1830    8.3950 C.2   105  ASN105      0.2627
    126  OD1      -15.0900  -35.5370    7.5250 O.2   105  ASN105     -0.2716
    127  ND2      -15.9600  -35.7680    9.5820 N.am  105  ASN105     -0.0877
    128  N        -14.6780  -36.0770    4.5810 N.3   107  ASP107     -0.1239
    129  CA       -14.8200  -37.5230    4.3430 C.3   107  ASP107      0.1674
    130  C        -16.2280  -37.8830    3.8810 C.2   107  ASP107      0.2266
    131  O        -16.4680  -39.0050    3.4200 O.2   107  ASP107     -0.2867
    132  CB       -14.5110  -38.3300    5.6070 C.3   107  ASP107      0.1410
    133  CG       -13.0450  -38.2930    5.9910 C.2   107  ASP107      0.3668
    134  OD1      -12.2790  -37.5030    5.3880 O.co2 107  ASP107     -0.2456
    135  OD2      -12.6690  -39.0550    6.9090 O.co2 107  ASP107     -0.2456
    136  N        -15.2570  -43.7230    5.1860 N.3   207  GLY207     -0.1225
    137  CA       -14.0830  -44.0020    5.9960 C.3   207  GLY207      0.1811
    138  C        -13.4260  -45.3360    5.7060 C.2   207  GLY207      0.2280
    139  O        -12.3190  -45.5940    6.1700 O.2   207  GLY207     -0.2866
@<TRIPOS>BOND
     1    68    67    2
     2    67    66    1
     3    59    58    2
     4    66    69    1
     5    66    65    1
     6    69    70    1
     7    58    65   am
     8    58    57    1
     9    65    71    1
    10    57    56    1
    11    57    60    1
    12    71    70    1
    13    60    61    1
    14    61    62    1
    15   131   130    2
    16   130   129    1
    17    13    10    1
    18   129   128    1
    19   129   132    1
    20    62    63    1
    21    63    64    1
    22   123   122    2
    23    12    11    2
    24   136   137    1
    25    10    11    1
    26    10     9    1
    27   134   133   ar
    28    48    47    2
    29   132   133    1
    30    35    34    2
    31    75    74    2
    32   138   137    1
    33   138   139    2
    34     4     3    2
    35   122   121    1
    36    11    14   am
    37   133   135   ar
    38    47    46    1
    39    72    73    1
    40    26    25    2
    41     9     3   am
    42     3     2    1
    43    74    73    1
    44    33    34    1
    45    33    32    1
    46     1     2    1
    47    22    21    2
    48    34    36   am
    49    73    76    1
    50    25    32   am
    51    25    24    1
    52   120   121    1
    53   121   124    1
    54    14    15    1
    55     2     5    1
    56    39    38    2
    57   126   125    2
    58    46    45    1
    59    46    49    1
    60    38    45   am
    61    38    37    1
    62    21    23   am
    63    21    20    1
    64    24    23    1
    65    24    27    1
    66    36    37    1
    67    78    77    2
    68    15    16    1
    69    15    18    1
    70    37    40    1
    71    19    16   am
    72    19    20    1
    73   124   125    1
    74    49    50    1
    75    28    27    1
    76    28    29    1
    77    16    17    2
    78    76    77    1
    79   125   127   am
    80     5     6    1
    81    77    79   am
    82    29    30    1
    83    80    81    1
    84     6     8    1
    85     6     7    1
    86    40    41    1
    87    41    42    1
    88    50    51    1
    89    54    53    1
    90    30    31    1
    91    52    53    2
    92    52    51    1
    93    53    55    1
    94    83    82    2
    95    81    82    1
    96    81    84    1
    97    42    44   ar
    98    42    43   ar
    99    85    84    1
   100    85    86    1
   101    87    86   ar
   102    86    88   ar
   103   119   117    1
   104   118   117    1
   105   116   115    2
   106   114   117    1
   107   114   115    1
   108   114   113    1
   109   102   101    1
   110   107   106    2
   111   106   113   am
   112   106   105    1
   113    90    89    1
   114    90    93    1
   115    90    91    1
   116    89    95    1
   117   100   101    1
   118   100    97    1
   119   101   103    1
   120    96    91   am
   121    96    97    1
   122   104   105    1
   123   104    98   am
   124   105   108    1
   125    93    94    1
   126    95    94    1
   127    91    92    2
   128    97    98    1
   129    98    99    2
   130   108   109    1
   131   109   110    1
   132   110   111   ar
   133   110   112   ar
