@<TRIPOS>MOLECULE
tmp/4y7xK00.pdb
 104 97 0 0 0
SMALL
GASTEIGER

@<TRIPOS>ATOM
      1  N         11.7800 -140.5420   10.0230 N.3     1  THR1       -0.1218
      2  CA        11.6240 -139.6020    8.8800 C.3     1  THR1        0.1862
      3  C         12.1330 -139.9800    7.5060 C.2     1  THR1        0.2287
      4  O         13.1540 -140.6470    7.3540 O.2     1  THR1       -0.2866
      5  CB        12.2920 -138.3040    9.2860 C.3     1  THR1        0.1770
      6  OG1       11.6870 -137.9320   10.5010 O.3     1  THR1       -0.2211
      7  CG2       12.0350 -137.1600    8.3070 C.3     1  THR1        0.0375
      8  N          5.4030 -139.2980   10.2730 N.3    19  ARG19      -0.1231
      9  CA         5.5070 -140.1740   11.4430 C.3    19  ARG19       0.1694
     10  C          6.5230 -139.7000   12.4760 C.2    19  ARG19       0.2592
     11  O          7.6140 -139.2470   12.1300 O.2    19  ARG19      -0.2718
     12  CB         5.8640 -141.5980   11.0340 C.3    19  ARG19       0.0321
     13  CG         5.9680 -142.5330   12.2320 C.3    19  ARG19       0.0489
     14  CD         6.1520 -143.9830   11.8320 C.3    19  ARG19       0.2205
     15  NE         5.0000 -144.5040   11.1040 N.pl3  19  ARG19      -0.0865
     16  CZ         4.8360 -145.7800   10.7640 C.cat  19  ARG19       0.5346
     17  NH1        5.7500 -146.6910   11.0850 N.pl3  19  ARG19       0.1354
     18  NH2        3.7480 -146.1500   10.1000 N.pl3  19  ARG19       0.1354
     19  N          6.1500 -139.8340   13.7470 N.am   20  ALA20      -0.1966
     20  CA         7.0400 -139.5660   14.8680 C.3    20  ALA20       0.1728
     21  C          7.1690 -140.8370   15.6990 C.2    20  ALA20       0.2617
     22  O          6.1840 -141.5520   15.9040 O.2    20  ALA20      -0.2715
     23  CB         6.5000 -138.4270   15.7160 C.3    20  ALA20       0.0334
     24  N          8.3820 -141.1150   16.1720 N.am   21  THR21      -0.1937
     25  CA         8.6590 -142.3430   16.9190 C.3    21  THR21       0.2028
     26  C          9.4890 -142.0800   18.1710 C.2    21  THR21       0.2642
     27  O         10.4200 -141.2740   18.1500 O.2    21  THR21      -0.2714
     28  CB         9.4250 -143.3670   16.0570 C.3    21  THR21       0.1808
     29  OG1       10.7070 -142.8350   15.6940 O.3    21  THR21      -0.2208
     30  CG2        8.6420 -143.7060   14.7960 C.3    21  THR21       0.0379
     31  N          9.1390 -142.7690   19.2530 N.am   22  ALA22      -0.1977
     32  CA         9.9510 -142.7930   20.4650 C.3    22  ALA22       0.1597
     33  C         10.4470 -144.2240   20.6430 C.2    22  ALA22       0.2287
     34  O          9.7940 -145.0500   21.2850 O.2    22  ALA22      -0.2864
     35  CB         9.1380 -142.3390   21.6680 C.3    22  ALA22       0.0319
     36  N          4.5380 -142.6280   18.1100 N.3    27  ALA27      -0.1245
     37  CA         3.9280 -141.5560   18.8900 C.3    27  ALA27       0.1562
     38  C          2.8250 -140.8620   18.1030 C.2    27  ALA27       0.2260
     39  O          1.7250 -140.6640   18.6170 O.2    27  ALA27      -0.2867
     40  CB         4.9830 -140.5460   19.3180 C.3    27  ALA27       0.0290
     41  N          2.2590 -135.6040   12.1370 N.3    31  VAL31      -0.1245
     42  CA         3.2130 -134.5260   12.4130 C.3    31  VAL31       0.1561
     43  C          3.4660 -133.6850   11.1670 C.2    31  VAL31       0.2260
     44  O          3.6650 -134.2220   10.0740 O.2    31  VAL31      -0.2867
     45  CB         4.5550 -135.0780   12.9400 C.3    31  VAL31       0.0252
     46  CG1        5.6170 -133.9850   13.0100 C.3    31  VAL31       0.0019
     47  CG2        4.3560 -135.6970   14.3100 C.3    31  VAL31       0.0019
     48  N          5.8960 -131.8560    9.1880 N.3    33  LYS33      -0.1245
     49  CA         7.3500 -131.8420    9.0400 C.3    33  LYS33       0.1561
     50  C          7.8550 -130.7840    8.0730 C.2    33  LYS33       0.2260
     51  O          9.0520 -130.5230    8.0190 O.2    33  LYS33      -0.2867
     52  CB         7.8480 -133.2150    8.6120 C.3    33  LYS33       0.0271
     53  CG         7.7530 -134.2250    9.7310 C.3    33  LYS33       0.0035
     54  CD         8.3340 -135.5610    9.3290 C.3    33  LYS33       0.0206
     55  CE         8.0070 -136.6010   10.3790 C.3    33  LYS33       0.1093
     56  NZ         8.6890 -137.8860   10.0890 N.3    33  LYS33      -0.1314
     57  N         11.6470 -130.9480    8.5950 N.3    45  MET45      -0.1182
     58  CA        12.0120 -131.4960    9.9040 C.3    45  MET45       0.1917
     59  C         12.5860 -132.9080    9.7810 C.2    45  MET45       0.2634
     60  O         11.9660 -133.7900    9.1880 O.2    45  MET45      -0.2714
     61  CB        10.7930 -131.5030   10.8460 C.2    45  MET45       0.0083
     62  CG        10.8290 -132.5700   11.9450 C.2    45  MET45       0.0282
     63  SD         9.4010 -132.6470   13.0560 S.3    45  MET45      -0.1125
     64  CE         8.7810 -130.9640   13.0270 C.3    45  MET45       0.0742
     65  N         13.7710 -133.1080   10.3480 N.am   46  ALA46      -0.1963
     66  CA        14.3430 -134.4450   10.5090 C.3    46  ALA46       0.1728
     67  C         15.3570 -134.4280   11.6470 C.2    46  ALA46       0.2617
     68  O         16.1600 -133.5040   11.7570 O.2    46  ALA46      -0.2715
     69  CB        14.9910 -134.9220    9.2200 C.3    46  ALA46       0.0334
     70  N         15.3100 -135.4540   12.4890 N.am   47  GLY47      -0.1940
     71  CA        16.1190 -135.5080   13.7050 C.3    47  GLY47       0.2014
     72  C         15.2410 -135.2140   14.9050 C.2    47  GLY47       0.2639
     73  O         14.1450 -135.7630   15.0230 O.2    47  GLY47      -0.2714
     74  N         15.7150 -134.3440   15.7920 N.am   48  GLY48      -0.1939
     75  CA        14.9310 -133.9170   16.9490 C.3    48  GLY48       0.2014
     76  C         13.7380 -133.0780   16.5260 C.2    48  GLY48       0.2638
     77  O         13.8880 -132.0880   15.8050 O.2    48  GLY48      -0.2714
     78  N         12.5480 -133.4820   16.9660 N.am   49  ALA49      -0.1977
     79  CA        11.3130 -132.7790   16.6190 C.3    49  ALA49       0.1597
     80  C         11.3180 -131.3530   17.1660 C.2    49  ALA49       0.2287
     81  O         11.0900 -130.3990   16.4230 O.2    49  ALA49      -0.2864
     82  CB        10.1040 -133.5420   17.1430 C.3    49  ALA49       0.0319
     83  N         16.8510 -138.1020    6.4460 N.3   130  GLY130     -0.1210
     84  CA        16.0710 -138.8800    7.4030 C.3   130  GLY130      0.1956
     85  C         16.4460 -140.3500    7.4070 C.2   130  GLY130      0.2612
     86  O         17.2700 -140.7960    6.6100 O.2   130  GLY130     -0.2717
     87  N         15.8230 -141.1050    8.3060 N.am  131  SER131     -0.1952
     88  CA        16.1030 -142.5330    8.4570 C.3   131  SER131      0.1924
     89  C         15.7290 -143.3510    7.2210 C.2   131  SER131      0.2314
     90  O         16.2130 -144.4660    7.0470 O.2   131  SER131     -0.2863
     91  CB        15.3670 -143.0930    9.6760 C.3   131  SER131      0.2116
     92  OG        13.9670 -143.1010    9.4660 O.3   131  SER131     -0.2180
     93  N         10.4930 -146.6110   10.5700 N.3   170  TYR170     -0.1241
     94  CA        10.3390 -145.3260   11.2530 C.3   170  TYR170      0.1605
     95  C          9.8380 -144.2100   10.3290 C.2   170  TYR170      0.2264
     96  O          9.8650 -143.0450   10.7040 O.2   170  TYR170     -0.2867
     97  CB        11.6600 -144.9350   11.9240 C.3   170  TYR170      0.0534
     98  CG        12.1780 -146.0260   12.8350 C.ar  170  TYR170     -0.0201
     99  CD1       11.4790 -146.3810   13.9840 C.ar  170  TYR170     -0.0009
    100  CD2       13.3470 -146.7190   12.5390 C.ar  170  TYR170     -0.0009
    101  CE1       11.9340 -147.3850   14.8180 C.ar  170  TYR170      0.0417
    102  CE2       13.8110 -147.7250   13.3700 C.ar  170  TYR170      0.0417
    103  CZ        13.1000 -148.0530   14.5070 C.ar  170  TYR170      0.1957
    104  OH        13.5510 -149.0500   15.3370 O.3   170  TYR170     -0.2866
@<TRIPOS>BOND
     1    83    84    1
     2    86    85    2
     3    90    89    2
     4    89    88    1
     5     4     3    2
     6    84    85    1
     7    85    87   am
     8     3     2    1
     9    51    50    2
    10    50    49    1
    11    87    88    1
    12     7     5    1
    13    88    91    1
    14    57    58    1
    15    52    49    1
    16    52    53    1
    17     2     5    1
    18     2     1    1
    19    49    48    1
    20    60    59    2
    21    69    66    1
    22     5     6    1
    23    54    53    1
    24    54    55    1
    25    92    91    1
    26    59    58    1
    27    59    65   am
    28    58    61    1
    29    44    43    2
    30    56    55    1
    31    18    16    1
    32     8     9    1
    33    95    96    2
    34    95    94    1
    35    65    66    1
    36    66    67    1
    37    93    94    1
    38    16    17    1
    39    16    15    2
    40    61    62    2
    41    12     9    1
    42    12    13    1
    43    15    14    1
    44    43    42    1
    45    94    97    1
    46     9    10    1
    47    67    68    2
    48    67    70   am
    49    14    13    1
    50    97    98    1
    51    62    63    1
    52    11    10    2
    53    41    42    1
    54    42    45    1
    55    10    19   am
    56    70    71    1
    57   100    98   ar
    58   100   102   ar
    59    98    99   ar
    60    45    46    1
    61    45    47    1
    62    64    63    1
    63   102   103   ar
    64    71    72    1
    65    19    20    1
    66    99   101   ar
    67   103   101   ar
    68   103   104    1
    69    30    28    1
    70    20    21    1
    71    20    23    1
    72    72    73    2
    73    72    74   am
    74    29    28    1
    75    21    22    2
    76    21    24   am
    77    74    75    1
    78    77    76    2
    79    28    25    1
    80    24    25    1
    81    81    80    2
    82    76    75    1
    83    76    78   am
    84    79    78    1
    85    79    82    1
    86    79    80    1
    87    25    26    1
    88    38    39    2
    89    38    37    1
    90    36    37    1
    91    27    26    2
    92    26    31   am
    93    37    40    1
    94    31    32    1
    95    32    33    1
    96    32    35    1
    97    33    34    2
