@<TRIPOS>MOLECULE
tmp/4y82N00.pdb
 129 120 0 0 0
SMALL
GASTEIGER

@<TRIPOS>ATOM
      1  N         44.1600 -142.8840   63.0040 N.3     1  THR1       -0.1218
      2  CA        43.8740 -142.3060   64.3440 C.3     1  THR1        0.1862
      3  C         42.8550 -142.9680   65.2730 C.2     1  THR1        0.2287
      4  O         41.8500 -143.4660   64.8500 O.2     1  THR1       -0.2866
      5  CB        43.3680 -140.9240   64.1250 C.3     1  THR1        0.1770
      6  OG1       44.3750 -140.2910   63.4210 O.3     1  THR1       -0.2211
      7  CG2       43.0990 -140.1300   65.3700 C.3     1  THR1        0.0375
      8  N         50.1990 -141.5200   66.0020 N.3    19  ARG19      -0.1231
      9  CA        50.5620 -142.1710   64.7400 C.3    19  ARG19       0.1694
     10  C         49.9190 -141.4850   63.5340 C.2    19  ARG19       0.2593
     11  O         48.7260 -141.1890   63.5450 O.2    19  ARG19      -0.2718
     12  CB        50.1560 -143.6490   64.7710 C.3    19  ARG19       0.0321
     13  CG        50.5200 -144.4290   63.5140 C.3    19  ARG19       0.0489
     14  CD        50.4140 -145.9320   63.7260 C.3    19  ARG19       0.2205
     15  NE        51.4500 -146.4380   64.6270 N.pl3  19  ARG19      -0.0865
     16  CZ        51.6350 -147.7210   64.9270 C.cat  19  ARG19       0.5346
     17  NH1       50.8540 -148.6610   64.4000 N.pl3  19  ARG19       0.1354
     18  NH2       52.6140 -148.0690   65.7550 N.pl3  19  ARG19       0.1354
     19  N         50.7430 -141.2540   62.5160 N.am   20  THR20      -0.1939
     20  CA        50.3680 -140.7460   61.2110 C.3    20  THR20       0.2028
     21  C         50.8560 -141.6950   60.1550 C.2    20  THR20       0.2643
     22  O         51.9870 -142.0350   60.1350 O.2    20  THR20      -0.2714
     23  CB        51.0430 -139.4200   60.9070 C.3    20  THR20       0.1808
     24  OG1       51.0450 -138.6230   62.0720 O.3    20  THR20      -0.2208
     25  CG2       50.3190 -138.6820   59.8570 C.3    20  THR20       0.0379
     26  N         49.9820 -142.1120   59.2660 N.am   21  THR21      -0.1936
     27  CA        50.3250 -143.1110   58.2990 C.3    21  THR21       0.2028
     28  C         50.1810 -142.6390   56.8930 C.2    21  THR21       0.2642
     29  O         49.3270 -141.8680   56.5760 O.2    21  THR21      -0.2714
     30  CB        49.4360 -144.3320   58.4360 C.3    21  THR21       0.1808
     31  OG1       48.0920 -143.9040   58.5400 O.3    21  THR21      -0.2208
     32  CG2       49.7770 -145.0790   59.6480 C.3    21  THR21       0.0379
     33  N         51.0350 -143.1490   56.0380 N.am   22  THR22      -0.1950
     34  CA        50.8060 -143.0510   54.6360 C.3    22  THR22       0.1897
     35  C         50.8670 -144.4540   54.0950 C.2    22  THR22       0.2313
     36  O         51.8840 -144.9200   53.6710 O.2    22  THR22      -0.2863
     37  CB        51.7740 -142.0810   53.9790 C.3    22  THR22       0.1794
     38  OG1       51.4050 -141.9210   52.6210 O.3    22  THR22      -0.2208
     39  CG2       53.1510 -142.5650   54.0530 C.3    22  THR22       0.0378
     40  N         54.5780 -142.3910   58.9360 N.3    27  ALA27      -0.1245
     41  CA        55.2850 -141.1660   58.5440 C.3    27  ALA27       0.1562
     42  C         55.7870 -140.3570   59.7410 C.2    27  ALA27       0.2260
     43  O         56.8140 -139.6870   59.6550 O.2    27  ALA27      -0.2867
     44  CB        54.3860 -140.3010   57.6750 C.3    27  ALA27       0.0290
     45  N         53.3580 -137.6960   66.5840 N.3    31  THR31      -0.1218
     46  CA        52.4530 -136.6260   66.1540 C.3    31  THR31       0.1862
     47  C         51.7000 -135.9940   67.3190 C.2    31  THR31       0.2287
     48  O         51.4230 -136.6600   68.3210 O.2    31  THR31      -0.2866
     49  CB        51.3980 -137.1670   65.1680 C.3    31  THR31       0.1770
     50  OG1       51.9850 -138.1910   64.3610 O.3    31  THR31      -0.2211
     51  CG2       50.8540 -136.0610   64.2700 C.3    31  THR31       0.0375
     52  N         48.1470 -134.5290   67.7670 N.3    33  LYS33      -0.1245
     53  CA        46.8180 -134.4250   67.1670 C.3    33  LYS33       0.1561
     54  C         45.8720 -133.5520   67.9950 C.2    33  LYS33       0.2260
     55  O         44.7400 -133.2900   67.5800 O.2    33  LYS33      -0.2867
     56  CB        46.2200 -135.8220   66.9930 C.3    33  LYS33       0.0271
     57  CG        47.0850 -136.7460   66.1520 C.3    33  LYS33       0.0035
     58  CD        46.4840 -138.1340   66.0440 C.3    33  LYS33       0.0206
     59  CE        47.4060 -139.0590   65.2730 C.3    33  LYS33       0.1093
     60  NZ        46.7710 -140.3820   65.0330 N.3    33  LYS33      -0.1314
     61  N         41.9840 -134.0790   66.2140 N.3    45  ARG45      -0.1231
     62  CA        41.9280 -134.1900   64.7740 C.3    45  ARG45       0.1694
     63  C         42.0350 -135.6160   64.2760 C.2    45  ARG45       0.2593
     64  O         42.8680 -136.3380   64.7200 O.2    45  ARG45      -0.2718
     65  CB        43.0610 -133.3800   64.1860 C.3    45  ARG45       0.0321
     66  CG        42.8730 -131.8960   64.3300 C.3    45  ARG45       0.0489
     67  CD        43.9940 -131.1310   63.6830 C.3    45  ARG45       0.2205
     68  NE        45.2480 -131.4780   64.2790 N.pl3  45  ARG45      -0.0865
     69  CZ        46.3700 -131.5730   63.6080 C.cat  45  ARG45       0.5346
     70  NH1       46.3750 -131.3400   62.3290 N.pl3  45  ARG45       0.1354
     71  NH2       47.4820 -131.9090   64.2140 N.pl3  45  ARG45       0.1354
     72  N         41.1800 -136.0000   63.3410 N.am   46  SER46      -0.1938
     73  CA        41.2200 -137.3070   62.6840 C.3    46  SER46       0.2055
     74  C         40.8080 -137.1670   61.2210 C.2    46  SER46       0.2644
     75  O         40.0610 -136.2520   60.8640 O.2    46  SER46      -0.2714
     76  CB        40.2990 -138.3060   63.3900 C.3    46  SER46       0.2130
     77  OG        38.9410 -138.1130   63.0220 O.3    46  SER46      -0.2179
     78  N         41.2910 -138.0870   60.3900 N.am   47  GLY47      -0.1939
     79  CA        41.0500 -138.0490   58.9490 C.3    47  GLY47       0.2014
     80  C         42.2870 -137.5740   58.2100 C.2    47  GLY47       0.2640
     81  O         43.4020 -138.0010   58.5100 O.2    47  GLY47      -0.2714
     82  N         42.0930 -136.6880   57.2390 N.am   48  SER48      -0.1935
     83  CA        43.2050 -136.1230   56.4760 C.3    48  SER48       0.2055
     84  C         43.9920 -135.1240   57.3230 C.2    48  SER48       0.2643
     85  O         43.4170 -134.1840   57.8790 O.2    48  SER48      -0.2714
     86  CB        42.6870 -135.4330   55.2130 C.3    48  SER48       0.2130
     87  OG        43.6570 -134.5490   54.6790 O.3    48  SER48      -0.2179
     88  N         45.3050 -135.3320   57.4130 N.am   49  ALA49      -0.1963
     89  CA        46.1820 -134.4440   58.1800 C.3    49  ALA49       0.1728
     90  C         46.1320 -133.0300   57.6140 C.2    49  ALA49       0.2616
     91  O         45.9920 -132.0630   58.3560 O.2    49  ALA49      -0.2715
     92  CB        47.6130 -134.9660   58.1770 C.3    49  ALA49       0.0334
     93  N         46.2240 -132.9250   56.2930 N.am   50  ALA50      -0.1977
     94  CA        46.2110 -131.6300   55.6120 C.3    50  ALA50       0.1597
     95  C         44.8920 -130.8770   55.7890 C.2    50  ALA50       0.2287
     96  O         44.8950 -129.6780   56.0650 O.2    50  ALA50      -0.2864
     97  CB        46.5090 -131.8140   54.1320 C.3    50  ALA50       0.0319
     98  N         42.4120 -131.3030   58.1710 N.3    52  THR52      -0.1203
     99  CA        42.1580 -130.9490   59.5710 C.3    52  THR52       0.1994
    100  C         43.0710 -129.8190   60.0460 C.2    52  THR52       0.2617
    101  O         42.6900 -129.0100   60.8930 O.2    52  THR52      -0.2717
    102  CB        42.3460 -132.1600   60.5030 C.3    52  THR52       0.1784
    103  OG1       43.6380 -132.7380   60.2830 O.3    52  THR52      -0.2211
    104  CG2       41.2720 -133.2030   60.2490 C.3    52  THR52       0.0376
    105  N         44.2500 -129.7490   59.4790 N.am   53  GLN53      -0.1979
    106  CA        45.2070 -128.7090   59.7730 C.3    53  GLN53       0.1601
    107  C         44.8030 -127.3730   59.2150 C.2    53  GLN53       0.2287
    108  O         44.9200 -126.3730   59.8430 O.2    53  GLN53      -0.2864
    109  CB        46.5290 -129.0950   59.1610 C.3    53  GLN53       0.0394
    110  CG        47.6750 -129.1140   60.1220 C.3    53  GLN53       0.0908
    111  CD        48.8880 -129.8000   59.5760 C.2    53  GLN53       0.2608
    112  OE1       49.6410 -129.2130   58.8480 O.2    53  GLN53      -0.2717
    113  NE2       49.0970 -131.0310   59.9620 N.am   53  GLN53      -0.0878
    114  N         37.8350 -141.5030   65.0650 N.3   128  GLY128     -0.1210
    115  CA        38.9970 -142.0870   64.4030 C.3   128  GLY128      0.1956
    116  C         38.8160 -143.5790   64.1850 C.2   128  GLY128      0.2612
    117  O         37.9720 -144.2090   64.8220 O.2   128  GLY128     -0.2717
    118  N         39.6200 -144.1400   63.2850 N.am  129  SER129     -0.1952
    119  CA        39.5250 -145.5540   62.9060 C.3   129  SER129      0.1924
    120  C         39.5580 -146.5110   64.1000 C.2   129  SER129      0.2314
    121  O         38.8510 -147.5190   64.1060 O.2   129  SER129     -0.2863
    122  CB        40.6550 -145.9150   61.9380 C.3   129  SER129      0.2116
    123  OG        41.9270 -145.6600   62.5120 O.3   129  SER129     -0.2180
    124  N         46.3630 -148.5390   62.4780 N.3   168  SER168     -0.1217
    125  CA        46.4930 -147.1170   62.1640 C.3   168  SER168      0.1889
    126  C         46.7000 -146.2400   63.4030 C.2   168  SER168      0.2288
    127  O         46.8320 -145.0250   63.2800 O.2   168  SER168     -0.2866
    128  CB        45.2590 -146.6350   61.3980 C.3   168  SER168      0.2089
    129  OG        44.9890 -147.4770   60.2910 O.3   168  SER168     -0.2183
@<TRIPOS>BOND
     1    38    37    1
     2    36    35    2
     3    37    39    1
     4    37    34    1
     5    35    34    1
     6    97    94    1
     7    34    33    1
     8    87    86    1
     9    86    83    1
    10    94    95    1
    11    94    93    1
    12    95    96    2
    13    33    28   am
    14    93    90   am
    15    83    82    1
    16    83    84    1
    17    29    28    2
    18    28    27    1
    19    82    80   am
    20    84    88   am
    21    84    85    2
    22    88    89    1
    23    90    89    1
    24    90    91    2
    25    44    41    1
    26    98    99    1
    27    92    89    1
    28    80    81    2
    29    80    79    1
    30    27    30    1
    31    27    26    1
    32    30    31    1
    33    30    32    1
    34    41    40    1
    35    41    42    1
    36   112   111    2
    37    79    78    1
    38   109   106    1
    39   109   110    1
    40   107   106    1
    41   107   108    2
    42    26    21   am
    43   105   106    1
    44   105   100   am
    45    99   100    1
    46    99   102    1
    47   111   113   am
    48   111   110    1
    49    43    42    2
    50    25    23    1
    51   100   101    2
    52    22    21    2
    53    21    20    1
    54   104   102    1
    55   103   102    1
    56   129   128    1
    57    78    74   am
    58    75    74    2
    59    23    20    1
    60    23    24    1
    61    20    19    1
    62    74    73    1
    63   128   125    1
    64   122   123    1
    65   122   119    1
    66   125   124    1
    67   125   126    1
    68    70    69    1
    69    19    10   am
    70    73    72    1
    71    73    76    1
    72   119   118    1
    73   119   120    1
    74     1     2    1
    75    77    76    1
    76   127   126    2
    77   118   116   am
    78    72    63   am
    79     6     5    1
    80    13    14    1
    81    13    12    1
    82    10    11    2
    83    10     9    1
    84    69    71    1
    85    69    68    2
    86    67    68    1
    87    67    66    1
    88    14    15    1
    89   120   121    2
    90     5     2    1
    91     5     7    1
    92   116   115    1
    93   116   117    2
    94    65    66    1
    95    65    62    1
    96    51    49    1
    97    63    64    2
    98    63    62    1
    99     2     3    1
   100    50    49    1
   101    17    16    1
   102   115   114    1
   103    15    16    2
   104     9    12    1
   105     9     8    1
   106    62    61    1
   107     4     3    2
   108    16    18    1
   109    60    59    1
   110    49    46    1
   111    59    58    1
   112    58    57    1
   113    57    56    1
   114    46    45    1
   115    46    47    1
   116    56    53    1
   117    53    52    1
   118    53    54    1
   119    47    48    2
   120    55    54    2
