@<TRIPOS>MOLECULE
tmp/4y83A00.pdb
 161 150 0 0 0
SMALL
GASTEIGER

@<TRIPOS>ATOM
      1  N        -16.9380   -2.5620  -13.0560 N.3    49  TRP49      -0.1227
      2  CA       -15.5710   -2.2230  -13.4710 C.3    49  TRP49       0.1737
      3  C        -15.6530   -1.6960  -14.8920 C.2    49  TRP49       0.2595
      4  O        -16.5360   -2.1220  -15.6440 O.2    49  TRP49      -0.2718
      5  CB       -14.6810   -3.4720  -13.4870 C.3    49  TRP49       0.0564
      6  CG       -14.2900   -3.9830  -12.1300 C.ar   49  TRP49       0.0003
      7  CD1      -14.8080   -5.0670  -11.4780 C.ar   49  TRP49       0.0946
      8  CD2      -13.2620   -3.4570  -11.2780 C.ar   49  TRP49       0.0152
      9  NE1      -14.1510   -5.2620  -10.2880 N.ar   49  TRP49      -0.2442
     10  CE2      -13.2220   -4.2660  -10.1200 C.ar   49  TRP49       0.0810
     11  CE3      -12.4150   -2.3400  -11.3500 C.ar   49  TRP49       0.0012
     12  CZ2      -12.3620   -3.9980   -9.0460 C.ar   49  TRP49       0.0191
     13  CZ3      -11.5630   -2.0780  -10.2840 C.ar   49  TRP49       0.0001
     14  CH2      -11.5420   -2.9000   -9.1490 C.ar   49  TRP49       0.0015
     15  N        -14.7540   -0.7770  -15.2740 N.am   50  LYS50      -0.1966
     16  CA       -14.7730   -0.2480  -16.6350 C.3    50  LYS50       0.1728
     17  C        -13.6980   -0.9280  -17.4650 C.2    50  LYS50       0.2616
     18  O        -12.5210   -0.9160  -17.0850 O.2    50  LYS50      -0.2715
     19  CB       -14.6520    1.2880  -16.6640 C.3    50  LYS50       0.0311
     20  CG       -14.7060    1.9070  -18.0350 C.3    50  LYS50       0.0038
     21  CD       -15.9960    1.6530  -18.7500 C.3    50  LYS50       0.0206
     22  CE       -16.1990    2.6110  -19.8930 C.3    50  LYS50       0.1093
     23  NZ       -16.4300    1.8280  -21.0940 N.3    50  LYS50      -0.1314
     24  N        -14.1120   -1.5760  -18.5610 N.am   51  LEU51      -0.1977
     25  CA       -13.1900   -2.2370  -19.4790 C.3    51  LEU51       0.1596
     26  C        -12.8640   -1.2190  -20.5680 C.2    51  LEU51       0.2287
     27  O        -13.4890   -1.2030  -21.6390 O.2    51  LEU51      -0.2864
     28  CB       -13.7830   -3.5460  -20.0400 C.3    51  LEU51       0.0297
     29  CG       -13.8190   -4.7150  -19.0650 C.3    51  LEU51       0.0022
     30  CD1      -14.9000   -5.6640  -19.4080 C.3    51  LEU51       0.0001
     31  CD2      -12.5260   -5.4600  -19.0620 C.3    51  LEU51       0.0001
     32  N        -14.2600   -9.2990  -11.9340 N.3    61  ILE61      -0.1245
     33  CA       -13.1140   -9.8670  -12.6140 C.3    61  ILE61       0.1561
     34  C        -12.7770  -11.2240  -11.9610 C.2    61  ILE61       0.2260
     35  O        -12.6000  -11.2900  -10.7410 O.2    61  ILE61      -0.2867
     36  CB       -11.9340   -8.8510  -12.6850 C.3    61  ILE61       0.0252
     37  CG1      -12.0890   -7.9430  -13.9070 C.3    61  ILE61       0.0019
     38  CG2      -10.5690   -9.5390  -12.7500 C.3    61  ILE61       0.0019
     39  CD1      -12.7410   -6.7120  -13.6790 C.3    61  ILE61       0.0001
     40  N        -10.6430  -14.1770  -10.5760 N.3    63  ARG63      -0.1245
     41  CA        -9.2970  -14.3140  -10.0190 C.3    63  ARG63       0.1563
     42  C         -9.0940  -15.7510   -9.5470 C.2    63  ARG63       0.2260
     43  O         -9.4320  -16.0970   -8.4150 O.2    63  ARG63      -0.2867
     44  CB        -9.0790  -13.3150   -8.8730 C.3    63  ARG63       0.0307
     45  CG        -9.4510  -11.8530   -9.1760 C.3    63  ARG63       0.0489
     46  CD        -8.5470  -11.1730  -10.1880 C.3    63  ARG63       0.2205
     47  NE        -7.1880  -10.9770   -9.6790 N.pl3  63  ARG63      -0.0865
     48  CZ        -6.2320  -10.3170  -10.3240 C.cat  63  ARG63       0.5346
     49  NH1       -6.4790   -9.7610  -11.5030 N.pl3  63  ARG63       0.1354
     50  NH2       -5.0260  -10.2020   -9.7940 N.pl3  63  ARG63       0.1354
     51  N        -13.1680  -10.4140   -8.0990 N.3    69  VAL69      -0.1245
     52  CA       -13.0440   -9.0400   -7.6050 C.3    69  VAL69       0.1561
     53  C        -14.1530   -8.1590   -8.1660 C.2    69  VAL69       0.2260
     54  O        -14.2560   -7.9750   -9.3770 O.2    69  VAL69      -0.2867
     55  CB       -11.6380   -8.3670   -7.7450 C.3    69  VAL69       0.0252
     56  CG1      -10.6490   -8.8860   -6.7300 C.3    69  VAL69       0.0019
     57  CG2      -11.0660   -8.4560   -9.1550 C.3    69  VAL69       0.0019
     58  N        -12.0500   -2.0490   -4.2510 N.3    82  ALA82      -0.1245
     59  CA       -12.1970   -3.3350   -4.8910 C.3    82  ALA82       0.1562
     60  C        -12.7150   -4.2580   -3.7980 C.2    82  ALA82       0.2260
     61  O        -12.3530   -4.0920   -2.6260 O.2    82  ALA82      -0.2867
     62  CB       -10.8430   -3.8230   -5.3710 C.3    82  ALA82       0.0290
     63  N        -12.8070   -8.2590   -3.0520 N.3    84  LYS84      -0.1245
     64  CA       -12.4290   -9.6320   -3.3880 C.3    84  LYS84       0.1561
     65  C        -13.2160  -10.6100   -2.5330 C.2    84  LYS84       0.2260
     66  O        -13.2070  -10.5160   -1.3060 O.2    84  LYS84      -0.2867
     67  CB       -10.9200   -9.8480   -3.2090 C.3    84  LYS84       0.0271
     68  CG       -10.4000  -11.1710   -3.7510 C.3    84  LYS84       0.0035
     69  CD        -8.9020  -11.2820   -3.5530 C.3    84  LYS84       0.0206
     70  CE        -8.3620  -12.6190   -3.9800 C.3    84  LYS84       0.1093
     71  NZ        -6.8810  -12.6530   -3.8700 N.3    84  LYS84      -0.1314
     72  N         -0.8000   -7.3660    3.2800 N.3    99  GLN99      -0.1245
     73  CA        -1.5210   -6.1150    3.0190 C.3    99  GLN99       0.1566
     74  C         -1.9590   -5.3610    4.2870 C.2    99  GLN99       0.2260
     75  O         -2.0020   -4.1310    4.2590 O.2    99  GLN99      -0.2867
     76  CB        -2.7100   -6.3490    2.0820 C.3    99  GLN99       0.0367
     77  CG        -2.3120   -6.4190    0.6290 C.3    99  GLN99       0.0905
     78  CD        -3.4190   -6.9700   -0.2290 C.2    99  GLN99       0.2608
     79  OE1       -3.8050   -8.1360   -0.1130 O.2    99  GLN99      -0.2717
     80  NE2       -3.9360   -6.1600   -1.1400 N.am   99  GLN99      -0.0878
     81  N         -1.4600   -2.5670   -2.9300 N.3   108  ALA108     -0.1245
     82  CA        -2.8950   -2.2830   -2.7510 C.3   108  ALA108      0.1562
     83  C         -3.3050   -2.3990   -1.2730 C.2   108  ALA108      0.2260
     84  O         -3.2860   -3.4950   -0.7070 O.2   108  ALA108     -0.2867
     85  CB        -3.7430   -3.2050   -3.6190 C.3   108  ALA108      0.0290
     86  N        -10.3640   -3.4640   -0.5170 N.3   124  MET124     -0.1230
     87  CA        -9.0210   -2.9150   -0.6910 C.3   124  MET124      0.1702
     88  C         -8.9350   -1.9090   -1.8430 C.2   124  MET124      0.2592
     89  O         -9.9250   -1.7050   -2.5320 O.2   124  MET124     -0.2718
     90  CB        -7.9750   -4.0390   -0.8180 C.3   124  MET124      0.0401
     91  CG        -8.1970   -4.9880   -1.9770 C.3   124  MET124      0.0596
     92  SD        -7.2540   -6.4950   -1.6700 S.3   124  MET124     -0.1393
     93  CE        -8.3720   -7.6600   -2.2490 C.3   124  MET124      0.0692
     94  N         -7.7680   -1.2600   -2.0240 N.am  125  GLU125     -0.1966
     95  CA        -7.5080   -0.2530   -3.0650 C.3   125  GLU125      0.1733
     96  C         -7.8850   -0.7690   -4.4530 C.2   125  GLU125      0.2616
     97  O         -7.4040   -1.8180   -4.8710 O.2   125  GLU125     -0.2715
     98  CB        -6.0290    0.1190   -3.0510 C.3   125  GLU125      0.0429
     99  CG        -5.7640    1.5890   -3.2810 C.3   125  GLU125      0.1163
    100  CD        -4.2990    1.9710   -3.1970 C.2   125  GLU125      0.3649
    101  OE1       -3.5420    1.3670   -2.4000 O.co2 125  GLU125     -0.2457
    102  OE2       -3.9110    2.8990   -3.9380 O.co2 125  GLU125     -0.2457
    103  N         -8.7500   -0.0450   -5.1580 N.am  126  ALA126     -0.1963
    104  CA        -9.2240   -0.4740   -6.4630 C.3   126  ALA126      0.1728
    105  C         -8.4110    0.0840   -7.5960 C.2   126  ALA126      0.2617
    106  O         -8.3710    1.3030   -7.7850 O.2   126  ALA126     -0.2715
    107  CB       -10.6860   -0.0990   -6.6400 C.3   126  ALA126      0.0334
    108  N         -7.8020   -0.8190   -8.3620 N.am  127  GLY127     -0.1940
    109  CA        -7.0470   -0.4820   -9.5540 C.3   127  GLY127      0.2014
    110  C         -8.0410   -0.3000  -10.6750 C.2   127  GLY127      0.2638
    111  O         -8.2620   -1.2270  -11.4560 O.2   127  GLY127     -0.2714
    112  N         -8.6810    0.8790  -10.7290 N.am  128  GLU128     -0.1977
    113  CA        -9.7430    1.1870  -11.6860 C.3   128  GLU128      0.1602
    114  C         -9.3080    1.2120  -13.1600 C.2   128  GLU128      0.2287
    115  O        -10.1480    1.0190  -14.0380 O.2   128  GLU128     -0.2864
    116  CB       -10.4560    2.4780  -11.3000 C.3   128  GLU128      0.0415
    117  CG       -11.4670    2.2560  -10.1860 C.3   128  GLU128      0.1163
    118  CD       -12.2290    3.4870   -9.7570 C.2   128  GLU128      0.3649
    119  OE1      -13.1780    3.8690  -10.4790 O.co2 128  GLU128     -0.2457
    120  OE2      -11.8810    4.0660   -8.7020 O.co2 128  GLU128     -0.2457
    121  N         -7.5470   -1.0560  -14.4380 N.3   130  GLY130     -0.1210
    122  CA        -7.4550   -2.4670  -14.7970 C.3   130  GLY130      0.1956
    123  C         -6.1120   -3.1080  -14.5090 C.2   130  GLY130      0.2612
    124  O         -5.2810   -2.5180  -13.8090 O.2   130  GLY130     -0.2717
    125  N         -5.8990   -4.3460  -15.0260 N.am  131  SER131     -0.1952
    126  CA        -4.6440   -5.0910  -14.8340 C.3   131  SER131      0.1924
    127  C         -3.7460   -4.9280  -16.0410 C.2   131  SER131      0.2314
    128  O         -4.2450   -4.6020  -17.1280 O.2   131  SER131     -0.2863
    129  CB        -4.9080   -6.5740  -14.5630 C.3   131  SER131      0.2116
    130  OG        -5.3920   -7.2690  -15.6990 O.3   131  SER131     -0.2180
    131  N         -4.9190   -7.2170  -18.8270 N.3   134  GLU134     -0.1245
    132  CA        -6.0560   -6.6940  -19.5850 C.3   134  GLU134      0.1567
    133  C         -5.6130   -5.7560  -20.7120 C.2   134  GLU134      0.2260
    134  O         -6.1350   -5.8740  -21.8180 O.2   134  GLU134     -0.2867
    135  CB        -7.0540   -6.0000  -18.6520 C.3   134  GLU134      0.0388
    136  CG        -8.2850   -5.4100  -19.3240 C.3   134  GLU134      0.1160
    137  CD        -9.0830   -6.3150  -20.2410 C.2   134  GLU134      0.3649
    138  OE1       -9.1000   -7.5480  -20.0220 O.co2 134  GLU134     -0.2457
    139  OE2       -9.7260   -5.7740  -21.1670 O.co2 134  GLU134     -0.2457
    140  N         -2.0060   -4.1460  -11.1160 N.3   177  VAL177     -0.1245
    141  CA        -3.1860   -3.3530  -11.4900 C.3   177  VAL177      0.1561
    142  C         -2.8220   -1.8720  -11.4180 C.2   177  VAL177      0.2260
    143  O         -1.8430   -1.5400  -10.7400 O.2   177  VAL177     -0.2867
    144  CB        -4.4920   -3.7340  -10.7520 C.3   177  VAL177      0.0252
    145  CG1       -4.7390   -5.2350  -10.8380 C.3   177  VAL177      0.0019
    146  CG2       -4.4770   -3.2790   -9.3070 C.3   177  VAL177      0.0019
    147  N         -0.8210   -6.6830   -6.5820 N.3   186  VAL186     -0.1231
    148  CA        -1.9640   -7.3560   -5.9340 C.3   186  VAL186      0.1692
    149  C         -1.7090   -8.8660   -5.7550 C.2   186  VAL186      0.2592
    150  O         -0.7090   -9.3770   -6.2480 O.2   186  VAL186     -0.2718
    151  CB        -3.3650   -7.0740   -6.5690 C.3   186  VAL186      0.0266
    152  CG1       -3.7600   -5.6090   -6.4620 C.3   186  VAL186      0.0020
    153  CG2       -3.4770   -7.5850   -8.0040 C.3   186  VAL186      0.0020
    154  N         -2.6080   -9.5540   -5.0270 N.am  187  ASP187     -0.1974
    155  CA        -2.6220  -10.9920   -4.7700 C.3   187  ASP187      0.1709
    156  C         -1.4190  -11.4530   -3.9370 C.2   187  ASP187      0.2293
    157  O         -0.3650  -11.8100   -4.4690 O.2   187  ASP187     -0.2864
    158  CB        -2.7960  -11.8070   -6.0830 C.3   187  ASP187      0.1436
    159  CG        -2.6710  -13.3160   -5.9850 C.2   187  ASP187      0.3671
    160  OD1       -3.0190  -13.8760   -4.9180 O.co2 187  ASP187     -0.2456
    161  OD2       -2.2260  -13.9390   -6.9770 O.co2 187  ASP187     -0.2456
@<TRIPOS>BOND
     1   134   133    2
     2    27    26    2
     3   139   137   ar
     4    23    22    1
     5   133   132    1
     6    26    25    1
     7   137   138   ar
     8   137   136    1
     9    28    25    1
    10    28    29    1
    11    22    21    1
    12   132   131    1
    13   132   135    1
    14    25    24    1
    15    30    29    1
    16   136   135    1
    17    29    31    1
    18    21    20    1
    19    24    17   am
    20    20    19    1
    21    17    18    2
    22    17    16    1
    23   128   127    2
    24    19    16    1
    25    16    15    1
    26   127   126    1
    27   130   129    1
    28     4     3    2
    29    15     3   am
    30   125   126    1
    31   125   123   am
    32     3     2    1
    33   126   129    1
    34   122   123    1
    35   122   121    1
    36   123   124    2
    37   115   114    2
    38    37    39    1
    39    37    36    1
    40     5     2    1
    41     5     6    1
    42     2     1    1
    43   114   113    1
    44    38    36    1
    45    36    33    1
    46    33    34    1
    47    33    32    1
    48     6     7   ar
    49     6     8   ar
    50    34    35    2
    51   113   116    1
    52   113   112    1
    53    49    48    1
    54   141   142    1
    55   141   140    1
    56   141   144    1
    57     7     9   ar
    58   111   110    2
    59   142   143    2
    60    11     8   ar
    61    11    13   ar
    62   116   117    1
    63     8    10   ar
    64   145   144    1
    65   144   146    1
    66   112   110   am
    67   110   109    1
    68    40    41    1
    69   119   118   ar
    70    48    50    1
    71    48    47    2
    72     9    10   ar
    73    13    14   ar
    74    46    47    1
    75    46    45    1
    76   117   118    1
    77    10    12   ar
    78    41    42    1
    79    41    44    1
    80   118   120   ar
    81   109   108    1
    82    42    43    2
    83    54    53    2
    84    45    44    1
    85    57    55    1
    86    14    12   ar
    87   108   105   am
    88    53    52    1
    89    51    52    1
    90   153   151    1
    91   106   105    2
    92    55    52    1
    93    55    56    1
    94   105   104    1
    95   161   159   ar
    96   107   104    1
    97   147   148    1
    98   151   152    1
    99   151   148    1
   100   104   103    1
   101   150   149    2
   102   158   159    1
   103   158   155    1
   104   159   160   ar
   105   148   149    1
   106   149   154   am
   107    62    59    1
   108   103    96   am
   109   154   155    1
   110    59    58    1
   111    59    60    1
   112    97    96    2
   113   155   156    1
   114   157   156    2
   115    96    95    1
   116    70    71    1
   117    70    69    1
   118   102   100   ar
   119    60    61    2
   120    68    69    1
   121    68    67    1
   122    85    82    1
   123    64    67    1
   124    64    63    1
   125    64    65    1
   126    99   100    1
   127    99    98    1
   128   100   101   ar
   129    95    98    1
   130    95    94    1
   131    81    82    1
   132    82    83    1
   133    65    66    2
   134    89    88    2
   135    93    92    1
   136    94    88   am
   137    91    92    1
   138    91    90    1
   139    88    87    1
   140    83    84    2
   141    80    78   am
   142    90    87    1
   143    87    86    1
   144    78    79    2
   145    78    77    1
   146    77    76    1
   147    76    73    1
   148    73    72    1
   149    73    74    1
   150    75    74    2
