@<TRIPOS>MOLECULE
tmp/4y84N00.pdb
 131 121 0 0 0
SMALL
GASTEIGER

@<TRIPOS>ATOM
      1  N         44.1410 -142.4140   62.9890 N.3     1  THR1       -0.1218
      2  CA        44.0810 -141.7820   64.3670 C.3     1  THR1        0.1862
      3  C         43.1470 -142.3700   65.4720 C.2     1  THR1        0.2287
      4  O         42.1260 -142.9850   65.1670 O.2     1  THR1       -0.2866
      5  CB        43.6070 -140.3420   64.1410 C.3     1  THR1        0.1770
      6  OG1       44.6060 -139.6700   63.3820 O.3     1  THR1       -0.2211
      7  CG2       43.3840 -139.5210   65.4120 C.3     1  THR1        0.0375
      8  N         50.3590 -140.7970   66.0110 N.3    19  ARG19      -0.1231
      9  CA        50.7170 -141.4570   64.7530 C.3    19  ARG19       0.1694
     10  C         50.0870 -140.7820   63.5430 C.2    19  ARG19       0.2593
     11  O         48.8890 -140.5230   63.5370 O.2    19  ARG19      -0.2718
     12  CB        50.2630 -142.9170   64.7830 C.3    19  ARG19       0.0321
     13  CG        50.5280 -143.6810   63.4940 C.3    19  ARG19       0.0489
     14  CD        50.4260 -145.1790   63.7110 C.3    19  ARG19       0.2205
     15  NE        51.5210 -145.6670   64.5460 N.pl3  19  ARG19      -0.0865
     16  CZ        51.7360 -146.9440   64.8480 C.cat  19  ARG19       0.5346
     17  NH1       50.9390 -147.9010   64.3800 N.pl3  19  ARG19       0.1354
     18  NH2       52.7700 -147.2680   65.6150 N.pl3  19  ARG19       0.1354
     19  N         50.9040 -140.5620   62.5160 N.am   20  THR20      -0.1939
     20  CA        50.5170 -140.1250   61.1760 C.3    20  THR20       0.2028
     21  C         50.9820 -141.1590   60.1620 C.2    20  THR20       0.2643
     22  O         52.1320 -141.4720   60.1390 O.2    20  THR20      -0.2714
     23  CB        51.2340 -138.8190   60.8070 C.3    20  THR20       0.1808
     24  OG1       51.1560 -137.9030   61.8880 O.3    20  THR20      -0.2208
     25  CG2       50.6320 -138.1900   59.6270 C.3    20  THR20       0.0379
     26  N         50.1390 -141.4760   59.2190 N.am   21  THR21      -0.1936
     27  CA        50.3810 -142.5550   58.3270 C.3    21  THR21       0.2028
     28  C         50.4790 -142.1230   56.8580 C.2    21  THR21       0.2643
     29  O         49.7360 -141.2820   56.4510 O.2    21  THR21      -0.2714
     30  CB        49.2770 -143.5650   58.6540 C.3    21  THR21       0.1808
     31  OG1       49.8710 -144.8010   59.0050 O.3    21  THR21      -0.2208
     32  CG2       48.2480 -143.7380   57.5750 C.3    21  THR21       0.0379
     33  N         51.2760 -142.8000   56.0870 N.am   22  THR22      -0.1936
     34  CA        51.2420 -142.5570   54.6910 C.3    22  THR22       0.2028
     35  C         51.1190 -143.9290   54.0230 C.2    22  THR22       0.2642
     36  O         52.0630 -144.4790   53.5410 O.2    22  THR22      -0.2714
     37  CB        52.4110 -141.6350   54.3390 C.3    22  THR22       0.1808
     38  OG1       52.0500 -140.8110   53.2510 O.3    22  THR22      -0.2208
     39  CG2       53.6470 -142.3520   54.0530 C.3    22  THR22       0.0379
     40  N         49.9120 -144.4770   54.0580 N.am   23  GLY23      -0.1954
     41  CA        49.6560 -145.8740   53.7390 C.3    23  GLY23       0.1869
     42  C         49.8560 -146.6570   55.0200 C.2    23  GLY23       0.2309
     43  O         49.1940 -146.3850   56.0230 O.2    23  GLY23      -0.2863
     44  N         54.6090 -141.8660   58.9200 N.3    27  ALA27      -0.1245
     45  CA        55.3220 -140.6500   58.5220 C.3    27  ALA27       0.1562
     46  C         55.8130 -139.8340   59.7200 C.2    27  ALA27       0.2260
     47  O         56.8310 -139.1510   59.6290 O.2    27  ALA27      -0.2867
     48  CB        54.4380 -139.7900   57.6330 C.3    27  ALA27       0.0290
     49  N         53.5420 -136.9860   66.4440 N.3    31  THR31      -0.1218
     50  CA        52.6000 -135.9230   66.0790 C.3    31  THR31       0.1862
     51  C         51.8400 -135.3560   67.2730 C.2    31  THR31       0.2287
     52  O         51.5720 -136.0700   68.2440 O.2    31  THR31      -0.2866
     53  CB        51.5590 -136.4750   65.0940 C.3    31  THR31       0.1770
     54  OG1       52.2330 -137.2810   64.1280 O.3    31  THR31      -0.2211
     55  CG2       50.7930 -135.3570   64.3880 C.3    31  THR31       0.0375
     56  N         48.3110 -133.9750   67.8200 N.3    33  LYS33      -0.1245
     57  CA        46.9710 -133.8740   67.2350 C.3    33  LYS33       0.1561
     58  C         46.0240 -133.0070   68.0690 C.2    33  LYS33       0.2260
     59  O         44.8940 -132.7470   67.6520 O.2    33  LYS33      -0.2867
     60  CB        46.3660 -135.2740   67.0570 C.3    33  LYS33       0.0271
     61  CG        47.2710 -136.2450   66.3100 C.3    33  LYS33       0.0035
     62  CD        46.6450 -137.6200   66.1500 C.3    33  LYS33       0.0206
     63  CE        47.5940 -138.5560   65.4210 C.3    33  LYS33       0.1093
     64  NZ        46.9390 -139.8260   64.9990 N.3    33  LYS33      -0.1314
     65  N         42.2700 -133.3610   66.2970 N.3    45  ARG45      -0.1231
     66  CA        42.2030 -133.4820   64.8460 C.3    45  ARG45       0.1694
     67  C         42.3090 -134.9360   64.3870 C.2    45  ARG45       0.2593
     68  O         43.1830 -135.6770   64.8410 O.2    45  ARG45      -0.2718
     69  CB        43.3270 -132.6610   64.2110 C.3    45  ARG45       0.0321
     70  CG        43.2410 -131.1740   64.5160 C.3    45  ARG45       0.0489
     71  CD        44.3310 -130.3810   63.8130 C.3    45  ARG45       0.2205
     72  NE        45.6650 -130.7170   64.3120 N.pl3  45  ARG45      -0.0865
     73  CZ        46.5860 -131.4150   63.6460 C.cat  45  ARG45       0.5346
     74  NH1       46.3520 -131.8970   62.4250 N.pl3  45  ARG45       0.1354
     75  NH2       47.7640 -131.6450   64.2180 N.pl3  45  ARG45       0.1354
     76  N         41.4070 -135.3340   63.4900 N.am   46  SER46      -0.1938
     77  CA        41.4960 -136.6220   62.8010 C.3    46  SER46       0.2055
     78  C         41.0790 -136.4730   61.3390 C.2    46  SER46       0.2644
     79  O         40.3520 -135.5410   60.9830 O.2    46  SER46      -0.2714
     80  CB        40.6250 -137.6770   63.4880 C.3    46  SER46       0.2130
     81  OG        39.2520 -137.4970   63.1840 O.3    46  SER46      -0.2179
     82  N         41.5310 -137.4080   60.5060 N.am   47  GLY47      -0.1939
     83  CA        41.2790 -137.3670   59.0650 C.3    47  GLY47       0.2014
     84  C         42.5210 -136.9120   58.3210 C.2    47  GLY47       0.2640
     85  O         43.6240 -137.3610   58.6170 O.2    47  GLY47      -0.2714
     86  N         42.3460 -136.0210   57.3520 N.am   48  SER48      -0.1935
     87  CA        43.4760 -135.4690   56.6100 C.3    48  SER48       0.2055
     88  C         44.2750 -134.5200   57.4970 C.2    48  SER48       0.2643
     89  O         43.7060 -133.6440   58.1480 O.2    48  SER48      -0.2714
     90  CB        42.9930 -134.7180   55.3670 C.3    48  SER48       0.2130
     91  OG        44.0680 -134.0540   54.7190 O.3    48  SER48      -0.2179
     92  N         45.5920 -134.7000   57.5200 N.am   49  ALA49      -0.1963
     93  CA        46.4690 -133.8100   58.2770 C.3    49  ALA49       0.1728
     94  C         46.4420 -132.4000   57.6930 C.2    49  ALA49       0.2616
     95  O         46.3880 -131.4210   58.4330 O.2    49  ALA49      -0.2715
     96  CB        47.8920 -134.3470   58.3010 C.3    49  ALA49       0.0334
     97  N         46.4620 -132.3060   56.3650 N.am   50  ALA50      -0.1977
     98  CA        46.4660 -131.0110   55.6860 C.3    50  ALA50       0.1597
     99  C         45.1470 -130.2700   55.8760 C.2    50  ALA50       0.2287
    100  O         45.1420 -129.0870   56.2150 O.2    50  ALA50      -0.2864
    101  CB        46.7670 -131.1850   54.2050 C.3    50  ALA50       0.0319
    102  N         42.8350 -130.6930   58.2760 N.3    52  THR52      -0.1218
    103  CA        42.5980 -130.3270   59.6780 C.3    52  THR52       0.1862
    104  C         43.4940 -129.1870   60.1700 C.2    52  THR52       0.2287
    105  O         43.0480 -128.3500   60.9570 O.2    52  THR52      -0.2866
    106  CB        42.7430 -131.5350   60.6250 C.3    52  THR52       0.1770
    107  OG1       44.0130 -132.1670   60.4190 O.3    52  THR52      -0.2211
    108  CG2       41.6150 -132.5310   60.3850 C.3    52  THR52       0.0375
    109  N         38.2560 -133.8710   54.4130 N.3    94  THR94      -0.1218
    110  CA        38.2370 -135.0880   55.2100 C.3    94  THR94       0.1862
    111  C         38.7420 -134.7230   56.6040 C.2    94  THR94       0.2287
    112  O         39.9280 -134.8540   56.9090 O.2    94  THR94      -0.2866
    113  CB        39.0830 -136.2010   54.5660 C.3    94  THR94       0.1770
    114  OG1       38.7210 -136.3340   53.1860 O.3    94  THR94      -0.2211
    115  CG2       38.8450 -137.5220   55.2600 C.3    94  THR94       0.0375
    116  N         38.1210 -140.9000   65.2520 N.3   128  GLY128     -0.1210
    117  CA        39.2970 -141.4600   64.5960 C.3   128  GLY128      0.1956
    118  C         39.1150 -142.9500   64.3790 C.2   128  GLY128      0.2612
    119  O         38.2970 -143.5860   65.0490 O.2   128  GLY128     -0.2717
    120  N         39.8830 -143.5020   63.4430 N.am  129  SER129     -0.1952
    121  CA        39.8110 -144.9240   63.0880 C.3   129  SER129      0.1924
    122  C         39.8350 -145.8500   64.3060 C.2   129  SER129      0.2314
    123  O         39.0560 -146.8000   64.3850 O.2   129  SER129     -0.2863
    124  CB        40.9600 -145.2900   62.1430 C.3   129  SER129      0.2116
    125  OG        42.2230 -145.0450   62.7390 O.3   129  SER129     -0.2180
    126  N         46.5230 -147.9420   62.7320 N.3   168  SER168     -0.1217
    127  CA        46.6420 -146.5260   62.3760 C.3   168  SER168      0.1889
    128  C         46.7110 -145.6150   63.6040 C.2   168  SER168      0.2288
    129  O         46.5100 -144.4100   63.4940 O.2   168  SER168     -0.2866
    130  CB        45.4690 -146.1020   61.4890 C.3   168  SER168      0.2089
    131  OG        45.2410 -147.0530   60.4640 O.3   168  SER168     -0.2183
@<TRIPOS>BOND
     1   114   113    1
     2    38    37    1
     3    36    35    2
     4    41    40    1
     5    41    42    1
     6    35    40   am
     7    35    34    1
     8    39    37    1
     9   101    98    1
    10    37    34    1
    11   109   110    1
    12   113   110    1
    13   113   115    1
    14    34    33    1
    15    91    90    1
    16    42    43    2
    17   110   111    1
    18    90    87    1
    19    98    99    1
    20    98    97    1
    21    99   100    2
    22    33    28   am
    23    97    94   am
    24    29    28    2
    25   111   112    2
    26    87    86    1
    27    87    88    1
    28    28    27    1
    29    86    84   am
    30    88    92   am
    31    88    89    2
    32    92    93    1
    33    32    30    1
    34    48    45    1
    35    94    93    1
    36    94    95    2
    37   102   103    1
    38    93    96    1
    39    84    85    2
    40    84    83    1
    41    27    30    1
    42    27    26    1
    43    45    44    1
    44    45    46    1
    45    30    31    1
    46    83    82    1
    47    26    21   am
    48    25    23    1
    49    47    46    2
    50   103   104    1
    51   103   106    1
    52    22    21    2
    53    21    20    1
    54   104   105    2
    55   108   106    1
    56   107   106    1
    57   131   130    1
    58    82    78   am
    59    23    20    1
    60    23    24    1
    61    79    78    2
    62    20    19    1
    63    78    77    1
    64   130   127    1
    65   124   125    1
    66   124   121    1
    67   127   126    1
    68   127   128    1
    69    74    73    1
    70    19    10   am
    71    77    80    1
    72    77    76    1
    73     1     2    1
    74   121   120    1
    75   121   122    1
    76    81    80    1
    77     6     5    1
    78   120   118   am
    79    76    67   am
    80   129   128    2
    81    13    14    1
    82    13    12    1
    83    11    10    2
    84    10     9    1
    85    73    75    1
    86    73    72    2
    87    14    15    1
    88    71    72    1
    89    71    70    1
    90    54    53    1
    91     5     2    1
    92     5     7    1
    93    69    70    1
    94    69    66    1
    95   122   123    2
    96     2     3    1
    97   118   117    1
    98   118   119    2
    99    17    16    1
   100    67    68    2
   101    67    66    1
   102    55    53    1
   103    15    16    2
   104   117   116    1
   105     9    12    1
   106     9     8    1
   107    66    65    1
   108    16    18    1
   109    64    63    1
   110    53    50    1
   111     4     3    2
   112    63    62    1
   113    50    49    1
   114    50    51    1
   115    62    61    1
   116    61    60    1
   117    60    57    1
   118    57    56    1
   119    57    58    1
   120    51    52    2
   121    59    58    2
