@<TRIPOS>MOLECULE
tmp/4y84V00.pdb
 121 112 0 0 0
SMALL
GASTEIGER

@<TRIPOS>ATOM
      1  N          5.4340 -159.4510   43.8740 N.3     1  THR1       -0.1218
      2  CA         4.5530 -160.3220   44.7130 C.3     1  THR1        0.1862
      3  C          4.4190 -160.0300   46.2010 C.2     1  THR1        0.2287
      4  O          5.3320 -159.5100   46.7800 O.2     1  THR1       -0.2866
      5  CB         5.1240 -161.6770   44.6070 C.3     1  THR1        0.1770
      6  OG1        4.9780 -161.9380   43.2670 O.3     1  THR1       -0.2211
      7  CG2        4.3670 -162.7500   45.3530 C.3     1  THR1        0.0375
      8  N         -0.8650 -161.3070   41.2460 N.3    19  ARG19      -0.1231
      9  CA        -0.4100 -160.4220   40.1730 C.3    19  ARG19       0.1694
     10  C          0.9480 -160.8390   39.6150 C.2    19  ARG19       0.2593
     11  O          1.8650 -161.1700   40.3670 O.2    19  ARG19      -0.2718
     12  CB        -0.3350 -158.9750   40.6630 C.3    19  ARG19       0.0321
     13  CG         0.3000 -158.0160   39.6620 C.3    19  ARG19       0.0489
     14  CD         0.3600 -156.5970   40.1950 C.3    19  ARG19       0.2205
     15  NE        -0.9670 -156.0110   40.3570 N.pl3  19  ARG19      -0.0865
     16  CZ        -1.1960 -154.7590   40.7440 C.cat  19  ARG19       0.5346
     17  NH1       -0.1860 -153.9370   41.0160 N.pl3  19  ARG19       0.1354
     18  NH2       -2.4450 -154.3270   40.8620 N.pl3  19  ARG19       0.1354
     19  N          1.0660 -160.8000   38.2890 N.am   20  SER20      -0.1938
     20  CA         2.3400 -160.9960   37.6030 C.3    20  SER20       0.2055
     21  C          2.6920 -159.7120   36.8570 C.2    20  SER20       0.2644
     22  O          1.8250 -159.1200   36.2130 O.2    20  SER20      -0.2714
     23  CB         2.2340 -162.1600   36.6190 C.3    20  SER20       0.2130
     24  OG         3.5080 -162.5240   36.1180 O.3    20  SER20      -0.2179
     25  N          3.9490 -159.2790   36.9410 N.am   21  THR21      -0.1936
     26  CA         4.3690 -158.0290   36.2980 C.3    21  THR21       0.2028
     27  C          5.4990 -158.1980   35.2890 C.2    21  THR21       0.2642
     28  O          6.4430 -158.9470   35.5200 O.2    21  THR21      -0.2714
     29  CB         4.8440 -156.9790   37.3210 C.3    21  THR21       0.1808
     30  OG1        5.9920 -157.4710   38.0280 O.3    21  THR21      -0.2208
     31  CG2        3.7300 -156.6330   38.2990 C.3    21  THR21       0.0379
     32  N          5.4200 -157.4740   34.1830 N.am   22  GLN22      -0.1976
     33  CA         6.5290 -157.3480   33.2540 C.3    22  GLN22       0.1601
     34  C          6.8880 -155.8920   33.1330 C.2    22  GLN22       0.2287
     35  O          6.3560 -155.1800   32.3290 O.2    22  GLN22      -0.2864
     36  CB         6.1900 -157.9410   31.9030 C.3    22  GLN22       0.0394
     37  CG         7.0390 -157.4460   30.7430 C.3    22  GLN22       0.0908
     38  CD         8.5250 -157.7080   30.8920 C.2    22  GLN22       0.2608
     39  OE1        8.9480 -158.4300   31.7800 O.2    22  GLN22      -0.2717
     40  NE2        9.3160 -157.1320   30.0200 N.am   22  GLN22      -0.0878
     41  N          1.1970 -158.3910   33.5870 N.3    27  ALA27      -0.1245
     42  CA         1.1800 -159.5140   32.6510 C.3    27  ALA27       0.1562
     43  C          0.0160 -160.4770   32.9050 C.2    27  ALA27       0.2260
     44  O         -0.6400 -160.9200   31.9610 O.2    27  ALA27      -0.2867
     45  CB         2.5060 -160.2580   32.7150 C.3    27  ALA27       0.0290
     46  N         -2.6500 -165.2500   38.3440 N.3    31  CYS31      -0.1235
     47  CA        -1.8200 -166.4560   38.3460 C.3    31  CYS31       0.1677
     48  C         -1.7430 -167.0550   39.7430 C.2    31  CYS31       0.2270
     49  O         -1.9860 -166.3770   40.7430 O.2    31  CYS31      -0.2867
     50  CB        -0.4180 -166.2020   37.7860 C.3    31  CYS31       0.0956
     51  SG         0.7520 -165.4420   38.9290 S.3    31  CYS31      -0.0801
     52  N          0.2990 -168.5940   42.6570 N.3    33  LYS33      -0.1245
     53  CA         1.6390 -168.5940   43.2350 C.3    33  LYS33       0.1561
     54  C          1.7560 -169.6520   44.3300 C.2    33  LYS33       0.2260
     55  O          2.8120 -169.8040   44.9410 O.2    33  LYS33      -0.2867
     56  CB         1.9740 -167.1970   43.7680 C.3    33  LYS33       0.0271
     57  CG         1.7140 -166.1000   42.7430 C.3    33  LYS33       0.0035
     58  CD         2.2700 -164.7510   43.1640 C.3    33  LYS33       0.0206
     59  CE         1.6240 -163.6160   42.3800 C.3    33  LYS33       0.1093
     60  NZ         2.1400 -162.2830   42.7980 N.3    33  LYS33      -0.1314
     61  N          1.8790 -173.5390   45.0980 N.3    35  HIS35      -0.1241
     62  CA         2.2690 -174.7590   44.4300 C.3    35  HIS35       0.1621
     63  C          2.1950 -175.9590   45.3200 C.2    35  HIS35       0.2264
     64  O          2.5580 -175.9030   46.4590 O.2    35  HIS35      -0.2867
     65  CB         3.6940 -174.6360   43.9550 C.3    35  HIS35       0.0745
     66  CG         3.9160 -173.5120   43.0050 C.ar   35  HIS35       0.0817
     67  ND1        4.5690 -172.3580   43.3620 N.ar   35  HIS35      -0.2268
     68  CD2        3.5810 -173.3700   41.7080 C.ar   35  HIS35       0.1154
     69  CE1        4.6130 -171.5470   42.3290 C.ar   35  HIS35       0.1986
     70  NE2        4.0290 -172.1410   41.3110 N.ar   35  HIS35      -0.2212
     71  N          5.6330 -168.9430   46.0400 N.3    45  GLY45      -0.1210
     72  CA         6.8480 -168.5090   45.3630 C.3    45  GLY45       0.1956
     73  C          6.7980 -167.0980   44.8230 C.2    45  GLY45       0.2612
     74  O          5.8290 -166.6990   44.1780 O.2    45  GLY45      -0.2717
     75  N          7.8570 -166.3450   45.1080 N.am   46  ALA46      -0.1965
     76  CA         8.0610 -165.0150   44.5570 C.3    46  ALA46       0.1728
     77  C          9.3960 -165.0090   43.8280 C.2    46  ALA46       0.2617
     78  O         10.2280 -165.8950   44.0370 O.2    46  ALA46      -0.2715
     79  CB         8.0610 -163.9800   45.6670 C.3    46  ALA46       0.0334
     80  N          9.6010 -164.0080   42.9790 N.am   47  GLY47      -0.1940
     81  CA        10.8290 -163.9000   42.1950 C.3    47  GLY47       0.2014
     82  C         10.5510 -164.1420   40.7260 C.2    47  GLY47       0.2640
     83  O          9.4820 -163.7900   40.2260 O.2    47  GLY47      -0.2714
     84  N         11.5100 -164.7530   40.0360 N.am   48  THR48      -0.1936
     85  CA        11.3690 -165.0430   38.6130 C.3    48  THR48       0.2028
     86  C         10.3220 -166.1410   38.4260 C.2    48  THR48       0.2642
     87  O         10.5270 -167.2800   38.8410 O.2    48  THR48      -0.2714
     88  CB        12.7140 -165.4760   37.9990 C.3    48  THR48       0.1808
     89  OG1       13.7160 -164.5050   38.3190 O.3    48  THR48      -0.2208
     90  CG2       12.6090 -165.6100   36.4860 C.3    48  THR48       0.0379
     91  N          9.2010 -165.7810   37.8060 N.am   49  ALA49      -0.1963
     92  CA         8.0250 -166.6550   37.7240 C.3    49  ALA49       0.1728
     93  C          8.3270 -168.0740   37.2370 C.2    49  ALA49       0.2616
     94  O          7.9330 -169.0470   37.8830 O.2    49  ALA49      -0.2715
     95  CB         6.9570 -166.0160   36.8480 C.3    49  ALA49       0.0334
     96  N          9.0150 -168.1850   36.1020 N.am   50  ALA50      -0.1977
     97  CA         9.4050 -169.4890   35.5600 C.3    50  ALA50       0.1597
     98  C         10.2790 -170.2840   36.5280 C.2    50  ALA50       0.2287
     99  O         10.1320 -171.5030   36.6350 O.2    50  ALA50      -0.2864
    100  CB        10.1300 -169.3210   34.2390 C.3    50  ALA50       0.0319
    101  N         10.3310 -170.1820   39.8900 N.3    52  THR52      -0.1218
    102  CA         9.5730 -170.7130   41.0270 C.3    52  THR52       0.1862
    103  C          8.6990 -171.8890   40.6110 C.2    52  THR52       0.2287
    104  O          8.5660 -172.8440   41.3650 O.2    52  THR52      -0.2866
    105  CB         8.6980 -169.6520   41.7290 C.3    52  THR52       0.1770
    106  OG1        7.6720 -169.1920   40.8410 O.3    52  THR52      -0.2211
    107  CG2        9.5490 -168.4790   42.2120 C.3    52  THR52       0.0375
    108  N          8.6670 -161.3860   49.0480 N.3   128  GLY128     -0.1210
    109  CA         8.2090 -160.6680   47.8550 C.3   128  GLY128      0.1956
    110  C          8.3170 -159.1620   48.0140 C.2   128  GLY128      0.2612
    111  O          8.6900 -158.6680   49.0770 O.2   128  GLY128     -0.2717
    112  N          7.9930 -158.4240   46.9550 N.am  129  SER129     -0.1952
    113  CA         8.0300 -156.9600   47.0090 C.3   129  SER129      0.1924
    114  C          7.0600 -156.4190   48.0560 C.2   129  SER129      0.2314
    115  O          7.3250 -155.3920   48.6780 O.2   129  SER129     -0.2863
    116  CB         7.7180 -156.3480   45.6410 C.3   129  SER129      0.2116
    117  OG         6.4620 -156.7880   45.1570 O.3   129  SER129     -0.2180
    118  N          3.7070 -153.8860   43.3150 N.3   168  GLY168     -0.1225
    119  CA         4.0930 -155.2070   42.8270 C.3   168  GLY168      0.1811
    120  C          3.0670 -156.2900   43.1130 C.2   168  GLY168      0.2280
    121  O          3.2710 -157.4440   42.7520 O.2   168  GLY168     -0.2866
@<TRIPOS>BOND
     1    40    38   am
     2    37    38    1
     3    37    36    1
     4    38    39    2
     5    36    33    1
     6    44    43    2
     7    35    34    2
     8    42    45    1
     9    42    43    1
    10    42    41    1
    11    34    33    1
    12    33    32    1
    13    32    27   am
    14   100    97    1
    15    27    28    2
    16    27    26    1
    17    97    96    1
    18    97    98    1
    19    96    93   am
    20    24    23    1
    21    22    21    2
    22    26    25    1
    23    26    29    1
    24    90    88    1
    25    98    99    2
    26    23    20    1
    27    95    92    1
    28    21    25   am
    29    21    20    1
    30    93    92    1
    31    93    94    2
    32    29    30    1
    33    29    31    1
    34    20    19    1
    35    92    91    1
    36    50    47    1
    37    50    51    1
    38    91    86   am
    39    88    89    1
    40    88    85    1
    41    19    10   am
    42    46    47    1
    43    47    48    1
    44    86    85    1
    45    86    87    2
    46    85    84    1
    47    10     9    1
    48    10    11    2
    49    13    14    1
    50    13    12    1
    51    48    49    2
    52   101   102    1
    53    84    82   am
    54     9    12    1
    55     9     8    1
    56    14    15    1
    57    83    82    2
    58    15    16    2
    59   103   102    1
    60   103   104    2
    61    82    81    1
    62    16    18    1
    63    16    17    1
    64   106   105    1
    65   102   105    1
    66    70    68   ar
    67    70    69   ar
    68    68    66   ar
    69   105   107    1
    70    81    80    1
    71    69    67   ar
    72    59    60    1
    73    59    58    1
    74    52    53    1
    75    57    58    1
    76    57    56    1
    77   121   120    2
    78   119   120    1
    79   119   118    1
    80    80    77   am
    81    66    67   ar
    82    66    65    1
    83    53    56    1
    84    53    54    1
    85     6     5    1
    86    77    78    2
    87    77    76    1
    88     1     2    1
    89    65    62    1
    90    74    73    2
    91    54    55    2
    92    62    61    1
    93    62    63    1
    94    76    75    1
    95    76    79    1
    96     5     2    1
    97     5     7    1
    98     2     3    1
    99    73    75   am
   100    73    72    1
   101   117   116    1
   102    63    64    2
   103    72    71    1
   104   116   113    1
   105     3     4    2
   106   112   113    1
   107   112   110   am
   108   113   114    1
   109   109   110    1
   110   109   108    1
   111   110   111    2
   112   114   115    2
