@<TRIPOS>MOLECULE
tmp/4y84Y00.pdb
 121 112 0 0 0
SMALL
GASTEIGER

@<TRIPOS>ATOM
      1  N         57.0130 -152.6600    8.5290 N.3     1  THR1       -0.1218
      2  CA        57.2880 -153.3720    7.2600 C.3     1  THR1        0.1862
      3  C         56.7600 -152.7870    5.9730 C.2     1  THR1        0.2287
      4  O         55.6710 -152.2870    5.9180 O.2     1  THR1       -0.2866
      5  CB        56.6880 -154.7330    7.3520 C.3     1  THR1        0.1770
      6  OG1       57.3430 -155.2900    8.3940 O.3     1  THR1       -0.2211
      7  CG2       56.9770 -155.6200    6.1710 C.3     1  THR1        0.0375
      8  N         63.4430 -153.9570    8.2810 N.3    19  ARG19      -0.1231
      9  CA        63.3320 -153.3100    9.5920 C.3    19  ARG19       0.1694
     10  C         62.3240 -153.9990   10.5120 C.2    19  ARG19       0.2592
     11  O         61.2650 -154.4380   10.0680 O.2    19  ARG19      -0.2718
     12  CB        62.9670 -151.8280    9.4500 C.3    19  ARG19       0.0321
     13  CG        62.8070 -151.1180   10.7890 C.3    19  ARG19       0.0489
     14  CD        62.7040 -149.6130   10.6400 C.3    19  ARG19       0.2205
     15  NE        63.9630 -149.0180   10.2020 N.pl3  19  ARG19      -0.0865
     16  CZ        64.1620 -147.7130   10.0330 C.cat  19  ARG19       0.5346
     17  NH1       63.1870 -146.8410   10.2670 N.pl3  19  ARG19       0.1354
     18  NH2       65.3460 -147.2750    9.6280 N.pl3  19  ARG19       0.1354
     19  N         62.6780 -154.0920   11.7940 N.am   20  ALA20      -0.1966
     20  CA        61.7500 -154.5050   12.8420 C.3    20  ALA20       0.1728
     21  C         61.7180 -153.4210   13.9180 C.2    20  ALA20       0.2617
     22  O         62.7650 -152.9110   14.3230 O.2    20  ALA20      -0.2715
     23  CB        62.1690 -155.8390   13.4410 C.3    20  ALA20       0.0334
     24  N         60.5140 -153.0760   14.3710 N.am   21  THR21      -0.1937
     25  CA        60.3210 -152.0250   15.3700 C.3    21  THR21       0.2028
     26  C         59.5130 -152.5260   16.5620 C.2    21  THR21       0.2642
     27  O         58.6180 -153.3510   16.3980 O.2    21  THR21      -0.2714
     28  CB        59.5490 -150.8280   14.7780 C.3    21  THR21       0.1808
     29  OG1       58.2310 -151.2450   14.3950 O.3    21  THR21      -0.2208
     30  CG2       60.2710 -150.2560   13.5660 C.3    21  THR21       0.0379
     31  N         59.8320 -152.0210   17.7520 N.am   22  ALA22      -0.1977
     32  CA        58.9590 -152.1580   18.9210 C.3    22  ALA22       0.1597
     33  C         58.5650 -150.7580   19.3760 C.2    22  ALA22       0.2287
     34  O         59.3180 -150.0890   20.0870 O.2    22  ALA22      -0.2864
     35  CB        59.6570 -152.9110   20.0410 C.3    22  ALA22       0.0319
     36  N         64.4080 -152.1230   16.3740 N.3    27  ALA27      -0.1245
     37  CA        64.9100 -153.3300   17.0230 C.3    27  ALA27       0.1562
     38  C         65.9640 -154.0230   16.1720 C.2    27  ALA27       0.2260
     39  O         66.9380 -154.5600   16.7000 O.2    27  ALA27      -0.2867
     40  CB        63.7610 -154.2780   17.3210 C.3    27  ALA27       0.0290
     41  N         66.5690 -157.9160    9.2880 N.3    31  VAL31      -0.1245
     42  CA        65.6290 -159.0350    9.3070 C.3    31  VAL31       0.1561
     43  C         65.4880 -159.6040    7.8980 C.2    31  VAL31       0.2260
     44  O         65.3850 -158.8490    6.9300 O.2    31  VAL31      -0.2867
     45  CB        64.2430 -158.6030    9.8340 C.3    31  VAL31       0.0252
     46  CG1       63.2110 -159.7090    9.6450 C.3    31  VAL31       0.0019
     47  CG2       64.3320 -158.2240   11.3030 C.3    31  VAL31       0.0019
     48  N         63.0160 -160.9790    5.7030 N.3    33  LYS33      -0.1245
     49  CA        61.5510 -161.0520    5.6060 C.3    33  LYS33       0.1561
     50  C         61.0390 -161.9470    4.4770 C.2    33  LYS33       0.2260
     51  O         59.8310 -162.1510    4.3570 O.2    33  LYS33      -0.2867
     52  CB        60.9420 -159.6480    5.4810 C.3    33  LYS33       0.0271
     53  CG        61.0270 -158.8550    6.7730 C.3    33  LYS33       0.0035
     54  CD        60.3690 -157.4910    6.6700 C.3    33  LYS33       0.0206
     55  CE        60.8740 -156.5750    7.7740 C.3    33  LYS33       0.1093
     56  NZ        60.2570 -155.2270    7.7090 N.3    33  LYS33      -0.1314
     57  N         57.1370 -161.9200    4.8540 N.3    45  MET45      -0.1230
     58  CA        56.6800 -161.6900    6.2320 C.3    45  MET45       0.1702
     59  C         56.3310 -160.2310    6.5240 C.2    45  MET45       0.2592
     60  O         57.1090 -159.3280    6.2180 O.2    45  MET45      -0.2718
     61  CB        57.7580 -162.1200    7.2230 C.3    45  MET45       0.0401
     62  CG        58.1190 -163.5870    7.1550 C.3    45  MET45       0.0596
     63  SD        59.4330 -163.9820    8.3170 S.3    45  MET45      -0.1393
     64  CE        60.1530 -165.3820    7.4630 C.3    45  MET45       0.0692
     65  N         55.1640 -160.0190    7.1290 N.am   46  ALA46      -0.1966
     66  CA        54.7880 -158.7170    7.6860 C.3    46  ALA46       0.1728
     67  C         53.7840 -158.9110    8.8160 C.2    46  ALA46       0.2617
     68  O         52.8860 -159.7490    8.7150 O.2    46  ALA46      -0.2715
     69  CB        54.2040 -157.8130    6.6130 C.3    46  ALA46       0.0334
     70  N         53.9370 -158.1250    9.8800 N.am   47  GLY47      -0.1940
     71  CA        53.1290 -158.2720   11.0910 C.3    47  GLY47       0.2014
     72  C         54.0300 -158.6460   12.2480 C.2    47  GLY47       0.2639
     73  O         55.1360 -158.1170   12.3700 O.2    47  GLY47      -0.2714
     74  N         53.5670 -159.5650   13.0920 N.am   48  GLY48      -0.1939
     75  CA        54.3610 -160.0370   14.2210 C.3    48  GLY48       0.2014
     76  C         55.5780 -160.8020   13.7390 C.2    48  GLY48       0.2639
     77  O         55.4510 -161.7570   12.9700 O.2    48  GLY48      -0.2714
     78  N         56.7590 -160.3740   14.1810 N.am   49  ALA49      -0.1963
     79  CA        58.0160 -161.0050   13.7710 C.3    49  ALA49       0.1728
     80  C         58.0230 -162.4980   14.0830 C.2    49  ALA49       0.2616
     81  O         58.3350 -163.3150   13.2170 O.2    49  ALA49      -0.2715
     82  CB        59.2000 -160.3170   14.4360 C.3    49  ALA49       0.0334
     83  N         57.6700 -162.8440   15.3170 N.am   50  ALA50      -0.1977
     84  CA        57.6090 -164.2420   15.7450 C.3    50  ALA50       0.1597
     85  C         56.5370 -165.0290   14.9950 C.2    50  ALA50       0.2287
     86  O         56.8200 -166.0890   14.4360 O.2    50  ALA50      -0.2864
     87  CB        57.3610 -164.3230   17.2400 C.3    50  ALA50       0.0319
     88  N         55.0770 -164.5920   12.1370 N.3    52  CYS52      -0.1235
     89  CA        55.4630 -164.8080   10.7470 C.3    52  CYS52       0.1677
     90  C         56.5780 -165.8330   10.6290 C.2    52  CYS52       0.2270
     91  O         56.4460 -166.8200    9.9120 O.2    52  CYS52      -0.2867
     92  CB        55.9250 -163.4970   10.1140 C.3    52  CYS52       0.0956
     93  SG        54.5840 -162.3730    9.6750 S.3    52  CYS52      -0.0801
     94  N         49.1220 -162.0200   14.2120 N.3    96  SER96      -0.1217
     95  CA        49.2450 -160.8530   13.3470 C.3    96  SER96       0.1889
     96  C         50.1860 -161.1600   12.1900 C.2    96  SER96       0.2288
     97  O         51.4060 -161.2040   12.3650 O.2    96  SER96      -0.2866
     98  CB        49.7570 -159.6550   14.1480 C.3    96  SER96       0.2089
     99  OG        49.7160 -158.4690   13.3740 O.3    96  SER96      -0.2183
    100  N         52.0320 -154.3670    4.4970 N.3   130  GLY130     -0.1210
    101  CA        52.7470 -153.7880    5.6270 C.3   130  GLY130      0.1956
    102  C         52.4040 -152.3240    5.8330 C.2   130  GLY130      0.2612
    103  O         51.6650 -151.7250    5.0470 O.2   130  GLY130     -0.2717
    104  N         52.9610 -151.7500    6.8960 N.am  131  SER131     -0.1952
    105  CA        52.7570 -150.3430    7.2390 C.3   131  SER131      0.1924
    106  C         53.1870 -149.3970    6.1240 C.2   131  SER131      0.2314
    107  O         52.6970 -148.2720    6.0420 O.2   131  SER131     -0.2863
    108  CB        53.5370 -149.9990    8.5050 C.3   131  SER131      0.2116
    109  OG        54.9310 -150.1550    8.2980 O.3   131  SER131     -0.2180
    110  N         58.4730 -146.8130    9.8140 N.3   170  TYR170     -0.1241
    111  CA        58.5700 -148.2020   10.2520 C.3   170  TYR170      0.1605
    112  C         59.0470 -149.1590    9.1530 C.2   170  TYR170      0.2264
    113  O         58.9190 -150.3710    9.2880 O.2   170  TYR170     -0.2867
    114  CB        57.2170 -148.6400   10.8190 C.3   170  TYR170      0.0534
    115  CG        56.7660 -147.7510   11.9580 C.ar  170  TYR170     -0.0201
    116  CD1       57.5870 -147.5440   13.0610 C.ar  170  TYR170     -0.0009
    117  CD2       55.5350 -147.1040   11.9300 C.ar  170  TYR170     -0.0009
    118  CE1       57.1980 -146.7270   14.1050 C.ar  170  TYR170      0.0417
    119  CE2       55.1350 -146.2840   12.9740 C.ar  170  TYR170      0.0417
    120  CZ        55.9700 -146.0990   14.0580 C.ar  170  TYR170      0.1957
    121  OH        55.5800 -145.2880   15.1000 O.3   170  TYR170     -0.2866
@<TRIPOS>BOND
     1    51    50    2
     2    50    49    1
     3   100   101    1
     4    57    58    1
     5   103   102    2
     6    52    49    1
     7    52    53    1
     8    49    48    1
     9   101   102    1
    10   102   104   am
    11     4     3    2
    12     3     2    1
    13   107   106    2
    14   106   105    1
    15     7     5    1
    16    60    59    2
    17    58    59    1
    18    58    61    1
    19    59    65   am
    20    69    66    1
    21    54    53    1
    22    54    55    1
    23   104   105    1
    24    44    43    2
    25    65    66    1
    26    62    61    1
    27    62    63    1
    28   105   108    1
    29     2     5    1
    30     2     1    1
    31     5     6    1
    32    64    63    1
    33    66    67    1
    34    56    55    1
    35    43    42    1
    36     8     9    1
    37   109   108    1
    38    68    67    2
    39    67    70   am
    40   112   113    2
    41   112   111    1
    42    41    42    1
    43    42    45    1
    44    12     9    1
    45    12    13    1
    46     9    10    1
    47    18    16    1
    48    46    45    1
    49    93    92    1
    50   110   111    1
    51    45    47    1
    52    70    71    1
    53    91    90    2
    54    16    15    2
    55    16    17    1
    56    11    10    2
    57    92    89    1
    58    15    14    1
    59   111   114    1
    60    10    19   am
    61    90    89    1
    62    14    13    1
    63    89    88    1
    64   114   115    1
    65    71    72    1
    66    19    20    1
    67   117   115   ar
    68   117   119   ar
    69   115   116   ar
    70    96    97    2
    71    96    95    1
    72    72    73    2
    73    72    74   am
    74    20    23    1
    75    20    21    1
    76    77    76    2
    77   119   120   ar
    78   116   118   ar
    79    74    75    1
    80    81    80    2
    81    95    98    1
    82    95    94    1
    83    99    98    1
    84    30    28    1
    85    76    78   am
    86    76    75    1
    87    79    80    1
    88    79    78    1
    89    79    82    1
    90    21    22    2
    91    21    24   am
    92   120   118   ar
    93   120   121    1
    94    80    83   am
    95    24    25    1
    96    29    28    1
    97    86    85    2
    98    28    25    1
    99    85    84    1
   100    83    84    1
   101    25    26    1
   102    84    87    1
   103    38    39    2
   104    38    37    1
   105    36    37    1
   106    27    26    2
   107    26    31   am
   108    37    40    1
   109    31    32    1
   110    32    33    1
   111    32    35    1
   112    33    34    2
