@<TRIPOS>MOLECULE
tmp/4y85B00.pdb
 166 155 0 0 0
SMALL
GASTEIGER

@<TRIPOS>ATOM
      1  N          8.0400   35.4850  201.4780 N.3    51  TRP51      -0.1241
      2  CA         7.7750   36.3910  202.6050 C.3    51  TRP51       0.1605
      3  C          7.6890   35.7160  203.9940 C.2    51  TRP51       0.2264
      4  O          7.3410   34.5330  204.0950 O.2    51  TRP51      -0.2867
      5  CB         6.4900   37.1560  202.3370 C.3    51  TRP51       0.0550
      6  CG         6.4490   37.8440  201.0060 C.ar   51  TRP51       0.0003
      7  CD1        6.0940   37.2960  199.8090 C.ar   51  TRP51       0.0946
      8  CD2        6.7330   39.2240  200.7520 C.ar   51  TRP51       0.0152
      9  NE1        6.1390   38.2480  198.8220 N.ar   51  TRP51      -0.2442
     10  CE2        6.5020   39.4510  199.3770 C.ar   51  TRP51       0.0810
     11  CE3        7.1160   40.3070  201.5650 C.ar   51  TRP51       0.0012
     12  CZ2        6.6470   40.7140  198.7920 C.ar   51  TRP51       0.0191
     13  CZ3        7.2730   41.5540  200.9820 C.ar   51  TRP51       0.0001
     14  CH2        7.0620   41.7440  199.6080 C.ar   51  TRP51       0.0015
     15  N          5.7260   36.4270  207.4740 N.3    53  LEU53      -0.1245
     16  CA         4.7280   37.0840  208.2980 C.3    53  LEU53       0.1561
     17  C          4.8830   36.5400  209.7310 C.2    53  LEU53       0.2260
     18  O          5.2840   35.3860  209.9160 O.2    53  LEU53      -0.2867
     19  CB         3.3200   36.8570  207.7410 C.3    53  LEU53       0.0270
     20  CG         3.0740   37.3510  206.3210 C.3    53  LEU53       0.0019
     21  CD1        1.7250   36.8990  205.8010 C.3    53  LEU53       0.0001
     22  CD2        3.1770   38.8620  206.2230 C.3    53  LEU53       0.0001
     23  N          4.9230   32.2580  202.6300 N.3    59  PHE59      -0.1241
     24  CA         3.7700   32.5440  201.7780 C.3    59  PHE59       0.1605
     25  C          4.1270   33.3940  200.5470 C.2    59  PHE59       0.2264
     26  O          4.9640   34.2850  200.6420 O.2    59  PHE59      -0.2867
     27  CB         2.6480   33.1950  202.6080 C.3    59  PHE59       0.0534
     28  CG         1.4310   33.6540  201.8340 C.ar   59  PHE59      -0.0203
     29  CD1        0.5280   32.7310  201.3090 C.ar   59  PHE59      -0.0042
     30  CD2        1.1790   35.0060  201.6470 C.ar   59  PHE59      -0.0042
     31  CE1       -0.5990   33.1600  200.5920 C.ar   59  PHE59      -0.0003
     32  CE2        0.0580   35.4340  200.9290 C.ar   59  PHE59      -0.0003
     33  CZ        -0.8290   34.5120  200.4110 C.ar   59  PHE59      -0.0000
     34  N          2.1260   35.7150  197.7980 N.3    61  PRO61      -0.2102
     35  CA         0.8740   36.3170  197.3190 C.3    61  PRO61       0.1504
     36  C          0.7620   36.3100  195.7970 C.2    61  PRO61       0.2576
     37  O          1.7740   36.3760  195.0880 O.2    61  PRO61      -0.2718
     38  CB         0.9520   37.7520  197.8500 C.3    61  PRO61       0.0282
     39  CG         2.3960   38.0180  198.0210 C.3    61  PRO61       0.0208
     40  CD         2.9850   36.7230  198.4520 C.3    61  PRO61       0.0893
     41  N         -0.4770   36.2090  195.2960 N.am   62  ARG62      -0.1966
     42  CA        -0.7490   36.2080  193.8590 C.3    62  ARG62       0.1729
     43  C         -1.4190   37.5140  193.4560 C.2    62  ARG62       0.2616
     44  O         -2.4500   37.8910  194.0210 O.2    62  ARG62      -0.2715
     45  CB        -1.6310   35.0210  193.4440 C.3    62  ARG62       0.0348
     46  CG        -0.9120   33.6850  193.3630 C.3    62  ARG62       0.0492
     47  CD        -1.8550   32.5960  192.8700 C.3    62  ARG62       0.2205
     48  NE        -1.2060   31.2850  192.7880 N.pl3  62  ARG62      -0.0865
     49  CZ        -1.7140   30.2300  192.1530 C.cat  62  ARG62       0.5346
     50  NH1       -2.8810   30.3210  191.5240 N.pl3  62  ARG62       0.1354
     51  NH2       -1.0550   29.0780  192.1340 N.pl3  62  ARG62       0.1354
     52  N         -0.8210   38.1890  192.4900 N.am   63  GLY63      -0.1955
     53  CA        -1.3690   39.4060  191.9220 C.3    63  GLY63       0.1869
     54  C         -2.2960   39.0500  190.7840 C.2    63  GLY63       0.2309
     55  O         -2.6040   37.8770  190.5790 O.2    63  GLY63      -0.2863
     56  N          4.1480   37.4610  193.6730 N.3    68  VAL68      -0.1245
     57  CA         4.9970   38.4900  194.2820 C.3    68  VAL68       0.1561
     58  C          5.9080   37.8560  195.3190 C.2    68  VAL68       0.2260
     59  O          5.4310   37.2100  196.2480 O.2    68  VAL68      -0.2867
     60  CB         4.1940   39.7050  194.8530 C.3    68  VAL68       0.0252
     61  CG1        5.1120   40.9040  195.0980 C.3    68  VAL68       0.0019
     62  CG2        3.0380   40.1010  193.9380 C.3    68  VAL68       0.0019
     63  N          9.6690   44.1400  196.8610 N.3    81  ALA81      -0.1245
     64  CA         8.7290   43.1460  196.3900 C.3    81  ALA81       0.1562
     65  C          9.1680   42.8820  194.9390 C.2    81  ALA81       0.2260
     66  O          9.6210   43.8070  194.2580 O.2    81  ALA81      -0.2867
     67  CB         7.3110   43.7030  196.4100 C.3    81  ALA81       0.0290
     68  N          7.5230   41.1370  191.6230 N.3    83  LYS83      -0.1245
     69  CA         6.3980   40.5720  190.9000 C.3    83  LYS83       0.1561
     70  C          6.9000   39.9910  189.5870 C.2    83  LYS83       0.2260
     71  O          7.4860   40.7030  188.7620 O.2    83  LYS83      -0.2867
     72  CB         5.3520   41.6610  190.6530 C.3    83  LYS83       0.0271
     73  CG         3.9520   41.1570  190.3340 C.3    83  LYS83       0.0035
     74  CD         3.1280   42.4140  190.0670 C.3    83  LYS83       0.0206
     75  CE         1.6740   42.1750  189.8930 C.3    83  LYS83       0.1093
     76  NZ         0.9610   43.4690  189.8950 N.3    83  LYS83      -0.1314
     77  N          2.4590   52.0420  195.9150 N.3   107  ALA107     -0.1245
     78  CA         3.7710   51.3530  195.9450 C.3   107  ALA107      0.1562
     79  C          4.6610   51.8640  194.8420 C.2   107  ALA107      0.2260
     80  O          4.2640   51.9360  193.6780 O.2   107  ALA107     -0.2867
     81  CB         3.6310   49.8360  195.8490 C.3   107  ALA107      0.0290
     82  N          9.5410   46.6040  193.3250 N.3   123  MET123     -0.1230
     83  CA         8.6960   47.6230  193.9210 C.3   123  MET123      0.1702
     84  C          8.9270   47.7430  195.4120 C.2   123  MET123      0.2592
     85  O          9.5660   46.8910  196.0300 O.2   123  MET123     -0.2718
     86  CB         7.2230   47.2270  193.7220 C.3   123  MET123      0.0401
     87  CG         6.7320   47.3160  192.2970 C.3   123  MET123      0.0596
     88  SD         5.2980   46.2600  192.1120 S.3   123  MET123     -0.1393
     89  CE         4.8930   46.5860  190.4680 C.3   123  MET123      0.0692
     90  N          8.3660   48.7920  195.9960 N.am  124  GLU124     -0.1979
     91  CA         8.3520   49.0370  197.4260 C.3   124  GLU124      0.1602
     92  C          7.6270   47.8170  198.0880 C.2   124  GLU124      0.2287
     93  O          6.5670   47.3850  197.5990 O.2   124  GLU124     -0.2864
     94  CB         7.5940   50.3450  197.6870 C.3   124  GLU124      0.0415
     95  CG         7.8080   50.9420  199.0630 C.3   124  GLU124      0.1163
     96  CD         7.0640   52.2430  199.3230 C.2   124  GLU124      0.3649
     97  OE1        6.3030   52.6950  198.4370 O.co2 124  GLU124     -0.2457
     98  OE2        7.2700   52.8330  200.4080 O.co2 124  GLU124     -0.2457
     99  N          5.7790   45.7050  201.1920 N.3   126  GLY126     -0.1210
    100  CA         4.8930   45.7630  202.3470 C.3   126  GLY126      0.1956
    101  C          5.1720   44.5090  203.1450 C.2   126  GLY126      0.2611
    102  O          4.4730   43.4980  203.0050 O.2   126  GLY126     -0.2717
    103  N          6.2620   44.5470  203.9210 N.am  127  GLU127     -0.1979
    104  CA         6.7690   43.4010  204.6900 C.3   127  GLU127      0.1602
    105  C          5.8270   42.8980  205.7770 C.2   127  GLU127      0.2287
    106  O          5.9950   41.7770  206.2580 O.2   127  GLU127     -0.2864
    107  CB         8.1580   43.7020  205.2670 C.3   127  GLU127      0.0415
    108  CG         9.2360   43.7870  204.2050 C.3   127  GLU127      0.1163
    109  CD        10.6020   44.0890  204.7850 C.2   127  GLU127      0.3649
    110  OE1       11.0300   45.2670  204.7300 O.co2 127  GLU127     -0.2457
    111  OE2       11.2300   43.1520  205.3290 O.co2 127  GLU127     -0.2457
    112  N          2.7640   42.3560  205.1750 N.3   129  GLY129     -0.1210
    113  CA         1.7420   41.6160  204.4450 C.3   129  GLY129      0.1956
    114  C          0.5920   42.4920  203.9970 C.2   129  GLY129      0.2612
    115  O          0.7000   43.7160  204.0320 O.2   129  GLY129     -0.2717
    116  N         -0.5060   41.8690  203.5550 N.am  130  SER130     -0.1952
    117  CA        -1.6830   42.6120  203.1340 C.3   130  SER130      0.1924
    118  C         -2.7360   42.5130  204.2110 C.2   130  SER130      0.2314
    119  O         -2.5580   41.7790  205.1750 O.2   130  SER130     -0.2863
    120  CB        -2.2080   42.1250  201.7830 C.3   130  SER130      0.2116
    121  OG        -3.0680   41.0010  201.8810 O.3   130  SER130     -0.2180
    122  N         -4.0680   38.8060  204.8960 N.3   133  GLU133     -0.1245
    123  CA        -3.3920   37.9330  205.8600 C.3   133  GLU133      0.1567
    124  C         -3.7500   38.2640  207.3030 C.2   133  GLU133      0.2260
    125  O         -3.9570   37.3460  208.0950 O.2   133  GLU133     -0.2867
    126  CB        -1.8730   37.8730  205.6420 C.3   133  GLU133      0.0388
    127  CG        -1.4960   37.0760  204.4060 C.3   133  GLU133      0.1160
    128  CD        -1.8530   37.7240  203.0800 C.2   133  GLU133      0.3649
    129  OE1       -1.7040   38.9620  202.9660 O.co2 133  GLU133     -0.2457
    130  OE2       -2.3120   37.0020  202.1660 O.co2 133  GLU133     -0.2457
    131  N         -6.2830   42.0370  199.7420 N.3   173  SER173     -0.1202
    132  CA        -4.9730   41.5660  199.2730 C.3   173  SER173      0.2020
    133  C         -4.1360   42.6460  198.5280 C.2   173  SER173      0.2618
    134  O         -2.9100   42.4900  198.4190 O.2   173  SER173     -0.2717
    135  CB        -5.1060   40.2970  198.4410 C.3   173  SER173      0.2103
    136  OG        -5.8470   40.5300  197.2590 O.3   173  SER173     -0.2182
    137  N         -4.7880   43.7470  198.0790 N.am  174  ASN174     -0.1974
    138  CA        -4.1250   44.8440  197.3680 C.3   174  ASN174      0.1688
    139  C         -3.8360   46.0780  198.2510 C.2   174  ASN174      0.2292
    140  O         -3.4580   47.1260  197.7300 O.2   174  ASN174     -0.2864
    141  CB        -4.9070   45.2130  196.0940 C.3   174  ASN174      0.1181
    142  CG        -4.7170   44.1870  194.9970 C.2   174  ASN174      0.2629
    143  OD1       -3.7880   43.3710  195.0140 O.2   174  ASN174     -0.2716
    144  ND2       -5.5570   44.2270  193.9950 N.am  174  ASN174     -0.0877
    145  N         -1.3890   46.8490  201.4220 N.3   176  VAL176     -0.1245
    146  CA        -0.2620   46.2420  202.1510 C.3   176  VAL176      0.1561
    147  C          0.3120   47.1390  203.2700 C.2   176  VAL176      0.2260
    148  O          0.2960   48.3650  203.1650 O.2   176  VAL176     -0.2867
    149  CB         0.8570   45.7340  201.1930 C.3   176  VAL176      0.0252
    150  CG1        0.2980   44.7730  200.1410 C.3   176  VAL176      0.0019
    151  CG2        1.5990   46.8910  200.5250 C.3   176  VAL176      0.0019
    152  N         -1.3820   48.4650  196.0490 N.3   185  VAL185     -0.1231
    153  CA        -0.5560   47.7080  195.1050 C.3   185  VAL185      0.1692
    154  C         -1.4120   47.1720  193.9310 C.2   185  VAL185      0.2592
    155  O         -2.6440   47.2570  193.9730 O.2   185  VAL185     -0.2718
    156  CB         0.3030   46.5920  195.8110 C.3   185  VAL185      0.0266
    157  CG1        1.2540   47.1810  196.8420 C.3   185  VAL185      0.0020
    158  CG2       -0.5570   45.4860  196.4440 C.3   185  VAL185      0.0020
    159  N         -0.7400   46.6450  192.8910 N.am  186  ASP186     -0.1974
    160  CA        -1.2860   45.9960  191.6880 C.3   186  ASP186      0.1709
    161  C         -2.1170   46.9180  190.8020 C.2   186  ASP186      0.2293
    162  O         -3.3190   47.1170  191.0220 O.2   186  ASP186     -0.2864
    163  CB        -2.0710   44.7180  192.0390 C.3   186  ASP186      0.1436
    164  CG        -2.0800   43.6550  190.9660 C.2   186  ASP186      0.3671
    165  OD1       -2.0650   44.0160  189.7560 O.co2 186  ASP186     -0.2456
    166  OD2       -2.1550   42.4680  191.3210 O.co2 186  ASP186     -0.2456
@<TRIPOS>BOND
     1    71    70    2
     2    70    69    1
     3   165   164   ar
     4    75    76    1
     5    75    74    1
     6    74    73    1
     7    73    72    1
     8    89    88    1
     9    55    54    2
    10    72    69    1
    11    54    53    1
    12   161   162    2
    13   161   160    1
    14    69    68    1
    15   164   166   ar
    16   164   163    1
    17    50    49    1
    18   160   163    1
    19   160   159    1
    20    53    52    1
    21    88    87    1
    22    51    49    1
    23    49    48    2
    24    87    86    1
    25    52    43   am
    26    48    47    1
    27    47    46    1
    28   159   154   am
    29    82    83    1
    30    46    45    1
    31    45    42    1
    32    43    42    1
    33    43    44    2
    34    56    57    1
    35    80    79    2
    36    86    83    1
    37    42    41    1
    38    83    84    1
    39   154   155    2
    40   154   153    1
    41    62    60    1
    42   144   142   am
    43    66    65    2
    44    57    60    1
    45    57    58    1
    46    79    78    1
    47    60    61    1
    48    65    64    1
    49   142   143    2
    50   142   141    1
    51    37    36    2
    52   153   156    1
    53   153   152    1
    54    41    36   am
    55    58    59    2
    56    84    90   am
    57    84    85    2
    58    36    35    1
    59   156   158    1
    60   156   157    1
    61    81    78    1
    62    77    78    1
    63    90    91    1
    64   141   138    1
    65    64    67    1
    66    64    63    1
    67   136   135    1
    68    35    34    1
    69    35    38    1
    70   138   137    1
    71   138   139    1
    72    91    94    1
    73    91    92    1
    74    93    92    2
    75    94    95    1
    76   140   139    2
    77    34    40    1
    78    38    39    1
    79    39    40    1
    80   137   133   am
    81   134   133    2
    82    97    96   ar
    83   135   132    1
    84   133   132    1
    85    12    10   ar
    86    12    14   ar
    87     9    10   ar
    88     9     7   ar
    89    95    96    1
    90   132   131    1
    91    96    98   ar
    92    10     8   ar
    93    14    13   ar
    94     7     6   ar
    95   150   149    1
    96    33    31   ar
    97    33    32   ar
    98   151   149    1
    99    25    26    2
   100    25    24    1
   101    31    29   ar
   102     8     6   ar
   103     8    11   ar
   104    32    30   ar
   105    13    11   ar
   106     6     5    1
   107    99   100    1
   108   149   146    1
   109    29    28   ar
   110   145   146    1
   111     1     2    1
   112    30    28   ar
   113    24    27    1
   114    24    23    1
   115   120   121    1
   116   120   117    1
   117    28    27    1
   118   146   147    1
   119   130   128   ar
   120     5     2    1
   121   100   101    1
   122     2     3    1
   123   129   128   ar
   124   102   101    2
   125   128   127    1
   126   117   116    1
   127   117   118    1
   128   101   103   am
   129   148   147    2
   130   116   114   am
   131   103   104    1
   132     3     4    2
   133   114   115    2
   134   114   113    1
   135   108   109    1
   136   108   107    1
   137   118   119    2
   138   127   126    1
   139   113   112    1
   140   104   107    1
   141   104   105    1
   142   110   109   ar
   143   109   111   ar
   144   122   123    1
   145   126   123    1
   146   105   106    2
   147    21    20    1
   148   123   124    1
   149    22    20    1
   150    20    19    1
   151   124   125    2
   152    15    16    1
   153    19    16    1
   154    16    17    1
   155    17    18    2
