@<TRIPOS>MOLECULE
tmp/4y8cA00.pdb
 176 170 0 0 0
SMALL
GASTEIGER

@<TRIPOS>ATOM
      1  N         87.1680   58.0730   43.5730 N.3    67  PHE67      -0.1227
      2  CA        86.5050   56.8470   44.0150 C.3    67  PHE67       0.1736
      3  C         87.4130   55.6190   43.8640 C.2    67  PHE67       0.2595
      4  O         87.7290   54.9450   44.8460 O.2    67  PHE67      -0.2718
      5  CB        85.2080   56.6480   43.2290 C.3    67  PHE67       0.0547
      6  CG        84.3560   55.5250   43.7370 C.ar   67  PHE67      -0.0202
      7  CD1       83.4100   55.7460   44.7260 C.ar   67  PHE67      -0.0042
      8  CD2       84.4890   54.2450   43.2190 C.ar   67  PHE67      -0.0042
      9  CE1       82.6160   54.7100   45.1930 C.ar   67  PHE67      -0.0003
     10  CE2       83.7030   53.2010   43.6790 C.ar   67  PHE67      -0.0003
     11  CZ        82.7620   53.4310   44.6650 C.ar   67  PHE67      -0.0000
     12  N         87.8360   55.3470   42.6300 N.am   68  HIS68      -0.1975
     13  CA        88.6190   54.1550   42.3210 C.3    68  HIS68       0.1656
     14  C         90.0840   54.3130   42.7080 C.2    68  HIS68       0.2291
     15  O         90.9580   54.4870   41.8650 O.2    68  HIS68      -0.2864
     16  CB        88.4620   53.7810   40.8440 C.3    68  HIS68       0.0771
     17  CG        87.1270   53.1880   40.5290 C.ar   68  HIS68       0.0820
     18  ND1       86.1430   53.8760   39.8520 N.ar   68  HIS68      -0.2267
     19  CD2       86.5960   51.9840   40.8370 C.ar   68  HIS68       0.1154
     20  CE1       85.0710   53.1140   39.7370 C.ar   68  HIS68       0.1986
     21  NE2       85.3200   51.9610   40.3280 N.ar   68  HIS68      -0.2212
     22  N         89.4510   52.3790   48.1340 N.3    72  HIS72      -0.1241
     23  CA        88.3700   51.5180   47.6280 C.3    72  HIS72       0.1621
     24  C         88.8460   50.0760   47.6590 C.2    72  HIS72       0.2264
     25  O         88.1390   49.1680   48.0850 O.2    72  HIS72      -0.2867
     26  CB        87.9770   51.9000   46.1980 C.3    72  HIS72       0.0745
     27  CG        87.1540   50.8650   45.4930 C.ar   72  HIS72       0.0817
     28  ND1       85.8250   50.6560   45.7740 N.ar   72  HIS72      -0.2268
     29  CD2       87.4710   49.9870   44.5100 C.ar   72  HIS72       0.1154
     30  CE1       85.3560   49.6890   45.0070 C.ar   72  HIS72       0.1986
     31  NE2       86.3300   49.2720   44.2170 N.ar   72  HIS72      -0.2212
     32  N         84.0000   41.3620   38.0020 N.3   179  THR179     -0.1218
     33  CA        83.6130   42.6470   38.5920 C.3   179  THR179      0.1862
     34  C         83.0280   43.6410   37.5770 C.2   179  THR179      0.2287
     35  O         82.3870   44.6040   37.9740 O.2   179  THR179     -0.2866
     36  CB        84.7770   43.3090   39.3630 C.3   179  THR179      0.1770
     37  OG1       85.9150   43.4810   38.5100 O.3   179  THR179     -0.2211
     38  CG2       85.1650   42.4570   40.5630 C.3   179  THR179      0.0375
     39  N         80.4820   45.2920   35.6980 N.3   181  MET181     -0.1245
     40  CA        79.0280   45.3690   35.9460 C.3   181  MET181      0.1570
     41  C         78.1660   45.1420   34.7140 C.2   181  MET181      0.2261
     42  O         76.9950   44.8100   34.8460 O.2   181  MET181     -0.2867
     43  CB        78.6360   46.7040   36.5820 C.3   181  MET181      0.0387
     44  CG        79.0220   46.8220   38.0500 C.3   181  MET181      0.0595
     45  SD        78.2010   45.6410   39.1430 S.3   181  MET181     -0.1393
     46  CE        76.4900   46.1380   38.9330 C.3   181  MET181      0.0692
     47  N         82.8460   44.4380   46.1880 N.3   218  ASP218     -0.1225
     48  CA        83.1810   45.5450   45.2950 C.3   218  ASP218      0.1805
     49  C         82.2270   46.7160   45.4850 C.2   218  ASP218      0.2597
     50  O         82.6590   47.8600   45.5990 O.2   218  ASP218     -0.2718
     51  CB        83.1060   45.0430   43.8450 C.3   218  ASP218      0.1424
     52  CG        83.6550   46.0280   42.8280 C.2   218  ASP218      0.3668
     53  OD1       84.4740   46.9190   43.1580 O.co2 218  ASP218     -0.2456
     54  OD2       83.2690   45.8700   41.6550 O.co2 218  ASP218     -0.2456
     55  N         80.9300   46.4170   45.5330 N.am  219  ILE219     -0.1980
     56  CA        79.8800   47.4480   45.5450 C.3   219  ILE219      0.1595
     57  C         79.2100   47.6010   46.9270 C.2   219  ILE219      0.2287
     58  O         78.1040   48.1340   47.0430 O.2   219  ILE219     -0.2864
     59  CB        78.8180   47.1590   44.4490 C.3   219  ILE219      0.0276
     60  CG1       77.9980   45.8980   44.7610 C.3   219  ILE219      0.0022
     61  CG2       79.4890   46.9950   43.0930 C.3   219  ILE219      0.0022
     62  CD1       76.8080   45.6980   43.8500 C.3   219  ILE219      0.0001
     63  N         79.6800   49.4300   49.6150 N.3   221  ASN221     -0.1225
     64  CA        79.7850   50.6060   50.4760 C.3   221  ASN221      0.1785
     65  C         78.5340   50.8370   51.3380 C.2   221  ASN221      0.2597
     66  O         78.6460   51.0900   52.5360 O.2   221  ASN221     -0.2718
     67  CB        80.1280   51.8560   49.6680 C.3   221  ASN221      0.1169
     68  CG        81.5840   51.8860   49.2070 C.2   221  ASN221      0.2627
     69  OD1       82.5010   51.4010   49.8850 O.2   221  ASN221     -0.2716
     70  ND2       81.8010   52.4900   48.0520 N.am  221  ASN221     -0.0877
     71  N         77.3470   50.7050   50.7580 N.am  222  GLU222     -0.1979
     72  CA        76.1250   51.0610   51.4870 C.3   222  GLU222      0.1602
     73  C         75.7530   50.1160   52.6400 C.2   222  GLU222      0.2287
     74  O         74.8940   50.4500   53.4710 O.2   222  GLU222     -0.2864
     75  CB        74.9470   51.2290   50.5230 C.3   222  GLU222      0.0415
     76  CG        75.0410   52.4730   49.6400 C.3   222  GLU222      0.1163
     77  CD        75.0610   53.7860   50.4190 C.2   222  GLU222      0.3649
     78  OE1       75.8870   54.6700   50.0640 O.co2 222  GLU222     -0.2457
     79  OE2       74.2650   53.9280   51.3790 O.co2 222  GLU222     -0.2457
     80  N         79.7050   58.2190   48.5640 N.3   233  VAL233     -0.1245
     81  CA        78.8180   58.7360   47.5320 C.3   233  VAL233      0.1561
     82  C         79.3440   60.0370   46.9110 C.2   233  VAL233      0.2260
     83  O         79.2190   60.2290   45.7070 O.2   233  VAL233     -0.2867
     84  CB        77.3920   58.9340   48.0580 C.3   233  VAL233      0.0252
     85  CG1       76.4910   59.4730   46.9550 C.3   233  VAL233      0.0019
     86  CG2       76.8460   57.6190   48.6020 C.3   233  VAL233      0.0019
     87  N         82.0320   59.0110   44.6680 N.3   236  LEU236     -0.1231
     88  CA        81.4680   58.3840   43.4910 C.3   236  LEU236      0.1693
     89  C         81.0650   59.4370   42.4650 C.2   236  LEU236      0.2591
     90  O         81.5000   59.3910   41.3130 O.2   236  LEU236     -0.2718
     91  CB        80.2630   57.5350   43.8860 C.3   236  LEU236      0.0284
     92  CG        79.5200   56.8200   42.7620 C.3   236  LEU236      0.0019
     93  CD1       80.4370   55.8180   42.0800 C.3   236  LEU236      0.0001
     94  CD2       78.2680   56.1510   43.3070 C.3   236  LEU236      0.0001
     95  N         80.2470   60.3930   42.8860 N.am  237  LEU237     -0.1980
     96  CA        79.7670   61.4230   41.9670 C.3   237  LEU237      0.1596
     97  C         80.9000   62.3090   41.4390 C.2   237  LEU237      0.2287
     98  O         80.9240   62.6400   40.2550 O.2   237  LEU237     -0.2864
     99  CB        78.6990   62.2960   42.6150 C.3   237  LEU237      0.0297
    100  CG        77.4750   61.6410   43.2660 C.3   237  LEU237      0.0022
    101  CD1       76.3710   62.6870   43.3830 C.3   237  LEU237      0.0001
    102  CD2       76.9540   60.4030   42.5430 C.3   237  LEU237      0.0001
    103  N         82.4530   60.2100   38.6640 N.3   240  TYR240     -0.1227
    104  CA        81.5720   59.9630   37.5360 C.3   240  TYR240      0.1736
    105  C         81.1880   61.2650   36.8150 C.2   240  TYR240      0.2595
    106  O         81.0470   61.2650   35.5960 O.2   240  TYR240     -0.2718
    107  CB        80.3470   59.1360   37.9680 C.3   240  TYR240      0.0548
    108  CG        80.6050   57.6380   37.8840 C.ar  240  TYR240     -0.0200
    109  CD1       79.8700   56.8310   37.0140 C.ar  240  TYR240     -0.0009
    110  CD2       81.5960   57.0340   38.6540 C.ar  240  TYR240     -0.0009
    111  CE1       80.1070   55.4700   36.9220 C.ar  240  TYR240      0.0417
    112  CE2       81.8390   55.6760   38.5640 C.ar  240  TYR240      0.0417
    113  CZ        81.0940   54.9000   37.6960 C.ar  240  TYR240      0.1957
    114  OH        81.3310   53.5510   37.5950 O.3   240  TYR240     -0.2866
    115  N         81.0500   62.3710   37.5490 N.am  241  PHE241     -0.1976
    116  CA        80.7590   63.6720   36.9260 C.3   241  PHE241      0.1639
    117  C         81.9400   64.1810   36.1060 C.2   241  PHE241      0.2290
    118  O         81.7530   64.7800   35.0400 O.2   241  PHE241     -0.2864
    119  CB        80.3740   64.7390   37.9660 C.3   241  PHE241      0.0560
    120  CG        79.0340   64.5160   38.6350 C.ar  241  PHE241     -0.0200
    121  CD1       78.0830   63.6450   38.1080 C.ar  241  PHE241     -0.0042
    122  CD2       78.7170   65.2250   39.7970 C.ar  241  PHE241     -0.0042
    123  CE1       76.8630   63.4710   38.7380 C.ar  241  PHE241     -0.0003
    124  CE2       77.4910   65.0580   40.4260 C.ar  241  PHE241     -0.0003
    125  CZ        76.5620   64.1830   39.8940 C.ar  241  PHE241     -0.0000
    126  N         72.0310   58.6810   34.0160 N.3   257  PHE257     -0.1227
    127  CA        72.2700   58.2400   35.4050 C.3   257  PHE257      0.1736
    128  C         73.5220   58.8540   36.0540 C.2   257  PHE257      0.2595
    129  O         73.6430   58.8280   37.2810 O.2   257  PHE257     -0.2718
    130  CB        72.2980   56.6930   35.5190 C.3   257  PHE257      0.0547
    131  CG        73.6460   56.0670   35.2130 C.ar  257  PHE257     -0.0202
    132  CD1       74.6500   56.0190   36.1800 C.ar  257  PHE257     -0.0042
    133  CD2       73.9050   55.5100   33.9690 C.ar  257  PHE257     -0.0042
    134  CE1       75.8860   55.4490   35.9070 C.ar  257  PHE257     -0.0003
    135  CE2       75.1380   54.9390   33.6900 C.ar  257  PHE257     -0.0003
    136  CZ        76.1330   54.9100   34.6590 C.ar  257  PHE257     -0.0000
    137  N         74.4340   59.4060   35.2480 N.am  258  MET258     -0.1979
    138  CA        75.6610   60.0360   35.7630 C.3   258  MET258      0.1605
    139  C         75.8830   61.4440   35.2030 C.2   258  MET258      0.2287
    140  O         77.0180   61.9290   35.1420 O.2   258  MET258     -0.2864
    141  CB        76.8760   59.1470   35.4710 C.3   258  MET258      0.0413
    142  CG        77.0220   58.7320   34.0130 C.3   258  MET258      0.0598
    143  SD        78.4410   57.6590   33.7300 S.3   258  MET258     -0.1393
    144  CE        79.7800   58.8450   33.7080 C.3   258  MET258      0.0692
    145  N         71.4680   64.4940   38.5890 N.3   263  VAL263     -0.1245
    146  CA        71.7190   63.4610   39.5910 C.3   263  VAL263      0.1561
    147  C         71.9280   64.0710   40.9780 C.2   263  VAL263      0.2260
    148  O         72.7790   64.9520   41.1690 O.2   263  VAL263     -0.2867
    149  CB        72.9380   62.5940   39.1750 C.3   263  VAL263      0.0252
    150  CG1       73.3850   61.6710   40.2970 C.3   263  VAL263      0.0019
    151  CG2       72.6060   61.7780   37.9320 C.3   263  VAL263      0.0019
    152  N         71.0130   58.6590   42.8060 N.3   268  ALA268     -0.1231
    153  CA        72.1530   57.7710   42.5540 C.3   268  ALA268      0.1694
    154  C         72.0360   56.4160   43.2730 C.2   268  ALA268      0.2591
    155  O         72.3740   55.3870   42.6960 O.2   268  ALA268     -0.2718
    156  CB        73.4590   58.4610   42.9470 C.3   268  ALA268      0.0304
    157  N         71.5400   56.4190   44.5120 N.am  269  GLN269     -0.1979
    158  CA        71.5460   55.2240   45.3700 C.3   269  GLN269      0.1601
    159  C         70.2580   54.4240   45.4410 C.2   269  GLN269      0.2287
    160  O         70.3050   53.2070   45.5840 O.2   269  GLN269     -0.2864
    161  CB        71.9420   55.6160   46.7900 C.3   269  GLN269      0.0394
    162  CG        73.3110   56.2670   46.8840 C.3   269  GLN269      0.0908
    163  CD        74.3990   55.4340   46.2340 C.2   269  GLN269      0.2608
    164  OE1       74.4740   55.3470   45.0070 O.2   269  GLN269     -0.2717
    165  NE2       75.2390   54.7990   47.0520 N.am  269  GLN269     -0.0878
    166  N         69.9770   51.7040   42.7710 N.3   272  PHE272     -0.1241
    167  CA        71.1020   50.8090   42.9160 C.3   272  PHE272      0.1605
    168  C         70.9040   49.9110   44.1340 C.2   272  PHE272      0.2264
    169  O         71.1180   48.7090   44.0660 O.2   272  PHE272     -0.2867
    170  CB        72.3700   51.6420   43.0530 C.3   272  PHE272      0.0534
    171  CG        73.6400   50.8500   42.9910 C.ar  272  PHE272     -0.0203
    172  CD1       74.0410   50.2620   41.8040 C.ar  272  PHE272     -0.0042
    173  CD2       74.4550   50.7300   44.1130 C.ar  272  PHE272     -0.0042
    174  CE1       75.2200   49.5500   41.7390 C.ar  272  PHE272     -0.0003
    175  CE2       75.6330   50.0200   44.0530 C.ar  272  PHE272     -0.0003
    176  CZ        76.0160   49.4310   42.8650 C.ar  272  PHE272     -0.0000
@<TRIPOS>BOND
     1   135   133   ar
     2   135   136   ar
     3   144   143    1
     4   143   142    1
     5   133   131   ar
     6   142   141    1
     7   126   127    1
     8   136   134   ar
     9    41    42    2
    10    41    40    1
    11   118   117    2
    12   140   139    2
    13   139   138    1
    14   131   130    1
    15   131   132   ar
    16   137   138    1
    17   137   128   am
    18   127   130    1
    19   127   128    1
    20   141   138    1
    21   106   105    2
    22    39    40    1
    23   134   132   ar
    24    40    43    1
    25   128   129    2
    26   117   116    1
    27    43    44    1
    28   105   104    1
    29   105   115   am
    30   111   109   ar
    31   111   113   ar
    32   116   115    1
    33   116   119    1
    34   109   108   ar
    35   104   107    1
    36   104   103    1
    37    34    35    2
    38    34    33    1
    39   114   113    1
    40   113   112   ar
    41   108   107    1
    42   108   110   ar
    43   151   149    1
    44   119   120    1
    45    32    33    1
    46    44    45    1
    47   121   120   ar
    48   121   123   ar
    49    37    36    1
    50   112   110   ar
    51   145   146    1
    52    33    36    1
    53   120   122   ar
    54   123   125   ar
    55    46    45    1
    56   149   146    1
    57   149   150    1
    58    36    38    1
    59   146   147    1
    60    20    18   ar
    61    20    21   ar
    62   122   124   ar
    63    18    17   ar
    64   125   124   ar
    65    98    97    2
    66    21    19   ar
    67    17    19   ar
    68    17    16    1
    69    16    13    1
    70   147   148    2
    71    90    89    2
    72    97    96    1
    73    54    52   ar
    74   174   172   ar
    75   174   176   ar
    76   172   171   ar
    77    15    14    2
    78    96    99    1
    79    96    95    1
    80    93    92    1
    81    13    12    1
    82    13    14    1
    83    89    95   am
    84    89    88    1
    85   102   100    1
    86   153   152    1
    87   153   156    1
    88   153   154    1
    89    99   100    1
    90    12     3   am
    91   155   154    2
    92    92    94    1
    93    92    91    1
    94   166   167    1
    95    52    53   ar
    96    52    51    1
    97   176   175   ar
    98   167   170    1
    99   167   168    1
   100   171   170    1
   101   171   173   ar
   102    61    59    1
   103     8    10   ar
   104     8     6   ar
   105     5     6    1
   106     5     2    1
   107   100   101    1
   108   154   157   am
   109    88    91    1
   110    88    87    1
   111     1     2    1
   112    10    11   ar
   113     6     7   ar
   114    51    48    1
   115    62    60    1
   116     3     2    1
   117     3     4    2
   118   175   173   ar
   119   169   168    2
   120    31    29   ar
   121    31    30   ar
   122    59    60    1
   123    59    56    1
   124    29    27   ar
   125   157   158    1
   126    11     9   ar
   127     7     9   ar
   128   164   163    2
   129    30    28   ar
   130    48    49    1
   131    48    47    1
   132   158   159    1
   133   158   161    1
   134   159   160    2
   135    49    55   am
   136    49    50    2
   137    27    28   ar
   138    27    26    1
   139    55    56    1
   140    56    57    1
   141    83    82    2
   142    26    23    1
   143   163   162    1
   144   163   165   am
   145   161   162    1
   146    82    81    1
   147    57    58    2
   148    85    84    1
   149    81    84    1
   150    81    80    1
   151    23    24    1
   152    23    22    1
   153    24    25    2
   154    70    68   am
   155    84    86    1
   156    68    67    1
   157    68    69    2
   158    63    64    1
   159    76    77    1
   160    76    75    1
   161    67    64    1
   162    78    77   ar
   163    77    79   ar
   164    64    65    1
   165    75    72    1
   166    71    65   am
   167    71    72    1
   168    65    66    2
   169    72    73    1
   170    73    74    2
