@<TRIPOS>MOLECULE
tmp/4y8dC00.pdb
 151 139 0 0 0
SMALL
GASTEIGER

@<TRIPOS>ATOM
      1  N         25.9320   98.3850  -90.2500 N.3    18  ARG18      -0.1245
      2  CA        24.5670   97.9380  -90.5650 C.3    18  ARG18       0.1563
      3  C         24.3100   96.4710  -90.1760 C.2    18  ARG18       0.2260
      4  O         25.2360   95.7420  -89.8340 O.2    18  ARG18      -0.2867
      5  CB        24.2740   98.1310  -92.0610 C.3    18  ARG18       0.0307
      6  CG        25.3960   97.6570  -92.9810 C.3    18  ARG18       0.0489
      7  CD        24.8680   97.0870  -94.2900 C.3    18  ARG18       0.2205
      8  NE        25.9580   96.6540  -95.1680 N.pl3  18  ARG18      -0.0865
      9  CZ        25.8020   95.9280  -96.2770 C.cat  18  ARG18       0.5346
     10  NH1       24.5940   95.5150  -96.6560 N.pl3  18  ARG18       0.1354
     11  NH2       26.8680   95.6020  -97.0060 N.pl3  18  ARG18       0.1354
     12  N         23.1900   92.6550  -91.1400 N.3    20  LEU20      -0.1231
     13  CA        23.2130   91.7140  -92.2780 C.3    20  LEU20       0.1693
     14  C         22.2150   90.5570  -92.0840 C.2    20  LEU20       0.2591
     15  O         21.5830   90.1250  -93.0470 O.2    20  LEU20      -0.2718
     16  CB        24.6270   91.1720  -92.4880 C.3    20  LEU20       0.0284
     17  CG        25.6880   92.2410  -92.7420 C.3    20  LEU20       0.0019
     18  CD1       27.0990   91.6910  -92.6250 C.3    20  LEU20       0.0001
     19  CD2       25.4770   92.8690  -94.1050 C.3    20  LEU20       0.0001
     20  N         22.0910   90.0510  -90.8500 N.am   21  ALA21      -0.1980
     21  CA        21.0900   89.0220  -90.5010 C.3    21  ALA21       0.1597
     22  C         20.6850   89.1390  -89.0270 C.2    21  ALA21       0.2287
     23  O         21.5300   89.4390  -88.1800 O.2    21  ALA21      -0.2864
     24  CB        21.6410   87.6310  -90.7840 C.3    21  ALA21       0.0319
     25  N         24.0910   89.5170  -86.9320 N.3    28  VAL28      -0.1245
     26  CA        25.3130   89.7230  -87.7010 C.3    28  VAL28       0.1561
     27  C         25.3120   91.1280  -88.2990 C.2    28  VAL28       0.2260
     28  O         24.3070   91.5680  -88.8340 O.2    28  VAL28      -0.2867
     29  CB        25.4580   88.6700  -88.8240 C.3    28  VAL28       0.0252
     30  CG1       26.8300   88.7580  -89.4750 C.3    28  VAL28       0.0019
     31  CG2       25.2070   87.2780  -88.2770 C.3    28  VAL28       0.0019
     32  N         27.8410   94.3240  -90.4350 N.3    30  GLU30      -0.1245
     33  CA        29.0480   94.7920  -91.1150 C.3    30  GLU30       0.1567
     34  C         29.7960   95.7370  -90.1850 C.2    30  GLU30       0.2260
     35  O         29.1770   96.5760  -89.5430 O.2    30  GLU30      -0.2867
     36  CB        28.6820   95.5270  -92.4110 C.3    30  GLU30       0.0388
     37  CG        29.8790   95.9380  -93.2690 C.3    30  GLU30       0.1160
     38  CD        29.4770   96.5870  -94.5820 C.2    30  GLU30       0.3649
     39  OE1       29.9670   96.1520  -95.6350 O.co2  30  GLU30      -0.2457
     40  OE2       28.6680   97.5340  -94.5660 O.co2  30  GLU30      -0.2457
     41  N         33.0210   91.0040  -90.8380 N.3    41  ALA41      -0.1245
     42  CA        31.7450   90.5450  -90.3170 C.3    41  ALA41       0.1562
     43  C         31.8510   90.4300  -88.7990 C.2    41  ALA41       0.2260
     44  O         32.9020   90.0750  -88.2520 O.2    41  ALA41      -0.2867
     45  CB        31.3500   89.2120  -90.9330 C.3    41  ALA41       0.0290
     46  N         29.6120   88.8750  -85.5330 N.3    43  LYS43      -0.1245
     47  CA        28.4590   88.1700  -84.9720 C.3    43  LYS43       0.1561
     48  C         28.3830   88.4230  -83.4790 C.2    43  LYS43       0.2260
     49  O         29.3820   88.3540  -82.7760 O.2    43  LYS43      -0.2867
     50  CB        28.5420   86.6700  -85.2330 C.3    43  LYS43       0.0271
     51  CG        27.3130   85.8850  -84.7800 C.3    43  LYS43       0.0035
     52  CD        27.2730   84.5440  -85.4700 C.3    43  LYS43       0.0206
     53  CE        26.1470   83.6720  -84.9560 C.3    43  LYS43       0.1093
     54  NZ        26.3370   82.2960  -85.5150 N.3    43  LYS43      -0.1314
     55  N         35.0450   77.6290  -84.8610 N.3    63  MET63      -0.1245
     56  CA        35.4300   78.5980  -85.8760 C.3    63  MET63       0.1570
     57  C         36.9520   78.7560  -85.9200 C.2    63  MET63       0.2261
     58  O         37.5430   78.7800  -86.9870 O.2    63  MET63      -0.2867
     59  CB        34.7480   79.9270  -85.6070 C.3    63  MET63       0.0387
     60  CG        35.0530   81.0370  -86.6180 C.3    63  MET63       0.0595
     61  SD        34.2930   80.7830  -88.2480 S.3    63  MET63      -0.1393
     62  CE        32.6210   81.3080  -87.8810 C.3    63  MET63       0.0692
     63  N         34.9230   80.3580  -93.6550 N.3    73  VAL73      -0.1245
     64  CA        35.1400   81.7680  -93.2670 C.3    73  VAL73       0.1561
     65  C         36.3580   81.8890  -92.3310 C.2    73  VAL73       0.2260
     66  O         36.5020   81.1110  -91.3990 O.2    73  VAL73      -0.2867
     67  CB        33.8960   82.4260  -92.5580 C.3    73  VAL73       0.0252
     68  CG1       32.6880   82.4690  -93.4750 C.3    73  VAL73       0.0019
     69  CG2       33.5340   81.6920  -91.2830 C.3    73  VAL73       0.0019
     70  N         32.1800   87.8410  -82.2760 N.3    95  LEU95      -0.1245
     71  CA        33.0080   86.9940  -83.1400 C.3    95  LEU95       0.1561
     72  C         33.3000   87.7900  -84.3930 C.2    95  LEU95       0.2260
     73  O         32.3790   88.2650  -85.0560 O.2    95  LEU95      -0.2867
     74  CB        32.2680   85.6890  -83.4780 C.3    95  LEU95       0.0270
     75  CG        32.8960   84.7770  -84.5350 C.3    95  LEU95       0.0019
     76  CD1       34.2140   84.1800  -84.0650 C.3    95  LEU95       0.0001
     77  CD2       31.9170   83.6720  -84.9210 C.3    95  LEU95       0.0001
     78  N         35.0000   87.9790  -88.1220 N.3    97  THR97      -0.1203
     79  CA        35.4960   87.2080  -89.2470 C.3    97  THR97       0.1994
     80  C         35.7430   88.0890  -90.4470 C.2    97  THR97       0.2618
     81  O         35.3790   89.2680  -90.4500 O.2    97  THR97      -0.2717
     82  CB        34.4930   86.1050  -89.6440 C.3    97  THR97       0.1784
     83  OG1       33.3000   86.6940  -90.1620 O.3    97  THR97      -0.2211
     84  CG2       34.1480   85.2390  -88.4310 C.3    97  THR97       0.0376
     85  N         36.3590   87.5080  -91.4780 N.am   98  GLU98      -0.1965
     86  CA        36.4170   88.1550  -92.7760 C.3    98  GLU98       0.1733
     87  C         34.9780   88.3700  -93.2190 C.2    98  GLU98       0.2616
     88  O         34.0810   87.6220  -92.8220 O.2    98  GLU98      -0.2715
     89  CB        37.1680   87.2900  -93.8010 C.3    98  GLU98       0.0429
     90  CG        36.4660   85.9650  -94.1360 C.3    98  GLU98       0.1163
     91  CD        37.0470   85.2710  -95.3700 C.2    98  GLU98       0.3649
     92  OE1       37.5860   85.9820  -96.2360 O.co2  98  GLU98      -0.2457
     93  OE2       36.9580   84.0200  -95.4900 O.co2  98  GLU98      -0.2457
     94  N         34.7730   89.4190  -94.0140 N.am   99  LEU99      -0.1963
     95  CA        33.4730   89.7490  -94.5800 C.3    99  LEU99       0.1728
     96  C         33.4010   89.1780  -95.9860 C.2    99  LEU99       0.2616
     97  O         34.1860   89.5560  -96.8590 O.2    99  LEU99      -0.2715
     98  CB        33.2910   91.2500  -94.6490 C.3    99  LEU99       0.0311
     99  CG        31.9510   91.7770  -95.1580 C.3    99  LEU99       0.0022
    100  CD1       30.8070   91.3390  -94.2490 C.3    99  LEU99       0.0001
    101  CD2       31.9950   93.3050  -95.2670 C.3    99  LEU99       0.0001
    102  N         32.4720   88.2540  -96.1920 N.am  100  CYS100     -0.1954
    103  CA        32.2030   87.7410  -97.5170 C.3   100  CYS100      0.1843
    104  C         31.3170   88.7090  -98.2570 C.2   100  CYS100      0.2625
    105  O         30.7960   89.6720  -97.6800 O.2   100  CYS100     -0.2714
    106  CB        31.5350   86.3840  -97.4230 C.3   100  CYS100      0.0997
    107  SG        32.5390   85.2270  -96.4700 S.3   100  CYS100     -0.0797
    108  N         31.1850   88.4710  -99.5530 N.am  101  LYS101     -0.1963
    109  CA        30.4310   89.3470 -100.4220 C.3   101  LYS101      0.1728
    110  C         28.9280   89.2530 -100.1590 C.2   101  LYS101      0.2617
    111  O         28.1880   90.2010 -100.4080 O.2   101  LYS101     -0.2715
    112  CB        30.7620   89.0110 -101.8710 C.3   101  LYS101      0.0311
    113  CG        30.1510   89.9260 -102.9090 C.3   101  LYS101      0.0038
    114  CD        30.4540   89.4150 -104.3120 C.3   101  LYS101      0.0206
    115  CE        31.8720   89.7700 -104.7390 C.3   101  LYS101      0.1093
    116  NZ        32.0080   91.2150 -105.0830 N.3   101  LYS101     -0.1314
    117  N         28.4770   88.1190  -99.6460 N.am  102  GLY102     -0.1940
    118  CA        27.0620   87.9270  -99.3970 C.3   102  GLY102      0.2014
    119  C         26.6440   86.4700  -99.4310 C.2   102  GLY102      0.2638
    120  O         27.4800   85.5570  -99.4590 O.2   102  GLY102     -0.2714
    121  N         25.3390   86.2580  -99.4640 N.am  103  GLN103     -0.1977
    122  CA        24.7830   84.9370  -99.3420 C.3   103  GLN103      0.1601
    123  C         24.6460   84.2440 -100.7150 C.2   103  GLN103      0.2287
    124  O         24.1630   84.8440 -101.6660 O.2   103  GLN103     -0.2864
    125  CB        23.4330   85.0670  -98.6700 C.3   103  GLN103      0.0394
    126  CG        22.9280   83.7790  -98.0880 C.3   103  GLN103      0.0908
    127  CD        21.8980   84.0080  -97.0010 C.2   103  GLN103      0.2608
    128  OE1       22.0690   84.8700  -96.1390 O.2   103  GLN103     -0.2717
    129  NE2       20.8280   83.2140  -97.0220 N.am  103  GLN103     -0.0878
    130  N         28.1310   81.0710  -98.0980 N.3   154  LEU154     -0.1245
    131  CA        28.4350   82.4150  -98.5040 C.3   154  LEU154      0.1561
    132  C         29.3180   82.4060  -99.7320 C.2   154  LEU154      0.2260
    133  O         30.0250   81.4350  -99.9710 O.2   154  LEU154     -0.2867
    134  CB        29.1580   83.1320  -97.3620 C.3   154  LEU154      0.0270
    135  CG        28.4080   83.1800  -96.0390 C.3   154  LEU154      0.0019
    136  CD1       29.3160   83.7160  -94.9330 C.3   154  LEU154      0.0001
    137  CD2       27.1940   84.0740  -96.2150 C.3   154  LEU154      0.0001
    138  N         29.9740   78.6070  -93.1230 N.3   164  CYS164     -0.1221
    139  CA        29.9470   79.1650  -91.7770 C.3   164  CYS164      0.1808
    140  C         28.8450   78.4790  -90.9990 C.2   164  CYS164      0.2601
    141  O         28.3920   77.4020  -91.4020 O.2   164  CYS164     -0.2717
    142  CB        29.7070   80.6670  -91.8540 C.3   164  CYS164      0.0970
    143  SG        28.0480   81.0470  -92.4350 S.3   164  CYS164     -0.0800
    144  N         28.4550   79.0580  -89.8510 N.am  165  ASP165     -0.1973
    145  CA        27.3370   78.5630  -89.0440 C.3   165  ASP165      0.1709
    146  C         27.7190   77.2800  -88.2930 C.2   165  ASP165      0.2293
    147  O         27.1900   76.1900  -88.5710 O.2   165  ASP165     -0.2864
    148  CB        26.0870   78.3650  -89.9210 C.3   165  ASP165      0.1436
    149  CG        24.7940   78.3470  -89.1250 C.2   165  ASP165      0.3671
    150  OD1       24.6120   77.4510  -88.2690 O.co2 165  ASP165     -0.2456
    151  OD2       23.9230   79.2100  -89.3840 O.co2 165  ASP165     -0.2456
@<TRIPOS>BOND
     1   116   115    1
     2   115   114    1
     3   114   113    1
     4   113   112    1
     5   112   109    1
     6   124   123    2
     7   123   122    1
     8   109   110    1
     9   109   108    1
    10   111   110    2
    11   110   117   am
    12   133   132    2
    13   132   131    1
    14   117   118    1
    15   108   104   am
    16   121   119   am
    17   121   122    1
    18   120   119    2
    19   119   118    1
    20   122   125    1
    21   125   126    1
    22   131   130    1
    23   131   134    1
    24   104   105    2
    25   104   103    1
    26   126   127    1
    27   103   106    1
    28   103   102    1
    29   106   107    1
    30   134   135    1
    31   129   127   am
    32    11     9    1
    33   127   128    2
    34    97    96    2
    35    10     9    1
    36     9     8    2
    37    92    91   ar
    38   137   135    1
    39   102    96   am
    40   135   136    1
    41    96    95    1
    42    39    38   ar
    43    93    91   ar
    44    91    90    1
    45   101    99    1
    46     8     7    1
    47    99    98    1
    48    99   100    1
    49    98    95    1
    50    38    40   ar
    51    38    37    1
    52    95    94    1
    53     7     6    1
    54    90    89    1
    55    19    17    1
    56    94    87   am
    57    89    86    1
    58    63    64    1
    59    68    67    1
    60    37    36    1
    61    64    67    1
    62    64    65    1
    63    87    88    2
    64    87    86    1
    65   138   139    1
    66    15    14    2
    67     6     5    1
    68    86    85    1
    69    17    18    1
    70    17    16    1
    71    67    69    1
    72    16    13    1
    73   143   142    1
    74    36    33    1
    75    65    66    2
    76    13    14    1
    77    13    12    1
    78    14    20   am
    79     5     2    1
    80   142   139    1
    81   139   140    1
    82    85    80   am
    83   141   140    2
    84    33    32    1
    85    33    34    1
    86   140   144   am
    87    45    42    1
    88    20    21    1
    89    41    42    1
    90    24    21    1
    91     2     1    1
    92     2     3    1
    93    21    22    1
    94    81    80    2
    95    80    79    1
    96    42    43    1
    97    34    35    2
    98     3     4    2
    99    83    82    1
   100   148   149    1
   101   148   145    1
   102   144   145    1
   103    82    79    1
   104    82    84    1
   105    30    29    1
   106   151   149   ar
   107    79    78    1
   108   149   150   ar
   109   145   146    1
   110    22    23    2
   111    28    27    2
   112    29    31    1
   113    29    26    1
   114    43    44    2
   115   147   146    2
   116    27    26    1
   117    61    62    1
   118    61    60    1
   119    26    25    1
   120    58    57    2
   121    60    59    1
   122    57    56    1
   123    56    59    1
   124    56    55    1
   125    46    47    1
   126    54    53    1
   127    52    53    1
   128    52    51    1
   129    50    47    1
   130    50    51    1
   131    73    72    2
   132    47    48    1
   133    77    75    1
   134    75    76    1
   135    75    74    1
   136    72    71    1
   137    48    49    2
   138    74    71    1
   139    71    70    1
