@<TRIPOS>MOLECULE
tmp/4y8gY00.pdb
 121 112 0 0 0
SMALL
GASTEIGER

@<TRIPOS>ATOM
      1  N         56.6430 -153.0040    8.5860 N.3     1  THR1       -0.1218
      2  CA        56.9530 -153.7250    7.3240 C.3     1  THR1        0.1862
      3  C         56.4520 -153.1840    6.0050 C.2     1  THR1        0.2287
      4  O         55.3440 -152.7320    5.9100 O.2     1  THR1       -0.2866
      5  CB        56.3500 -155.0910    7.4280 C.3     1  THR1        0.1770
      6  OG1       56.9880 -155.6410    8.4780 O.3     1  THR1       -0.2211
      7  CG2       56.6280 -156.0160    6.2590 C.3     1  THR1        0.0375
      8  N         63.1690 -154.3000    8.3680 N.3    19  ARG19      -0.1231
      9  CA        63.0470 -153.6510    9.6770 C.3    19  ARG19       0.1694
     10  C         62.0380 -154.3440   10.5920 C.2    19  ARG19       0.2592
     11  O         60.9800 -154.7850   10.1460 O.2    19  ARG19      -0.2718
     12  CB        62.6670 -152.1730    9.5290 C.3    19  ARG19       0.0321
     13  CG        62.5080 -151.4530   10.8640 C.3    19  ARG19       0.0489
     14  CD        62.3980 -149.9470   10.7080 C.3    19  ARG19       0.2205
     15  NE        63.6510 -149.3430   10.2640 N.pl3  19  ARG19      -0.0865
     16  CZ        63.8460 -148.0350   10.1060 C.cat  19  ARG19       0.5346
     17  NH1       62.8730 -147.1660   10.3570 N.pl3  19  ARG19       0.1354
     18  NH2       65.0260 -147.5910    9.6950 N.pl3  19  ARG19       0.1354
     19  N         62.3840 -154.4330   11.8730 N.am   20  ALA20      -0.1966
     20  CA        61.4470 -154.8450   12.9150 C.3    20  ALA20       0.1728
     21  C         61.3940 -153.7530   13.9810 C.2    20  ALA20       0.2617
     22  O         62.4290 -153.2090   14.3720 O.2    20  ALA20      -0.2715
     23  CB        61.8670 -156.1730   13.5270 C.3    20  ALA20       0.0334
     24  N         60.1870 -153.4350   14.4380 N.am   21  THR21      -0.1937
     25  CA        59.9810 -152.3790   15.4290 C.3    21  THR21       0.2028
     26  C         59.1580 -152.8700   16.6140 C.2    21  THR21       0.2642
     27  O         58.2530 -153.6860   16.4500 O.2    21  THR21      -0.2714
     28  CB        59.2400 -151.1670   14.8210 C.3    21  THR21       0.1808
     29  OG1       57.9240 -151.5600   14.4040 O.3    21  THR21      -0.2208
     30  CG2       60.0000 -150.6020   13.6300 C.3    21  THR21       0.0379
     31  N         59.4840 -152.3640   17.8010 N.am   22  ALA22      -0.1977
     32  CA        58.6350 -152.5110   18.9800 C.3    22  ALA22       0.1597
     33  C         58.2360 -151.1090   19.4270 C.2    22  ALA22       0.2287
     34  O         58.9700 -150.4460   20.1580 O.2    22  ALA22      -0.2864
     35  CB        59.3690 -153.2460   20.0890 C.3    22  ALA22       0.0319
     36  N         64.0370 -152.4540   16.4780 N.3    27  ALA27      -0.1245
     37  CA        64.5480 -153.6630   17.1210 C.3    27  ALA27       0.1562
     38  C         65.6100 -154.3520   16.2760 C.2    27  ALA27       0.2260
     39  O         66.5760 -154.8930   16.8100 O.2    27  ALA27      -0.2867
     40  CB        63.4050 -154.6220   17.4170 C.3    27  ALA27       0.0290
     41  N         66.2600 -158.2680    9.4110 N.3    31  VAL31      -0.1245
     42  CA        65.3230 -159.3890    9.4210 C.3    31  VAL31       0.1561
     43  C         65.1730 -159.9500    8.0130 C.2    31  VAL31       0.2260
     44  O         65.0390 -159.1930    7.0500 O.2    31  VAL31      -0.2867
     45  CB        63.9370 -158.9630    9.9470 C.3    31  VAL31       0.0252
     46  CG1       62.9120 -160.0780    9.7720 C.3    31  VAL31       0.0019
     47  CG2       64.0310 -158.5640   11.4100 C.3    31  VAL31       0.0019
     48  N         62.7170 -161.3430    5.8260 N.3    33  LYS33      -0.1245
     49  CA        61.2570 -161.4150    5.7210 C.3    33  LYS33       0.1561
     50  C         60.7560 -162.3240    4.5990 C.2    33  LYS33       0.2260
     51  O         59.5540 -162.5580    4.4910 O.2    33  LYS33      -0.2867
     52  CB        60.6650 -160.0110    5.5800 C.3    33  LYS33       0.0271
     53  CG        60.7810 -159.2050    6.8600 C.3    33  LYS33       0.0035
     54  CD        60.1280 -157.8430    6.7500 C.3    33  LYS33       0.0206
     55  CE        60.6320 -156.9240    7.8470 C.3    33  LYS33       0.1093
     56  NZ        59.9540 -155.6050    7.8050 N.3    33  LYS33      -0.1314
     57  N         56.8590 -162.2720    4.9290 N.3    45  MET45      -0.1230
     58  CA        56.4090 -162.0440    6.3040 C.3    45  MET45       0.1702
     59  C         56.0550 -160.5850    6.5750 C.2    45  MET45       0.2592
     60  O         56.8130 -159.6790    6.2310 O.2    45  MET45      -0.2718
     61  CB        57.4950 -162.4670    7.2890 C.3    45  MET45       0.0401
     62  CG        57.8730 -163.9320    7.2060 C.3    45  MET45       0.0596
     63  SD        59.1590 -164.3380    8.3970 S.3    45  MET45      -0.1393
     64  CE        59.8960 -165.7530    7.5810 C.3    45  MET45       0.0692
     65  N         54.8970 -160.3730    7.1950 N.am   46  ALA46      -0.1966
     66  CA        54.5210 -159.0660    7.7350 C.3    46  ALA46       0.1728
     67  C         53.5210 -159.2470    8.8730 C.2    46  ALA46       0.2617
     68  O         52.6310 -160.0940    8.7960 O.2    46  ALA46      -0.2715
     69  CB        53.9370 -158.1770    6.6520 C.3    46  ALA46       0.0334
     70  N         53.6720 -158.4440    9.9220 N.am   47  GLY47      -0.1940
     71  CA        52.8680 -158.5790   11.1340 C.3    47  GLY47       0.2014
     72  C         53.7590 -158.9650   12.2960 C.2    47  GLY47       0.2639
     73  O         54.8650 -158.4460   12.4270 O.2    47  GLY47      -0.2714
     74  N         53.2810 -159.8800   13.1340 N.am   48  GLY48      -0.1939
     75  CA        54.0610 -160.3730   14.2660 C.3    48  GLY48       0.2014
     76  C         55.2720 -161.1550   13.7950 C.2    48  GLY48       0.2639
     77  O         55.1420 -162.1100   13.0270 O.2    48  GLY48      -0.2714
     78  N         56.4510 -160.7400   14.2520 N.am   49  ALA49      -0.1963
     79  CA        57.7090 -161.3690   13.8530 C.3    49  ALA49       0.1728
     80  C         57.7260 -162.8620   14.1640 C.2    49  ALA49       0.2616
     81  O         58.0710 -163.6760   13.3080 O.2    49  ALA49      -0.2715
     82  CB        58.8830 -160.6730   14.5260 C.3    49  ALA49       0.0334
     83  N         57.3450 -163.2120   15.3890 N.am   50  ALA50      -0.1977
     84  CA        57.3110 -164.6090   15.8250 C.3    50  ALA50       0.1597
     85  C         56.2420 -165.4140   15.0930 C.2    50  ALA50       0.2287
     86  O         56.5140 -166.5020   14.5860 O.2    50  ALA50      -0.2864
     87  CB        57.0740 -164.6830   17.3210 C.3    50  ALA50       0.0319
     88  N         54.7800 -164.9340   12.1970 N.3    52  CYS52      -0.1235
     89  CA        55.1670 -165.1440   10.8080 C.3    52  CYS52       0.1677
     90  C         56.2690 -166.1810   10.6950 C.2    52  CYS52       0.2270
     91  O         56.1240 -167.1710    9.9790 O.2    52  CYS52      -0.2867
     92  CB        55.6410 -163.8320   10.1820 C.3    52  CYS52       0.0956
     93  SG        54.3060 -162.7020    9.7460 S.3    52  CYS52      -0.0801
     94  N         48.8630 -162.3450   14.2690 N.3    96  SER96      -0.1217
     95  CA        48.9900 -161.1850   13.3930 C.3    96  SER96       0.1889
     96  C         49.9380 -161.5020   12.2410 C.2    96  SER96       0.2288
     97  O         51.1550 -161.5340   12.4200 O.2    96  SER96      -0.2866
     98  CB        49.4920 -159.9740   14.1840 C.3    96  SER96       0.2089
     99  OG        49.4440 -158.7960   13.3960 O.3    96  SER96      -0.2183
    100  N         51.7860 -154.7110    4.5560 N.3   130  GLY130     -0.1210
    101  CA        52.5040 -154.1310    5.6830 C.3   130  GLY130      0.1956
    102  C         52.1590 -152.6700    5.9020 C.2   130  GLY130      0.2612
    103  O         51.3960 -152.0760    5.1380 O.2   130  GLY130     -0.2717
    104  N         52.7360 -152.0950    6.9540 N.am  131  SER131     -0.1952
    105  CA        52.5220 -150.6900    7.3060 C.3   131  SER131      0.1924
    106  C         52.9210 -149.7290    6.1910 C.2   131  SER131      0.2314
    107  O         52.3960 -148.6210    6.1090 O.2   131  SER131     -0.2863
    108  CB        53.3080 -150.3420    8.5700 C.3   131  SER131      0.2116
    109  OG        54.7000 -150.5080    8.3640 O.3   131  SER131     -0.2180
    110  N         58.1680 -147.1230    9.9020 N.3   170  TYR170     -0.1241
    111  CA        58.2800 -148.5140   10.3390 C.3   170  TYR170      0.1605
    112  C         58.7440 -149.4670    9.2350 C.2   170  TYR170      0.2264
    113  O         58.5910 -150.6760    9.3580 O.2   170  TYR170     -0.2867
    114  CB        56.9420 -148.9730   10.9230 C.3   170  TYR170      0.0534
    115  CG        56.4790 -148.0840   12.0540 C.ar  170  TYR170     -0.0201
    116  CD1       57.2860 -147.8760   13.1670 C.ar  170  TYR170     -0.0009
    117  CD2       55.2470 -147.4410   12.0100 C.ar  170  TYR170     -0.0009
    118  CE1       56.8820 -147.0610   14.2060 C.ar  170  TYR170      0.0417
    119  CE2       54.8340 -146.6220   13.0480 C.ar  170  TYR170      0.0417
    120  CZ        55.6560 -146.4360   14.1430 C.ar  170  TYR170      0.1957
    121  OH        55.2530 -145.6240   15.1780 O.3   170  TYR170     -0.2866
@<TRIPOS>BOND
     1    51    50    2
     2   100   101    1
     3    50    49    1
     4    57    58    1
     5   103   102    2
     6    52    49    1
     7    52    53    1
     8   101   102    1
     9    49    48    1
    10   102   104   am
    11     4     3    2
    12     3     2    1
    13   107   106    2
    14   106   105    1
    15    60    59    2
    16     7     5    1
    17    58    59    1
    18    58    61    1
    19    59    65   am
    20    69    66    1
    21    54    53    1
    22    54    55    1
    23   104   105    1
    24    44    43    2
    25    65    66    1
    26    62    61    1
    27    62    63    1
    28   105   108    1
    29     2     5    1
    30     2     1    1
    31     5     6    1
    32    64    63    1
    33    66    67    1
    34    56    55    1
    35    43    42    1
    36   109   108    1
    37     8     9    1
    38    68    67    2
    39    67    70   am
    40   112   113    2
    41   112   111    1
    42    41    42    1
    43    42    45    1
    44    12     9    1
    45    12    13    1
    46     9    10    1
    47    18    16    1
    48    93    92    1
    49    46    45    1
    50   110   111    1
    51    70    71    1
    52    45    47    1
    53    91    90    2
    54    16    15    2
    55    16    17    1
    56    11    10    2
    57    92    89    1
    58    15    14    1
    59   111   114    1
    60    10    19   am
    61    90    89    1
    62    14    13    1
    63    89    88    1
    64   114   115    1
    65    71    72    1
    66    19    20    1
    67   117   115   ar
    68   117   119   ar
    69   115   116   ar
    70    96    97    2
    71    96    95    1
    72    72    73    2
    73    72    74   am
    74    20    23    1
    75    20    21    1
    76    77    76    2
    77   119   120   ar
    78    74    75    1
    79   116   118   ar
    80    81    80    2
    81    95    98    1
    82    95    94    1
    83    99    98    1
    84    30    28    1
    85    76    78   am
    86    76    75    1
    87    79    80    1
    88    79    78    1
    89    79    82    1
    90    21    22    2
    91    21    24   am
    92   120   118   ar
    93   120   121    1
    94    80    83   am
    95    29    28    1
    96    24    25    1
    97    86    85    2
    98    28    25    1
    99    85    84    1
   100    83    84    1
   101    25    26    1
   102    84    87    1
   103    38    39    2
   104    38    37    1
   105    27    26    2
   106    36    37    1
   107    26    31   am
   108    37    40    1
   109    31    32    1
   110    32    33    1
   111    32    35    1
   112    33    34    2
