@<TRIPOS>MOLECULE
tmp/4y8gH00.pdb
 116 107 0 0 0
SMALL
GASTEIGER

@<TRIPOS>ATOM
      1  N         64.0220 -139.3120   44.9780 N.3     1  THR1       -0.1218
      2  CA        64.8790 -138.5370   45.9570 C.3     1  THR1        0.1862
      3  C         64.9950 -139.0830   47.3950 C.2     1  THR1        0.2287
      4  O         64.1080 -139.7840   47.8780 O.2     1  THR1       -0.2866
      5  CB        64.2780 -137.1510   46.1150 C.3     1  THR1        0.1770
      6  OG1       64.3060 -136.5600   44.8550 O.3     1  THR1       -0.2211
      7  CG2       65.0540 -136.2130   47.0430 C.3     1  THR1        0.0375
      8  N         70.2020 -136.9290   42.6470 N.3    19  ARG19      -0.1231
      9  CA        69.7210 -137.6250   41.4510 C.3    19  ARG19       0.1694
     10  C         68.3520 -137.1230   41.0040 C.2    19  ARG19       0.2593
     11  O         67.4470 -136.9500   41.8190 O.2    19  ARG19      -0.2718
     12  CB        69.6480 -139.1360   41.6890 C.3    19  ARG19       0.0321
     13  CG        69.0200 -139.9070   40.5330 C.3    19  ARG19       0.0489
     14  CD        68.9710 -141.3990   40.8020 C.3    19  ARG19       0.2205
     15  NE        70.3010 -142.0020   40.8160 N.pl3  19  ARG19      -0.0865
     16  CZ        70.5390 -143.3020   40.9700 C.cat  19  ARG19       0.5346
     17  NH1       69.5370 -144.1620   41.1290 N.pl3  19  ARG19       0.1354
     18  NH2       71.7880 -143.7450   40.9660 N.pl3  19  ARG19       0.1354
     19  N         68.2100 -136.9150   39.6970 N.am   20  SER20      -0.1938
     20  CA        66.9220 -136.6110   39.0820 C.3    20  SER20       0.2055
     21  C         66.5760 -137.7390   38.1180 C.2    20  SER20       0.2644
     22  O         67.4400 -138.1860   37.3620 O.2    20  SER20      -0.2714
     23  CB        66.9920 -135.2840   38.3290 C.3    20  SER20       0.2130
     24  OG        65.7010 -134.8610   37.9270 O.3    20  SER20      -0.2179
     25  N         65.3270 -138.2000   38.1430 N.am   21  THR21      -0.1936
     26  CA        64.9070 -139.3260   37.3030 C.3    21  THR21       0.2028
     27  C         63.7650 -138.9860   36.3490 C.2    21  THR21       0.2642
     28  O         62.8230 -138.2870   36.7130 O.2    21  THR21      -0.2714
     29  CB        64.4550 -140.5430   38.1390 C.3    21  THR21       0.1808
     30  OG1       63.3260 -140.1880   38.9480 O.3    21  THR21      -0.2208
     31  CG2       65.5860 -141.0480   39.0210 C.3    21  THR21       0.0379
     32  N         63.8050 -139.5300   35.1560 N.am   22  GLN22      -0.1976
     33  CA        62.6760 -139.4390   34.2670 C.3    22  GLN22       0.1601
     34  C         62.3240 -140.8520   33.8440 C.2    22  GLN22       0.2287
     35  O         62.8050 -141.3840   32.8750 O.2    22  GLN22      -0.2864
     36  CB        62.9930 -138.5170   33.1030 C.3    22  GLN22       0.0394
     37  CG        62.0450 -138.6100   31.9340 C.3    22  GLN22       0.0908
     38  CD        60.6970 -138.0080   32.2100 C.2    22  GLN22       0.2608
     39  OE1       59.7680 -138.6990   32.6120 O.2    22  GLN22      -0.2717
     40  NE2       60.5750 -136.7140   31.9750 N.am   22  GLN22      -0.0878
     41  N         68.0010 -138.4500   34.6530 N.3    27  ALA27      -0.1245
     42  CA        67.9970 -137.1940   33.9060 C.3    27  ALA27       0.1562
     43  C         69.1570 -136.2790   34.3000 C.2    27  ALA27       0.2260
     44  O         69.7900 -135.6710   33.4380 O.2    27  ALA27      -0.2867
     45  CB        66.6730 -136.4740   34.1120 C.3    27  ALA27       0.0290
     46  N         71.9460 -132.5180   40.4240 N.3    31  CYS31      -0.1235
     47  CA        71.0910 -131.3510   40.6350 C.3    31  CYS31       0.1677
     48  C         71.0480 -130.9850   42.1130 C.2    31  CYS31       0.2270
     49  O         71.2950 -131.8240   42.9800 O.2    31  CYS31      -0.2867
     50  CB        69.6780 -131.5860   40.0980 C.3    31  CYS31       0.0956
     51  SG        68.6460 -132.6700   41.1040 S.3    31  CYS31      -0.0801
     52  N         69.0600 -130.0040   45.2830 N.3    33  LYS33      -0.1245
     53  CA        67.7350 -130.1080   45.8850 C.3    33  LYS33       0.1561
     54  C         67.6250 -129.2440   47.1420 C.2    33  LYS33       0.2260
     55  O         66.5630 -129.1710   47.7550 O.2    33  LYS33      -0.2867
     56  CB        67.4200 -131.5740   46.1870 C.3    33  LYS33       0.0271
     57  CG        67.6790 -132.4810   44.9950 C.3    33  LYS33       0.0035
     58  CD        67.1280 -133.8780   45.2010 C.3    33  LYS33       0.0206
     59  CE        67.7150 -134.8570   44.1990 C.3    33  LYS33       0.1093
     60  NZ        67.1810 -136.2310   44.3940 N.3    33  LYS33      -0.1314
     61  N         67.5020 -125.5600   48.5960 N.3    35  HIS35      -0.1241
     62  CA        67.1100 -124.2380   48.1290 C.3    35  HIS35       0.1621
     63  C         67.1840 -123.2130   49.2390 C.2    35  HIS35       0.2264
     64  O         66.8130 -123.4870   50.3780 O.2    35  HIS35      -0.2867
     65  CB        65.6830 -124.2690   47.6050 C.3    35  HIS35       0.0745
     66  CG        65.4390 -125.3380   46.5920 C.ar   35  HIS35       0.0817
     67  ND1       65.9600 -125.2860   45.3170 N.ar   35  HIS35      -0.2268
     68  CD2       64.7270 -126.4870   46.6630 C.ar   35  HIS35       0.1154
     69  CE1       65.5820 -126.3600   44.6480 C.ar   35  HIS35       0.1986
     70  NE2       64.8320 -127.1040   45.4410 N.ar   35  HIS35      -0.2212
     71  N         63.8350 -130.2620   48.8300 N.3    45  GLY45      -0.1210
     72  CA        62.6150 -130.5730   48.0940 C.3    45  GLY45       0.1956
     73  C         62.6590 -131.8850   47.3430 C.2    45  GLY45       0.2612
     74  O         63.6290 -132.1840   46.6490 O.2    45  GLY45      -0.2717
     75  N         61.5950 -132.6660   47.4980 N.am   46  ALA46      -0.1965
     76  CA        61.3780 -133.8830   46.7280 C.3    46  ALA46       0.1728
     77  C         60.0360 -133.7790   46.0120 C.2    46  ALA46       0.2617
     78  O         59.2070 -132.9350   46.3580 O.2    46  ALA46      -0.2715
     79  CB        61.3940 -135.0950   47.6430 C.3    46  ALA46       0.0334
     80  N         59.8290 -134.6370   45.0190 N.am   47  GLY47      -0.1940
     81  CA        58.5990 -134.6310   44.2300 C.3    47  GLY47       0.2014
     82  C         58.8540 -134.1180   42.8300 C.2    47  GLY47       0.2640
     83  O         59.9200 -134.3590   42.2610 O.2    47  GLY47      -0.2714
     84  N         57.8760 -133.4050   42.2750 N.am   48  THR48      -0.1936
     85  CA        57.9930 -132.8480   40.9300 C.3    48  THR48       0.2028
     86  C         59.0400 -131.7340   40.9400 C.2    48  THR48       0.2642
     87  O         58.8690 -130.7170   41.6090 O.2    48  THR48      -0.2714
     88  CB        56.6380 -132.3180   40.4250 C.3    48  THR48       0.1808
     89  OG1       55.6400 -133.3390   40.5770 O.3    48  THR48      -0.2208
     90  CG2       56.7210 -131.9050   38.9560 C.3    48  THR48       0.0379
     91  N         60.1240 -131.9470   40.1980 N.am   49  ALA49      -0.1977
     92  CA        61.3040 -131.0770   40.2520 C.3    49  ALA49       0.1597
     93  C         61.0020 -129.5960   40.0350 C.2    49  ALA49       0.2287
     94  O         61.4410 -128.7510   40.8160 O.2    49  ALA49      -0.2864
     95  CB        62.3500 -131.5510   39.2550 C.3    49  ALA49       0.0319
     96  N         59.0230 -127.9730   43.0820 N.3    52  THR52      -0.1218
     97  CA        59.8030 -127.6620   44.2810 C.3    52  THR52       0.1862
     98  C         60.6610 -126.4210   44.0660 C.2    52  THR52       0.2287
     99  O         60.8170 -125.6220   44.9790 O.2    52  THR52      -0.2866
    100  CB        60.7070 -128.8270   44.7300 C.3    52  THR52       0.1770
    101  OG1       61.6710 -129.1150   43.7120 O.3    52  THR52      -0.2211
    102  CG2       59.8830 -130.0730   45.0310 C.3    52  THR52       0.0375
    103  N         60.8190 -138.2500   50.4790 N.3   128  GLY128     -0.1210
    104  CA        61.2570 -138.7580   49.1790 C.3   128  GLY128      0.1956
    105  C         61.1430 -140.2680   49.0790 C.2   128  GLY128      0.2612
    106  O         60.7560 -140.9340   50.0400 O.2   128  GLY128     -0.2717
    107  N         61.4780 -140.8080   47.9090 N.am  129  SER129     -0.1952
    108  CA        61.4380 -142.2560   47.6870 C.3   129  SER129      0.1924
    109  C         62.4040 -142.9930   48.6130 C.2   129  SER129      0.2314
    110  O         62.1270 -144.1170   49.0370 O.2   129  SER129     -0.2863
    111  CB        61.7500 -142.5950   46.2250 C.3   129  SER129      0.2116
    112  OG        63.0010 -142.0600   45.8260 O.3   129  SER129     -0.2180
    113  N         65.7050 -144.6470   43.4150 N.3   168  GLY168     -0.1225
    114  CA        65.3040 -143.2700   43.1580 C.3   168  GLY168      0.1811
    115  C         66.3230 -142.2480   43.6290 C.2   168  GLY168      0.2280
    116  O         66.1340 -141.0560   43.4290 O.2   168  GLY168     -0.2866
@<TRIPOS>BOND
     1    37    38    1
     2    37    36    1
     3    40    38   am
     4    38    39    2
     5    35    34    2
     6    36    33    1
     7    44    43    2
     8    34    33    1
     9    42    45    1
    10    42    43    1
    11    42    41    1
    12    33    32    1
    13    32    27   am
    14    27    28    2
    15    27    26    1
    16    26    29    1
    17    26    25    1
    18    22    21    2
    19    24    23    1
    20    21    25   am
    21    21    20    1
    22    29    30    1
    23    29    31    1
    24    23    20    1
    25    90    88    1
    26    20    19    1
    27    95    92    1
    28    19    10   am
    29    93    92    1
    30    93    94    2
    31    50    47    1
    32    50    51    1
    33    91    92    1
    34    91    86   am
    35    46    47    1
    36    88    89    1
    37    88    85    1
    38    13    14    1
    39    13    12    1
    40    47    48    1
    41    14    15    1
    42    15    16    2
    43    85    86    1
    44    85    84    1
    45    86    87    2
    46    18    16    1
    47    16    17    1
    48    10     9    1
    49    10    11    2
    50     9    12    1
    51     9     8    1
    52    48    49    2
    53    83    82    2
    54    84    82   am
    55    82    81    1
    56    96    97    1
    57   114   113    1
    58   114   115    1
    59   116   115    2
    60   101   100    1
    61    98    97    1
    62    98    99    2
    63    59    60    1
    64    59    58    1
    65    81    80    1
    66    97   100    1
    67    69    67   ar
    68    69    70   ar
    69   100   102    1
    70     6     5    1
    71     1     2    1
    72    57    58    1
    73    57    56    1
    74    80    77   am
    75    52    53    1
    76    67    66   ar
    77    70    68   ar
    78   112   111    1
    79    53    56    1
    80    53    54    1
    81     2     5    1
    82     2     3    1
    83    77    78    2
    84    77    76    1
    85     5     7    1
    86   111   108    1
    87    66    68   ar
    88    66    65    1
    89    74    73    2
    90    76    75    1
    91    76    79    1
    92    54    55    2
    93    73    75   am
    94    73    72    1
    95     3     4    2
    96    65    62    1
    97   108   107    1
    98   108   109    1
    99   107   105   am
   100    72    71    1
   101    62    61    1
   102    62    63    1
   103   109   110    2
   104   105   104    1
   105   105   106    2
   106   104   103    1
   107    63    64    2
