@<TRIPOS>MOLECULE
tmp/4y8hH00.pdb
 121 112 0 0 0
SMALL
GASTEIGER

@<TRIPOS>ATOM
      1  N         63.8310 -139.4740   44.9320 N.3     1  THR1       -0.1218
      2  CA        64.6790 -138.6930   45.9110 C.3     1  THR1        0.1862
      3  C         64.7900 -139.2470   47.3500 C.2     1  THR1        0.2287
      4  O         63.8960 -139.9470   47.8280 O.2     1  THR1       -0.2866
      5  CB        64.0700 -137.3120   46.0640 C.3     1  THR1        0.1770
      6  OG1       64.0900 -136.7210   44.7980 O.3     1  THR1       -0.2211
      7  CG2       64.8400 -136.3730   46.9950 C.3     1  THR1        0.0375
      8  N         70.0480 -137.1050   42.6520 N.3    19  ARG19      -0.1231
      9  CA        69.5640 -137.8020   41.4580 C.3    19  ARG19       0.1694
     10  C         68.1950 -137.2950   41.0130 C.2    19  ARG19       0.2593
     11  O         67.2900 -137.1240   41.8290 O.2    19  ARG19      -0.2718
     12  CB        69.4850 -139.3120   41.6990 C.3    19  ARG19       0.0321
     13  CG        68.8640 -140.0830   40.5400 C.3    19  ARG19       0.0489
     14  CD        68.8190 -141.5750   40.8050 C.3    19  ARG19       0.2205
     15  NE        70.1500 -142.1740   40.8190 N.pl3  19  ARG19      -0.0865
     16  CZ        70.3910 -143.4720   40.9700 C.cat  19  ARG19       0.5346
     17  NH1       69.3920 -144.3360   41.1260 N.pl3  19  ARG19       0.1354
     18  NH2       71.6440 -143.9100   40.9690 N.pl3  19  ARG19       0.1354
     19  N         68.0570 -137.0790   39.7070 N.am   20  SER20      -0.1938
     20  CA        66.7700 -136.7760   39.0900 C.3    20  SER20       0.2055
     21  C         66.4290 -137.9050   38.1260 C.2    20  SER20       0.2644
     22  O         67.2920 -138.3480   37.3670 O.2    20  SER20      -0.2714
     23  CB        66.8390 -135.4490   38.3340 C.3    20  SER20       0.2130
     24  OG        65.5500 -135.0370   37.9140 O.3    20  SER20      -0.2179
     25  N         65.1810 -138.3690   38.1570 N.am   21  THR21      -0.1936
     26  CA        64.7600 -139.4930   37.3180 C.3    21  THR21       0.2028
     27  C         63.6200 -139.1470   36.3640 C.2    21  THR21       0.2642
     28  O         62.6810 -138.4370   36.7230 O.2    21  THR21      -0.2714
     29  CB        64.3090 -140.7080   38.1580 C.3    21  THR21       0.1808
     30  OG1       63.1890 -140.3470   38.9790 O.3    21  THR21      -0.2208
     31  CG2       65.4470 -141.2180   39.0280 C.3    21  THR21       0.0379
     32  N         63.6570 -139.6940   35.1680 N.am   22  GLN22      -0.1976
     33  CA        62.5180 -139.6320   34.2940 C.3    22  GLN22       0.1601
     34  C         62.2190 -141.0460   33.8940 C.2    22  GLN22       0.2287
     35  O         62.7470 -141.5950   32.9640 O.2    22  GLN22      -0.2864
     36  CB        62.7740 -138.7290   33.0940 C.3    22  GLN22       0.0394
     37  CG        61.7430 -138.8480   31.9880 C.3    22  GLN22       0.0908
     38  CD        60.4090 -138.2250   32.3120 C.2    22  GLN22       0.2608
     39  OE1       59.5820 -138.8100   32.9970 O.2    22  GLN22      -0.2717
     40  NE2       60.1850 -137.0340   31.7920 N.am   22  GLN22      -0.0878
     41  N         67.8760 -138.6250   34.6850 N.3    27  ALA27      -0.1245
     42  CA        67.8750 -137.3710   33.9340 C.3    27  ALA27       0.1562
     43  C         69.0410 -136.4640   34.3290 C.2    27  ALA27       0.2260
     44  O         69.6930 -135.8770   33.4650 O.2    27  ALA27      -0.2867
     45  CB        66.5530 -136.6450   34.1360 C.3    27  ALA27       0.0290
     46  N         71.7950 -132.6930   40.4540 N.3    31  CYS31      -0.1235
     47  CA        70.9280 -131.5330   40.6550 C.3    31  CYS31       0.1677
     48  C         70.8820 -131.1550   42.1310 C.2    31  CYS31       0.2270
     49  O         71.1170 -131.9910   43.0040 O.2    31  CYS31      -0.2867
     50  CB        69.5180 -131.7930   40.1230 C.3    31  CYS31       0.0956
     51  SG        68.5160 -132.9200   41.1160 S.3    31  CYS31      -0.0801
     52  N         68.8790 -130.1710   45.2760 N.3    33  LYS33      -0.1245
     53  CA        67.5490 -130.2780   45.8650 C.3    33  LYS33       0.1561
     54  C         67.4320 -129.4190   47.1250 C.2    33  LYS33       0.2260
     55  O         66.3650 -129.3520   47.7360 O.2    33  LYS33      -0.2867
     56  CB        67.2300 -131.7430   46.1630 C.3    33  LYS33       0.0271
     57  CG        67.5010 -132.6550   44.9760 C.3    33  LYS33       0.0035
     58  CD        66.9420 -134.0480   45.1830 C.3    33  LYS33       0.0206
     59  CE        67.5290 -135.0330   44.1860 C.3    33  LYS33       0.1093
     60  NZ        66.9950 -136.4070   44.3830 N.3    33  LYS33      -0.1314
     61  N         67.2850 -125.7290   48.5690 N.3    35  HIS35      -0.1241
     62  CA        66.8940 -124.4090   48.0940 C.3    35  HIS35       0.1621
     63  C         66.9650 -123.3810   49.2030 C.2    35  HIS35       0.2264
     64  O         66.6000 -123.6600   50.3430 O.2    35  HIS35      -0.2867
     65  CB        65.4670 -124.4410   47.5660 C.3    35  HIS35       0.0745
     66  CG        65.2240 -125.5130   46.5550 C.ar   35  HIS35       0.0817
     67  ND1       65.7500 -125.4660   45.2820 N.ar   35  HIS35      -0.2268
     68  CD2       64.5060 -126.6580   46.6260 C.ar   35  HIS35       0.1154
     69  CE1       65.3700 -126.5400   44.6140 C.ar   35  HIS35       0.1986
     70  NE2       64.6140 -127.2790   45.4060 N.ar   35  HIS35      -0.2212
     71  N         63.6160 -130.4310   48.7720 N.3    45  GLY45      -0.1210
     72  CA        62.4020 -130.7430   48.0300 C.3    45  GLY45       0.1956
     73  C         62.4500 -132.0610   47.2890 C.2    45  GLY45       0.2612
     74  O         63.4270 -132.3680   46.6100 O.2    45  GLY45      -0.2717
     75  N         61.3830 -132.8390   47.4400 N.am   46  ALA46      -0.1965
     76  CA        61.1700 -134.0570   46.6720 C.3    46  ALA46       0.1728
     77  C         59.8290 -133.9560   45.9580 C.2    46  ALA46       0.2617
     78  O         58.9930 -133.1200   46.3060 O.2    46  ALA46      -0.2715
     79  CB        61.1870 -135.2680   47.5890 C.3    46  ALA46       0.0334
     80  N         59.6290 -134.8140   44.9630 N.am   47  GLY47      -0.1940
     81  CA        58.4030 -134.8120   44.1690 C.3    47  GLY47       0.2014
     82  C         58.6660 -134.2910   42.7730 C.2    47  GLY47       0.2640
     83  O         59.7360 -134.5270   42.2080 O.2    47  GLY47      -0.2714
     84  N         57.6900 -133.5770   42.2180 N.am   48  THR48      -0.1936
     85  CA        57.8150 -133.0110   40.8780 C.3    48  THR48       0.2028
     86  C         58.8620 -131.8980   40.8980 C.2    48  THR48       0.2642
     87  O         58.6860 -130.8800   41.5680 O.2    48  THR48      -0.2714
     88  CB        56.4660 -132.4730   40.3740 C.3    48  THR48       0.1808
     89  OG1       55.4620 -133.4850   40.5290 O.3    48  THR48      -0.2208
     90  CG2       56.5530 -132.0680   38.9040 C.3    48  THR48       0.0379
     91  N         59.9520 -132.1110   40.1640 N.am   49  ALA49      -0.1963
     92  CA        61.1300 -131.2400   40.2270 C.3    49  ALA49       0.1728
     93  C         60.8260 -129.7610   40.0040 C.2    49  ALA49       0.2616
     94  O         61.2750 -128.9110   40.7720 O.2    49  ALA49      -0.2715
     95  CB        62.1880 -131.7140   39.2420 C.3    49  ALA49       0.0334
     96  N         60.0720 -129.4580   38.9530 N.am   50  ALA50      -0.1977
     97  CA        59.7080 -128.0740   38.6460 C.3    50  ALA50       0.1597
     98  C         58.8590 -127.4440   39.7440 C.2    50  ALA50       0.2287
     99  O         59.0090 -126.2590   40.0410 O.2    50  ALA50      -0.2864
    100  CB        58.9680 -128.0050   37.3260 C.3    50  ALA50       0.0319
    101  N         58.8290 -128.1420   43.0470 N.3    52  THR52      -0.1218
    102  CA        59.6090 -127.8350   44.2470 C.3    52  THR52       0.1862
    103  C         60.4710 -126.5940   44.0390 C.2    52  THR52       0.2287
    104  O         60.6290 -125.8000   44.9570 O.2    52  THR52      -0.2866
    105  CB        60.5100 -129.0050   44.6990 C.3    52  THR52       0.1770
    106  OG1       61.4830 -129.2940   43.6890 O.3    52  THR52      -0.2211
    107  CG2       59.6830 -130.2470   44.9930 C.3    52  THR52       0.0375
    108  N         60.5950 -138.4310   50.3920 N.3   128  GLY128     -0.1210
    109  CA        61.0390 -138.9410   49.0960 C.3   128  GLY128      0.1956
    110  C         60.9310 -140.4510   49.0020 C.2   128  GLY128      0.2612
    111  O         60.5550 -141.1160   49.9650 O.2   128  GLY128     -0.2717
    112  N         61.2640 -140.9910   47.8320 N.am  129  SER129     -0.1952
    113  CA        61.2360 -142.4380   47.6110 C.3   129  SER129      0.1924
    114  C         62.1960 -143.1680   48.5510 C.2   129  SER129      0.2314
    115  O         61.9150 -144.2840   48.9890 O.2   129  SER129     -0.2863
    116  CB        61.5800 -142.7670   46.1560 C.3   129  SER129      0.2116
    117  OG        62.8460 -142.2340   45.7990 O.3   129  SER129     -0.2180
    118  N         65.5330 -144.8220   43.3790 N.3   168  GLY168     -0.1225
    119  CA        65.1330 -143.4440   43.1280 C.3   168  GLY168      0.1811
    120  C         66.1370 -142.4190   43.6270 C.2   168  GLY168      0.2280
    121  O         65.9230 -141.2230   43.4760 O.2   168  GLY168     -0.2866
@<TRIPOS>BOND
     1    40    38   am
     2    37    38    1
     3    37    36    1
     4    38    39    2
     5    35    34    2
     6    36    33    1
     7    44    43    2
     8    34    33    1
     9    42    45    1
    10    42    43    1
    11    42    41    1
    12    33    32    1
    13    32    27   am
    14    27    28    2
    15    27    26    1
    16    26    25    1
    17    26    29    1
    18   100    97    1
    19    22    21    2
    20    24    23    1
    21    21    25   am
    22    21    20    1
    23    29    30    1
    24    29    31    1
    25    23    20    1
    26    97    96    1
    27    97    98    1
    28    90    88    1
    29    96    93   am
    30    20    19    1
    31    95    92    1
    32    19    10   am
    33    98    99    2
    34    93    92    1
    35    93    94    2
    36    50    47    1
    37    50    51    1
    38    91    92    1
    39    91    86   am
    40    88    89    1
    41    88    85    1
    42    46    47    1
    43    13    14    1
    44    13    12    1
    45    47    48    1
    46    14    15    1
    47    15    16    2
    48    85    86    1
    49    85    84    1
    50    86    87    2
    51    18    16    1
    52    16    17    1
    53    10     9    1
    54    10    11    2
    55     9    12    1
    56     9     8    1
    57    48    49    2
    58    83    82    2
    59    84    82   am
    60    82    81    1
    61   101   102    1
    62   119   118    1
    63   119   120    1
    64   121   120    2
    65   106   105    1
    66   103   102    1
    67   103   104    2
    68    81    80    1
    69    59    60    1
    70    59    58    1
    71   102   105    1
    72    69    67   ar
    73    69    70   ar
    74   105   107    1
    75     6     5    1
    76     1     2    1
    77    80    77   am
    78    57    58    1
    79    57    56    1
    80    52    53    1
    81    67    66   ar
    82    70    68   ar
    83   117   116    1
    84    53    56    1
    85    53    54    1
    86     2     5    1
    87     2     3    1
    88    77    78    2
    89    77    76    1
    90     5     7    1
    91   116   113    1
    92    66    68   ar
    93    66    65    1
    94    74    73    2
    95    76    75    1
    96    76    79    1
    97    54    55    2
    98    73    75   am
    99    73    72    1
   100     3     4    2
   101    65    62    1
   102   113   112    1
   103   113   114    1
   104   112   110   am
   105    72    71    1
   106    62    61    1
   107    62    63    1
   108   114   115    2
   109   110   109    1
   110   110   111    2
   111   109   108    1
   112    63    64    2
