@<TRIPOS>MOLECULE
tmp/4y8hY00.pdb
 115 107 0 0 0
SMALL
GASTEIGER

@<TRIPOS>ATOM
      1  N         56.6820 -153.2230    8.6610 N.3     1  THR1       -0.1218
      2  CA        57.0290 -153.9030    7.3730 C.3     1  THR1        0.1862
      3  C         56.5300 -153.4070    6.0200 C.2     1  THR1        0.2287
      4  O         55.4350 -152.9370    5.8910 O.2     1  THR1       -0.2866
      5  CB        56.5370 -155.3280    7.4560 C.3     1  THR1        0.1770
      6  OG1       57.1350 -155.8330    8.5330 O.3     1  THR1       -0.2211
      7  CG2       56.9520 -156.2120    6.3010 C.3     1  THR1        0.0375
      8  N         63.1720 -154.4270    8.3730 N.3    19  ARG19      -0.1231
      9  CA        63.0350 -153.7750    9.6790 C.3    19  ARG19       0.1694
     10  C         62.0290 -154.4890   10.5840 C.2    19  ARG19       0.2592
     11  O         60.9880 -154.9570   10.1250 O.2    19  ARG19      -0.2718
     12  CB        62.6360 -152.3020    9.5250 C.3    19  ARG19       0.0321
     13  CG        62.4660 -151.5790   10.8570 C.3    19  ARG19       0.0489
     14  CD        62.3620 -150.0710   10.7000 C.3    19  ARG19       0.2205
     15  NE        63.6220 -149.4660   10.2760 N.pl3  19  ARG19      -0.0865
     16  CZ        63.8190 -148.1590   10.1180 C.cat  19  ARG19       0.5346
     17  NH1       62.8390 -147.2900   10.3500 N.pl3  19  ARG19       0.1354
     18  NH2       65.0060 -147.7130    9.7260 N.pl3  19  ARG19       0.1354
     19  N         62.3640 -154.5710   11.8690 N.am   20  ALA20      -0.1966
     20  CA        61.4240 -154.9960   12.9030 C.3    20  ALA20       0.1728
     21  C         61.3630 -153.9180   13.9790 C.2    20  ALA20       0.2617
     22  O         62.4000 -153.4070   14.4110 O.2    20  ALA20      -0.2715
     23  CB        61.8470 -156.3220   13.5080 C.3    20  ALA20       0.0334
     24  N         60.1470 -153.5790   14.4020 N.am   21  THR21      -0.1937
     25  CA        59.9310 -152.5280   15.3900 C.3    21  THR21       0.2028
     26  C         59.1140 -153.0350   16.5720 C.2    21  THR21       0.2642
     27  O         58.2510 -153.8990   16.4140 O.2    21  THR21      -0.2714
     28  CB        59.1800 -151.3250   14.7810 C.3    21  THR21       0.1808
     29  OG1       57.8740 -151.7350   14.3540 O.3    21  THR21      -0.2208
     30  CG2       59.9420 -150.7500   13.5950 C.3    21  THR21       0.0379
     31  N         59.4070 -152.4960   17.7530 N.am   22  ALA22      -0.1977
     32  CA        58.5500 -152.6440   18.9250 C.3    22  ALA22       0.1597
     33  C         58.1390 -151.2420   19.3590 C.2    22  ALA22       0.2287
     34  O         58.8640 -150.5750   20.0950 O.2    22  ALA22      -0.2864
     35  CB        59.2840 -153.3640   20.0430 C.3    22  ALA22       0.0319
     36  N         63.9770 -152.5800   16.4700 N.3    27  ALA27      -0.1245
     37  CA        64.4810 -153.7950   17.1100 C.3    27  ALA27       0.1562
     38  C         65.5510 -154.4830   16.2710 C.2    27  ALA27       0.2260
     39  O         66.5120 -155.0310   16.8120 O.2    27  ALA27      -0.2867
     40  CB        63.3350 -154.7540   17.3890 C.3    27  ALA27       0.0290
     41  N         66.2580 -158.3990    9.4510 N.3    31  VAL31      -0.1245
     42  CA        65.3220 -159.5210    9.4530 C.3    31  VAL31       0.1561
     43  C         65.1860 -160.0860    8.0440 C.2    31  VAL31       0.2260
     44  O         65.0630 -159.3310    7.0780 O.2    31  VAL31      -0.2867
     45  CB        63.9280 -159.0950    9.9640 C.3    31  VAL31       0.0252
     46  CG1       62.9060 -160.2130    9.7850 C.3    31  VAL31       0.0019
     47  CG2       64.0040 -158.6870   11.4250 C.3    31  VAL31       0.0019
     48  N         62.7410 -161.4890    5.8410 N.3    33  LYS33      -0.1245
     49  CA        61.2820 -161.5610    5.7320 C.3    33  LYS33       0.1561
     50  C         60.7870 -162.4700    4.6060 C.2    33  LYS33       0.2260
     51  O         59.5810 -162.6840    4.4760 O.2    33  LYS33      -0.2867
     52  CB        60.6910 -160.1560    5.5860 C.3    33  LYS33       0.0271
     53  CG        60.8050 -159.3460    6.8640 C.3    33  LYS33       0.0035
     54  CD        60.1470 -157.9870    6.7480 C.3    33  LYS33       0.0206
     55  CE        60.6470 -157.0610    7.8420 C.3    33  LYS33       0.1093
     56  NZ        59.9660 -155.7440    7.7900 N.3    33  LYS33      -0.1314
     57  N         56.8780 -162.4110    4.9090 N.3    45  MET45      -0.1230
     58  CA        56.4280 -162.1870    6.2820 C.3    45  MET45       0.1702
     59  C         56.0790 -160.7250    6.5460 C.2    45  MET45       0.2592
     60  O         56.8460 -159.8230    6.2100 O.2    45  MET45      -0.2718
     61  CB        57.5170 -162.6120    7.2630 C.3    45  MET45       0.0401
     62  CG        57.9050 -164.0760    7.1700 C.3    45  MET45       0.0596
     63  SD        59.1820 -164.4900    8.3690 S.3    45  MET45      -0.1393
     64  CE        59.9100 -165.9180    7.5730 C.3    45  MET45       0.0692
     65  N         54.9130 -160.5080    7.1500 N.am   46  ALA46      -0.1966
     66  CA        54.5340 -159.2000    7.6830 C.3    46  ALA46       0.1728
     67  C         53.5320 -159.3880    8.8150 C.2    46  ALA46       0.2617
     68  O         52.6510 -160.2440    8.7350 O.2    46  ALA46      -0.2715
     69  CB        53.9480 -158.3170    6.5960 C.3    46  ALA46       0.0334
     70  N         53.6720 -158.5810    9.8630 N.am   47  GLY47      -0.1940
     71  CA        52.8630 -158.7200   11.0710 C.3    47  GLY47       0.2014
     72  C         53.7430 -159.1250   12.2360 C.2    47  GLY47       0.2639
     73  O         54.8600 -158.6270   12.3770 O.2    47  GLY47      -0.2714
     74  N         53.2460 -160.0340   13.0690 N.am   48  GLY48      -0.1939
     75  CA        54.0150 -160.5330   14.2020 C.3    48  GLY48       0.2014
     76  C         55.2360 -161.3050   13.7370 C.2    48  GLY48       0.2639
     77  O         55.1200 -162.2520   12.9540 O.2    48  GLY48      -0.2714
     78  N         56.4090 -160.8910   14.2110 N.am   49  ALA49      -0.1963
     79  CA        57.6740 -161.5110   13.8140 C.3    49  ALA49       0.1728
     80  C         57.6970 -163.0050   14.1270 C.2    49  ALA49       0.2616
     81  O         58.0480 -163.8190   13.2720 O.2    49  ALA49      -0.2715
     82  CB        58.8450 -160.8060   14.4850 C.3    49  ALA49       0.0334
     83  N         57.3090 -163.3540   15.3490 N.am   50  ALA50      -0.1977
     84  CA        57.2700 -164.7500   15.7850 C.3    50  ALA50       0.1597
     85  C         56.2010 -165.5510   15.0510 C.2    50  ALA50       0.2287
     86  O         56.4750 -166.6420   14.5510 O.2    50  ALA50      -0.2864
     87  CB        57.0260 -164.8220   17.2800 C.3    50  ALA50       0.0319
     88  N         54.7600 -165.0620   12.1370 N.3    52  CYS52      -0.1235
     89  CA        55.1600 -165.2780   10.7520 C.3    52  CYS52       0.1677
     90  C         56.2640 -166.3170   10.6540 C.2    52  CYS52       0.2270
     91  O         56.1250 -167.3140    9.9460 O.2    52  CYS52      -0.2867
     92  CB        55.6400 -163.9690   10.1230 C.3    52  CYS52       0.0956
     93  SG        54.3080 -162.8350    9.6840 S.3    52  CYS52      -0.0801
     94  N         51.8010 -154.8570    4.5140 N.3   130  GLY130     -0.1210
     95  CA        52.5130 -154.2730    5.6450 C.3   130  GLY130      0.1956
     96  C         52.1540 -152.8150    5.8650 C.2   130  GLY130      0.2612
     97  O         51.3970 -152.2220    5.0950 O.2   130  GLY130     -0.2717
     98  N         52.7160 -152.2390    6.9240 N.am  131  SER131     -0.1952
     99  CA        52.5000 -150.8340    7.2700 C.3   131  SER131      0.1924
    100  C         52.9030 -149.8720    6.1530 C.2   131  SER131      0.2314
    101  O         52.3720 -148.7640    6.0650 O.2   131  SER131     -0.2863
    102  CB        53.2880 -150.4850    8.5300 C.3   131  SER131      0.2116
    103  OG        54.6760 -150.6810    8.3200 O.3   131  SER131     -0.2180
    104  N         58.1360 -147.2560    9.8790 N.3   170  TYR170     -0.1241
    105  CA        58.2410 -148.6490   10.3110 C.3   170  TYR170      0.1605
    106  C         58.7140 -149.6030    9.2110 C.2   170  TYR170      0.2264
    107  O         58.5470 -150.8100    9.3280 O.2   170  TYR170     -0.2867
    108  CB        56.8940 -149.1060   10.8810 C.3   170  TYR170      0.0534
    109  CG        56.4190 -148.2210   12.0120 C.ar  170  TYR170     -0.0201
    110  CD1       57.2240 -147.9980   13.1240 C.ar  170  TYR170     -0.0009
    111  CD2       55.1760 -147.5970   11.9690 C.ar  170  TYR170     -0.0009
    112  CE1       56.8090 -147.1850   14.1600 C.ar  170  TYR170      0.0417
    113  CE2       54.7510 -146.7820   13.0060 C.ar  170  TYR170      0.0417
    114  CZ        55.5720 -146.5790   14.0970 C.ar  170  TYR170      0.1957
    115  OH        55.1580 -145.7710   15.1320 O.3   170  TYR170     -0.2866
@<TRIPOS>BOND
     1    51    50    2
     2    94    95    1
     3    50    49    1
     4    57    58    1
     5    97    96    2
     6    52    49    1
     7    52    53    1
     8    95    96    1
     9    49    48    1
    10    96    98   am
    11     4     3    2
    12     3     2    1
    13   101   100    2
    14   100    99    1
    15    60    59    2
    16    58    59    1
    17    58    61    1
    18     7     5    1
    19    59    65   am
    20    69    66    1
    21    54    53    1
    22    54    55    1
    23    98    99    1
    24    44    43    2
    25    65    66    1
    26    62    61    1
    27    62    63    1
    28    99   102    1
    29     2     5    1
    30     2     1    1
    31     5     6    1
    32    64    63    1
    33    66    67    1
    34    56    55    1
    35    43    42    1
    36   103   102    1
    37     8     9    1
    38    68    67    2
    39    67    70   am
    40   106   107    2
    41   106   105    1
    42    41    42    1
    43    42    45    1
    44    12     9    1
    45    12    13    1
    46     9    10    1
    47    93    92    1
    48    18    16    1
    49    46    45    1
    50    70    71    1
    51   104   105    1
    52    91    90    2
    53    45    47    1
    54    16    15    2
    55    16    17    1
    56    92    89    1
    57    11    10    2
    58    15    14    1
    59   105   108    1
    60    10    19   am
    61    90    89    1
    62    14    13    1
    63    89    88    1
    64   108   109    1
    65    71    72    1
    66    19    20    1
    67   111   109   ar
    68   111   113   ar
    69   109   110   ar
    70    72    73    2
    71    72    74   am
    72    20    23    1
    73    20    21    1
    74    77    76    2
    75   113   114   ar
    76    74    75    1
    77   110   112   ar
    78    81    80    2
    79    30    28    1
    80    76    75    1
    81    76    78   am
    82    79    80    1
    83    79    78    1
    84    79    82    1
    85    21    24   am
    86    21    22    2
    87   114   112   ar
    88   114   115    1
    89    80    83   am
    90    29    28    1
    91    24    25    1
    92    86    85    2
    93    28    25    1
    94    85    84    1
    95    83    84    1
    96    25    26    1
    97    84    87    1
    98    38    39    2
    99    38    37    1
   100    27    26    2
   101    36    37    1
   102    26    31   am
   103    37    40    1
   104    31    32    1
   105    32    33    1
   106    32    35    1
   107    33    34    2
