@<TRIPOS>MOLECULE
tmp/4y8hN00.pdb
 124 115 0 0 0
SMALL
GASTEIGER

@<TRIPOS>ATOM
      1  N         43.4790 -142.7090   62.7900 N.3     1  THR1       -0.1218
      2  CA        43.3040 -142.0840   64.1450 C.3     1  THR1        0.1862
      3  C         42.3650 -142.6700   65.2100 C.2     1  THR1        0.2287
      4  O         41.3640 -143.2490   64.9110 O.2     1  THR1       -0.2866
      5  CB        42.7960 -140.6920   63.8860 C.3     1  THR1        0.1770
      6  OG1       43.7660 -140.1090   63.1600 O.3     1  THR1       -0.2211
      7  CG2       42.5650 -139.8300   65.0860 C.3     1  THR1        0.0375
      8  N         49.5000 -141.0390   65.8230 N.3    19  ARG19      -0.1231
      9  CA        49.8980 -141.6970   64.5790 C.3    19  ARG19       0.1694
     10  C         49.3520 -141.0030   63.3360 C.2    19  ARG19       0.2593
     11  O         48.1520 -140.7610   63.2250 O.2    19  ARG19      -0.2718
     12  CB        49.4520 -143.1560   64.5890 C.3    19  ARG19       0.0321
     13  CG        49.8430 -143.9250   63.3400 C.3    19  ARG19       0.0489
     14  CD        49.7040 -145.4180   63.5520 C.3    19  ARG19       0.2205
     15  NE        50.7290 -145.9400   64.4500 N.pl3  19  ARG19      -0.0865
     16  CZ        50.8970 -147.2280   64.7370 C.cat  19  ARG19       0.5346
     17  NH1       50.1100 -148.1500   64.1940 N.pl3  19  ARG19       0.1354
     18  NH2       51.8660 -147.5990   65.5640 N.pl3  19  ARG19       0.1354
     19  N         50.2400 -140.7080   62.4030 N.am   20  THR20      -0.1939
     20  CA        49.8970 -140.2520   61.0700 C.3    20  THR20       0.2028
     21  C         50.2970 -141.2850   60.0290 C.2    20  THR20       0.2643
     22  O         51.3630 -141.8020   60.0160 O.2    20  THR20      -0.2714
     23  CB        50.5410 -138.9130   60.6910 C.3    20  THR20       0.1808
     24  OG1       50.1190 -137.9050   61.5780 O.3    20  THR20      -0.2208
     25  CG2       50.1100 -138.4970   59.3480 C.3    20  THR20       0.0379
     26  N         49.3740 -141.5540   59.1590 N.am   21  THR21      -0.1936
     27  CA        49.4740 -142.6580   58.2710 C.3    21  THR21       0.2028
     28  C         49.5440 -142.2290   56.8270 C.2    21  THR21       0.2643
     29  O         48.8810 -141.3430   56.4080 O.2    21  THR21      -0.2714
     30  CB        48.3440 -143.6460   58.6110 C.3    21  THR21       0.1808
     31  OG1       48.8960 -144.9230   58.8360 O.3    21  THR21      -0.2208
     32  CG2       47.2340 -143.6930   57.6070 C.3    21  THR21       0.0379
     33  N         50.3780 -142.9120   56.0890 N.am   22  THR22      -0.1936
     34  CA        50.5900 -142.6680   54.6900 C.3    22  THR22       0.2028
     35  C         50.5240 -144.0600   54.0610 C.2    22  THR22       0.2642
     36  O         51.4930 -144.6660   53.7460 O.2    22  THR22      -0.2714
     37  CB        51.8750 -141.8220   54.5520 C.3    22  THR22       0.1808
     38  OG1       51.5410 -140.5490   54.0340 O.3    22  THR22      -0.2208
     39  CG2       52.9340 -142.3950   53.7420 C.3    22  THR22       0.0379
     40  N         49.3310 -144.6090   53.9650 N.am   23  GLY23      -0.1954
     41  CA        49.2520 -145.9890   53.6130 C.3    23  GLY23       0.1869
     42  C         49.3900 -146.8040   54.8540 C.2    23  GLY23       0.2309
     43  O         48.7940 -146.5310   55.8390 O.2    23  GLY23      -0.2863
     44  N         53.8740 -142.1280   58.8250 N.3    27  ALA27      -0.1245
     45  CA        54.5820 -140.9090   58.4270 C.3    27  ALA27       0.1562
     46  C         55.0350 -140.0840   59.6260 C.2    27  ALA27       0.2260
     47  O         56.0330 -139.3740   59.5490 O.2    27  ALA27      -0.2867
     48  CB        53.7050 -140.0640   57.5190 C.3    27  ALA27       0.0290
     49  N         52.6310 -137.3380   66.3260 N.3    31  THR31      -0.1218
     50  CA        51.7180 -136.2710   65.9140 C.3    31  THR31       0.1862
     51  C         50.9530 -135.6830   67.0970 C.2    31  THR31       0.2287
     52  O         50.6720 -136.3860   68.0670 O.2    31  THR31      -0.2866
     53  CB        50.6830 -136.8060   64.9010 C.3    31  THR31       0.1770
     54  OG1       51.3390 -137.6440   63.9420 O.3    31  THR31      -0.2211
     55  CG2       49.9700 -135.6660   64.1780 C.3    31  THR31       0.0375
     56  N         47.4430 -134.2570   67.6270 N.3    33  LYS33      -0.1245
     57  CA        46.1150 -134.1610   67.0190 C.3    33  LYS33       0.1561
     58  C         45.1590 -133.2870   67.8370 C.2    33  LYS33       0.2260
     59  O         44.0320 -133.0290   67.4140 O.2    33  LYS33      -0.2867
     60  CB        45.5220 -135.5630   66.8420 C.3    33  LYS33       0.0271
     61  CG        46.4390 -136.5190   66.0930 C.3    33  LYS33       0.0035
     62  CD        45.8090 -137.8850   65.9010 C.3    33  LYS33       0.0206
     63  CE        46.7740 -138.8280   65.2070 C.3    33  LYS33       0.1093
     64  NZ        46.1010 -140.0810   64.7790 N.3    33  LYS33      -0.1314
     65  N         41.4590 -133.6800   66.0340 N.3    45  ARG45      -0.1231
     66  CA        41.4010 -133.7900   64.5810 C.3    45  ARG45       0.1694
     67  C         41.5070 -135.2440   64.1240 C.2    45  ARG45       0.2593
     68  O         42.3580 -135.9910   64.6090 O.2    45  ARG45      -0.2718
     69  CB        42.5270 -132.9640   63.9530 C.3    45  ARG45       0.0321
     70  CG        42.4260 -131.4770   64.2500 C.3    45  ARG45       0.0489
     71  CD        43.5240 -130.6780   63.5670 C.3    45  ARG45       0.2205
     72  NE        44.8520 -131.0210   64.0770 N.pl3  45  ARG45      -0.0865
     73  CZ        45.7750 -131.7330   63.4280 C.cat  45  ARG45       0.5346
     74  NH1       45.5510 -132.2240   62.2090 N.pl3  45  ARG45       0.1354
     75  NH2       46.9460 -131.9630   64.0160 N.pl3  45  ARG45       0.1354
     76  N         40.6260 -135.6340   63.2030 N.am   46  SER46      -0.1938
     77  CA        40.7210 -136.9260   62.5170 C.3    46  SER46       0.2055
     78  C         40.3300 -136.7790   61.0490 C.2    46  SER46       0.2644
     79  O         39.6250 -135.8400   60.6750 O.2    46  SER46      -0.2714
     80  CB        39.8360 -137.9810   63.1850 C.3    46  SER46       0.2130
     81  OG        38.4700 -137.7930   62.8610 O.3    46  SER46      -0.2179
     82  N         40.7850 -137.7250   60.2320 N.am   47  GLY47      -0.1939
     83  CA        40.5570 -137.6930   58.7900 C.3    47  GLY47       0.2014
     84  C         41.8090 -137.2340   58.0670 C.2    47  GLY47       0.2640
     85  O         42.9090 -137.6890   58.3730 O.2    47  GLY47      -0.2714
     86  N         41.6430 -136.3310   57.1060 N.am   48  SER48      -0.1935
     87  CA        42.7760 -135.7700   56.3750 C.3    48  SER48       0.2055
     88  C         43.5580 -134.8030   57.2550 C.2    48  SER48       0.2643
     89  O         42.9760 -133.9080   57.8740 O.2    48  SER48      -0.2714
     90  CB        42.2990 -135.0370   55.1200 C.3    48  SER48       0.2130
     91  OG        43.3500 -134.2870   54.5310 O.3    48  SER48      -0.2179
     92  N         44.8750 -134.9850   57.3040 N.am   49  ALA49      -0.1963
     93  CA        45.7450 -134.1030   58.0780 C.3    49  ALA49       0.1728
     94  C         45.7440 -132.6900   57.5060 C.2    49  ALA49       0.2616
     95  O         45.7040 -131.7130   58.2500 O.2    49  ALA49      -0.2715
     96  CB        47.1620 -134.6550   58.1150 C.3    49  ALA49       0.0334
     97  N         45.7770 -132.5910   56.1810 N.am   50  ALA50      -0.1977
     98  CA        45.7840 -131.2980   55.5010 C.3    50  ALA50       0.1597
     99  C         44.4660 -130.5470   55.6860 C.2    50  ALA50       0.2287
    100  O         44.4640 -129.3580   56.0100 O.2    50  ALA50      -0.2864
    101  CB        46.0790 -131.4850   54.0220 C.3    50  ALA50       0.0319
    102  N         42.0820 -130.9670   58.0610 N.3    52  THR52      -0.1218
    103  CA        41.8270 -130.6080   59.4610 C.3    52  THR52       0.1862
    104  C         42.7280 -129.4790   59.9650 C.2    52  THR52       0.2287
    105  O         42.2940 -128.6610   60.7770 O.2    52  THR52      -0.2866
    106  CB        41.9630 -131.8170   60.4090 C.3    52  THR52       0.1770
    107  OG1       43.2550 -132.4180   60.2540 O.3    52  THR52      -0.2211
    108  CG2       40.8750 -132.8410   60.1280 C.3    52  THR52       0.0375
    109  N         37.3360 -141.2370   64.8920 N.3   128  GLY128     -0.1210
    110  CA        38.5170 -141.8000   64.2510 C.3   128  GLY128      0.1956
    111  C         38.3320 -143.2870   64.0140 C.2   128  GLY128      0.2612
    112  O         37.4830 -143.9240   64.6410 O.2   128  GLY128     -0.2717
    113  N         39.1350 -143.8380   63.1060 N.am  129  SER129     -0.1952
    114  CA        39.0570 -145.2540   62.7350 C.3   129  SER129      0.1924
    115  C         39.0740 -146.1920   63.9430 C.2   129  SER129      0.2314
    116  O         38.3290 -147.1720   63.9830 O.2   129  SER129     -0.2863
    117  CB        40.2090 -145.6180   61.7950 C.3   129  SER129      0.2116
    118  OG        41.4650 -145.3500   62.3920 O.3   129  SER129     -0.2180
    119  N         45.7540 -148.2870   62.4270 N.3   168  SER168     -0.1217
    120  CA        45.8760 -146.8680   62.0880 C.3   168  SER168      0.1889
    121  C         45.9260 -145.9610   63.3210 C.2   168  SER168      0.2288
    122  O         45.7490 -144.7530   63.2020 O.2   168  SER168     -0.2866
    123  CB        44.7110 -146.4370   61.1910 C.3   168  SER168      0.2089
    124  OG        44.5370 -147.3370   60.1110 O.3   168  SER168     -0.2183
@<TRIPOS>BOND
     1    41    40    1
     2    41    42    1
     3    39    37    1
     4    36    35    2
     5    40    35   am
     6   101    98    1
     7    38    37    1
     8    35    34    1
     9    91    90    1
    10    37    34    1
    11    34    33    1
    12    42    43    2
    13    90    87    1
    14    98    99    1
    15    98    97    1
    16    99   100    2
    17    33    28   am
    18    97    94   am
    19    87    86    1
    20    87    88    1
    21    29    28    2
    22    28    27    1
    23    86    84   am
    24    88    92   am
    25    88    89    2
    26    92    93    1
    27    94    93    1
    28    94    95    2
    29    48    45    1
    30    32    30    1
    31   102   103    1
    32    84    85    2
    33    84    83    1
    34    93    96    1
    35    27    30    1
    36    27    26    1
    37    45    44    1
    38    45    46    1
    39    30    31    1
    40    83    82    1
    41    26    21   am
    42    25    23    1
    43   103   104    1
    44   103   106    1
    45    47    46    2
    46   104   105    2
    47    22    21    2
    48    21    20    1
    49   124   123    1
    50   108   106    1
    51    82    78   am
    52   107   106    1
    53    79    78    2
    54    23    20    1
    55    23    24    1
    56    78    77    1
    57    20    19    1
    58   123   120    1
    59   117   118    1
    60   117   114    1
    61   120   119    1
    62   120   121    1
    63    74    73    1
    64    19    10   am
    65    77    80    1
    66    77    76    1
    67   114   113    1
    68   114   115    1
    69     1     2    1
    70    81    80    1
    71   113   111   am
    72     6     5    1
    73   122   121    2
    74    76    67   am
    75    11    10    2
    76    10     9    1
    77    13    14    1
    78    13    12    1
    79    73    75    1
    80    73    72    2
    81    14    15    1
    82    71    72    1
    83    71    70    1
    84     5     2    1
    85     5     7    1
    86    54    53    1
    87   115   116    2
    88    69    70    1
    89    69    66    1
    90   111   110    1
    91   111   112    2
    92    67    66    1
    93    67    68    2
    94     2     3    1
    95    55    53    1
    96    17    16    1
    97   110   109    1
    98    15    16    2
    99     9    12    1
   100     9     8    1
   101    66    65    1
   102    16    18    1
   103    64    63    1
   104    53    50    1
   105     4     3    2
   106    63    62    1
   107    62    61    1
   108    50    49    1
   109    50    51    1
   110    61    60    1
   111    60    57    1
   112    57    56    1
   113    57    58    1
   114    51    52    2
   115    59    58    2
