@<TRIPOS>MOLECULE
tmp/4y8iN00.pdb
 127 117 0 0 0
SMALL
GASTEIGER

@<TRIPOS>ATOM
      1  N         44.2620 -141.9670   62.9500 N.3     1  THR1       -0.1218
      2  CA        44.0430 -141.3350   64.2910 C.3     1  THR1        0.1862
      3  C         43.0370 -141.8980   65.3500 C.2     1  THR1        0.2287
      4  O         41.9900 -142.3600   65.0180 O.2     1  THR1       -0.2866
      5  CB        43.6120 -139.9210   64.0070 C.3     1  THR1        0.1770
      6  OG1       44.5990 -139.3340   63.2580 O.3     1  THR1       -0.2211
      7  CG2       43.4150 -139.0750   65.2340 C.3     1  THR1        0.0375
      8  N         50.4080 -140.4690   65.9130 N.3    19  ARG19      -0.1231
      9  CA        50.7700 -141.1180   64.6500 C.3    19  ARG19       0.1694
     10  C         50.1960 -140.3990   63.4300 C.2    19  ARG19       0.2593
     11  O         49.0240 -140.0400   63.4070 O.2    19  ARG19      -0.2718
     12  CB        50.2910 -142.5690   64.6470 C.3    19  ARG19       0.0321
     13  CG        50.6140 -143.3250   63.3690 C.3    19  ARG19       0.0489
     14  CD        50.4720 -144.8240   63.5610 C.3    19  ARG19       0.2205
     15  NE        51.5340 -145.3670   64.4080 N.pl3  19  ARG19      -0.0865
     16  CZ        51.6880 -146.6570   64.6970 C.cat  19  ARG19       0.5346
     17  NH1       50.8500 -147.5680   64.2070 N.pl3  19  ARG19       0.1354
     18  NH2       52.6930 -147.0420   65.4740 N.pl3  19  ARG19       0.1354
     19  N         51.0250 -140.1990   62.4260 N.am   20  THR20      -0.1939
     20  CA        50.6270 -139.6850   61.1410 C.3    20  THR20       0.2028
     21  C         51.0300 -140.6740   60.0840 C.2    20  THR20       0.2643
     22  O         52.0770 -141.2060   60.1100 O.2    20  THR20      -0.2714
     23  CB        51.2520 -138.3320   60.8310 C.3    20  THR20       0.1808
     24  OG1       50.8510 -137.4080   61.8190 O.3    20  THR20      -0.2208
     25  CG2       50.7830 -137.8190   59.5370 C.3    20  THR20       0.0379
     26  N         50.1530 -140.8830   59.1400 N.am   21  THR21      -0.1936
     27  CA        50.2190 -141.9760   58.2350 C.3    21  THR21       0.2028
     28  C         50.3420 -141.5040   56.8020 C.2    21  THR21       0.2642
     29  O         49.6980 -140.5910   56.4270 O.2    21  THR21      -0.2714
     30  CB        48.9890 -142.8470   58.5430 C.3    21  THR21       0.1808
     31  OG1       49.4200 -144.0920   59.0540 O.3    21  THR21      -0.2208
     32  CG2       48.0340 -143.0410   57.4160 C.3    21  THR21       0.0379
     33  N         51.1880 -142.1420   56.0190 N.am   22  THR22      -0.1950
     34  CA        51.1220 -142.0550   54.5780 C.3    22  THR22       0.1897
     35  C         51.1250 -143.4510   54.0430 C.2    22  THR22       0.2313
     36  O         52.1170 -143.9610   53.6240 O.2    22  THR22      -0.2863
     37  CB        52.2600 -141.2820   53.9300 C.3    22  THR22       0.1794
     38  OG1       53.4740 -141.5990   54.5690 O.3    22  THR22      -0.2208
     39  CG2       52.0330 -139.8390   54.0010 C.3    22  THR22       0.0378
     40  N         54.6710 -141.4670   58.7650 N.3    27  ALA27      -0.1245
     41  CA        55.3670 -140.2400   58.3620 C.3    27  ALA27       0.1562
     42  C         55.8360 -139.4160   59.5600 C.2    27  ALA27       0.2260
     43  O         56.8420 -138.7110   59.4770 O.2    27  ALA27      -0.2867
     44  CB        54.4720 -139.3970   57.4690 C.3    27  ALA27       0.0290
     45  N         53.5420 -136.7930   66.3920 N.3    31  THR31      -0.1218
     46  CA        52.6350 -135.7200   65.9750 C.3    31  THR31       0.1862
     47  C         51.8860 -135.1170   67.1630 C.2    31  THR31       0.2287
     48  O         51.6250 -135.8070   68.1550 O.2    31  THR31      -0.2866
     49  CB        51.5760 -136.2370   64.9760 C.3    31  THR31       0.1770
     50  OG1       52.1580 -137.2190   64.1090 O.3    31  THR31      -0.2211
     51  CG2       51.0090 -135.0960   64.1420 C.3    31  THR31       0.0375
     52  N         48.3410 -133.6240   67.7330 N.3    33  LYS33      -0.1245
     53  CA        47.0000 -133.4880   67.1660 C.3    33  LYS33       0.1561
     54  C         46.0800 -132.6380   68.0390 C.2    33  LYS33       0.2260
     55  O         44.9370 -132.3750   67.6640 O.2    33  LYS33      -0.2867
     56  CB        46.3890 -134.8740   66.9700 C.3    33  LYS33       0.0271
     57  CG        47.2380 -135.7780   66.0960 C.3    33  LYS33       0.0035
     58  CD        46.6760 -137.1820   66.0210 C.3    33  LYS33       0.0206
     59  CE        47.6090 -138.0840   65.2350 C.3    33  LYS33       0.1093
     60  NZ        46.9850 -139.4020   64.9470 N.3    33  LYS33      -0.1314
     61  N         42.2980 -133.1110   66.2290 N.3    45  ARG45      -0.1231
     62  CA        42.2250 -133.2050   64.7730 C.3    45  ARG45       0.1694
     63  C         42.3080 -134.6510   64.2950 C.2    45  ARG45       0.2593
     64  O         43.1820 -135.4080   64.7230 O.2    45  ARG45      -0.2718
     65  CB        43.3430 -132.3810   64.1320 C.3    45  ARG45       0.0321
     66  CG        43.2450 -130.8930   64.4280 C.3    45  ARG45       0.0489
     67  CD        44.3300 -130.0920   63.7270 C.3    45  ARG45       0.2205
     68  NE        45.6720 -130.4610   64.1810 N.pl3  45  ARG45      -0.0865
     69  CZ        46.5570 -131.1740   63.4860 C.cat  45  ARG45       0.5346
     70  NH1       46.2800 -131.6330   62.2670 N.pl3  45  ARG45       0.1354
     71  NH2       47.7440 -131.4350   64.0230 N.pl3  45  ARG45       0.1354
     72  N         41.3820 -135.0240   63.4130 N.am   46  SER46      -0.1938
     73  CA        41.4180 -136.3160   62.7270 C.3    46  SER46       0.2055
     74  C         41.0210 -136.1300   61.2650 C.2    46  SER46       0.2644
     75  O         40.3280 -135.1700   60.9190 O.2    46  SER46      -0.2714
     76  CB        40.4860 -137.3250   63.4010 C.3    46  SER46       0.2130
     77  OG        39.1410 -137.1430   62.9900 O.3    46  SER46      -0.2179
     78  N         41.4580 -137.0590   60.4200 N.am   47  GLY47      -0.1939
     79  CA        41.2090 -136.9940   58.9810 C.3    47  GLY47       0.2014
     80  C         42.4640 -136.5670   58.2420 C.2    47  GLY47       0.2640
     81  O         43.5570 -137.0490   58.5360 O.2    47  GLY47      -0.2714
     82  N         42.3070 -135.6620   57.2790 N.am   48  SER48      -0.1935
     83  CA        43.4420 -135.1310   56.5270 C.3    48  SER48       0.2055
     84  C         44.2460 -134.1660   57.3920 C.2    48  SER48       0.2643
     85  O         43.6820 -133.2710   58.0250 O.2    48  SER48      -0.2714
     86  CB        42.9650 -134.4230   55.2540 C.3    48  SER48       0.2130
     87  OG        43.9580 -133.5490   54.7360 O.3    48  SER48      -0.2179
     88  N         45.5630 -134.3590   57.4140 N.am   49  ALA49      -0.1963
     89  CA        46.4620 -133.4910   58.1750 C.3    49  ALA49       0.1728
     90  C         46.4630 -132.0770   57.6040 C.2    49  ALA49       0.2616
     91  O         46.4430 -131.0980   58.3530 O.2    49  ALA49      -0.2715
     92  CB        47.8730 -134.0590   58.1750 C.3    49  ALA49       0.0334
     93  N         46.4790 -131.9820   56.2770 N.am   50  ALA50      -0.1977
     94  CA        46.4720 -130.6920   55.5910 C.3    50  ALA50       0.1597
     95  C         45.1630 -129.9390   55.8240 C.2    50  ALA50       0.2287
     96  O         45.1740 -128.7540   56.1610 O.2    50  ALA50      -0.2864
     97  CB        46.7110 -130.8870   54.1010 C.3    50  ALA50       0.0319
     98  N         42.8160 -130.3590   58.2270 N.3    52  THR52      -0.1218
     99  CA        42.5910 -130.0020   59.6310 C.3    52  THR52       0.1862
    100  C         43.5090 -128.8740   60.1000 C.2    52  THR52       0.2287
    101  O         43.1090 -128.0550   60.9260 O.2    52  THR52      -0.2866
    102  CB        42.7500 -131.2130   60.5710 C.3    52  THR52       0.1770
    103  OG1       44.0310 -131.8240   60.3690 O.3    52  THR52      -0.2211
    104  CG2       41.6460 -132.2280   60.3250 C.3    52  THR52       0.0375
    105  N         38.1870 -133.4830   54.3110 N.3    94  THR94      -0.1218
    106  CA        38.1610 -134.7060   55.0990 C.3    94  THR94       0.1862
    107  C         38.7020 -134.3280   56.4750 C.2    94  THR94       0.2287
    108  O         39.9080 -134.3860   56.7230 O.2    94  THR94      -0.2866
    109  CB        39.0090 -135.8170   54.4490 C.3    94  THR94       0.1770
    110  OG1       38.5840 -136.0100   53.0930 O.3    94  THR94      -0.2211
    111  CG2       38.8670 -137.1320   55.2100 C.3    94  THR94       0.0375
    112  N         38.0770 -140.4740   65.1100 N.3   128  GLY128     -0.1210
    113  CA        39.2340 -141.0580   64.4450 C.3   128  GLY128      0.1956
    114  C         39.0140 -142.5370   64.1900 C.2   128  GLY128      0.2612
    115  O         38.1250 -143.1530   64.7830 O.2   128  GLY128     -0.2717
    116  N         39.8340 -143.1090   63.3110 N.am  129  SER129     -0.1952
    117  CA        39.7100 -144.5190   62.9300 C.3   129  SER129      0.1924
    118  C         39.7510 -145.4660   64.1310 C.2   129  SER129      0.2314
    119  O         39.0430 -146.4710   64.1570 O.2   129  SER129     -0.2863
    120  CB        40.8120 -144.9020   61.9390 C.3   129  SER129      0.2116
    121  OG        42.0980 -144.7040   62.5020 O.3   129  SER129     -0.2180
    122  N         46.5070 -147.5910   62.4390 N.3   168  SER168     -0.1217
    123  CA        46.6500 -146.1760   62.1080 C.3   168  SER168      0.1889
    124  C         46.8300 -145.2860   63.3430 C.2   168  SER168      0.2288
    125  O         46.9080 -144.0690   63.2080 O.2   168  SER168     -0.2866
    126  CB        45.4330 -145.6990   61.3140 C.3   168  SER168      0.2089
    127  OG        45.1210 -146.5990   60.2650 O.3   168  SER168     -0.2183
@<TRIPOS>BOND
     1   110   109    1
     2    36    35    2
     3    37    39    1
     4    37    38    1
     5    37    34    1
     6    35    34    1
     7    97    94    1
     8   105   106    1
     9   109   106    1
    10   109   111    1
    11    34    33    1
    12    87    86    1
    13   106   107    1
    14    86    83    1
    15    94    95    1
    16    94    93    1
    17    95    96    2
    18    33    28   am
    19    93    90   am
    20    29    28    2
    21   107   108    2
    22    83    82    1
    23    83    84    1
    24    28    27    1
    25    82    80   am
    26    84    88   am
    27    84    85    2
    28    88    89    1
    29    32    30    1
    30    44    41    1
    31    90    89    1
    32    90    91    2
    33    92    89    1
    34    98    99    1
    35    27    30    1
    36    27    26    1
    37    80    81    2
    38    80    79    1
    39    41    40    1
    40    41    42    1
    41    30    31    1
    42    79    78    1
    43    26    21   am
    44    43    42    2
    45    25    23    1
    46    99   100    1
    47    99   102    1
    48    21    22    2
    49    21    20    1
    50   100   101    2
    51   127   126    1
    52   104   102    1
    53   103   102    1
    54    78    74   am
    55    23    20    1
    56    23    24    1
    57    75    74    2
    58    20    19    1
    59    74    73    1
    60   126   123    1
    61   120   121    1
    62   120   117    1
    63   123   122    1
    64   123   124    1
    65    70    69    1
    66    19    10   am
    67    73    76    1
    68    73    72    1
    69   117   116    1
    70   117   118    1
    71     1     2    1
    72    77    76    1
    73   125   124    2
    74     6     5    1
    75   116   114   am
    76    13    14    1
    77    13    12    1
    78    11    10    2
    79    72    63   am
    80    10     9    1
    81    69    71    1
    82    69    68    2
    83    14    15    1
    84    67    68    1
    85    67    66    1
    86     5     2    1
    87     5     7    1
    88    50    49    1
    89   118   119    2
    90    65    66    1
    91    65    62    1
    92    51    49    1
    93   114   113    1
    94   114   115    2
    95    17    16    1
    96     2     3    1
    97    63    64    2
    98    63    62    1
    99    15    16    2
   100   113   112    1
   101    12     9    1
   102     9     8    1
   103    16    18    1
   104    62    61    1
   105    60    59    1
   106    49    46    1
   107     4     3    2
   108    59    58    1
   109    46    45    1
   110    46    47    1
   111    58    57    1
   112    57    56    1
   113    56    53    1
   114    47    48    2
   115    53    52    1
   116    53    54    1
   117    55    54    2
