@<TRIPOS>MOLECULE
tmp/4y8jV00.pdb
 133 124 0 0 0
SMALL
GASTEIGER

@<TRIPOS>ATOM
      1  N          5.4430 -159.4710   43.4840 N.3     1  THR1       -0.1218
      2  CA         4.6440 -160.3360   44.4080 C.3     1  THR1        0.1862
      3  C          4.6220 -160.0320   45.9210 C.2     1  THR1        0.2287
      4  O          5.6260 -159.6920   46.4860 O.2     1  THR1       -0.2866
      5  CB         5.2330 -161.6990   44.2830 C.3     1  THR1        0.1770
      6  OG1        5.1260 -162.0560   42.9380 O.3     1  THR1       -0.2211
      7  CG2        4.5760 -162.7650   45.1160 C.3     1  THR1        0.0375
      8  N         -0.8960 -161.2410   40.9550 N.3    19  ARG19      -0.1231
      9  CA        -0.3910 -160.3410   39.9100 C.3    19  ARG19       0.1694
     10  C          0.9720 -160.7900   39.3840 C.2    19  ARG19       0.2593
     11  O          1.8580 -161.1480   40.1590 O.2    19  ARG19      -0.2718
     12  CB        -0.2840 -158.9030   40.4320 C.3    19  ARG19       0.0321
     13  CG         0.3030 -157.9230   39.4210 C.3    19  ARG19       0.0489
     14  CD         0.2980 -156.4920   39.9330 C.3    19  ARG19       0.2205
     15  NE        -1.0500 -155.9360   40.0230 N.pl3  19  ARG19      -0.0865
     16  CZ        -1.3300 -154.6750   40.3490 C.cat  19  ARG19       0.5346
     17  NH1       -0.3570 -153.8110   40.6220 N.pl3  19  ARG19       0.1354
     18  NH2       -2.5950 -154.2750   40.4020 N.pl3  19  ARG19       0.1354
     19  N          1.1310 -160.7490   38.0630 N.am   20  SER20      -0.1938
     20  CA         2.4090 -161.0220   37.4110 C.3    20  SER20       0.2055
     21  C          2.7840 -159.8140   36.5600 C.2    20  SER20       0.2644
     22  O          1.9660 -159.3390   35.7750 O.2    20  SER20      -0.2714
     23  CB         2.2970 -162.2660   36.5320 C.3    20  SER20       0.2130
     24  OG         3.5770 -162.7290   36.1460 O.3    20  SER20      -0.2179
     25  N          4.0080 -159.3150   36.7150 N.am   21  THR21      -0.1936
     26  CA         4.4240 -158.0890   36.0310 C.3    21  THR21       0.2028
     27  C          5.5980 -158.2710   35.0720 C.2    21  THR21       0.2642
     28  O          6.4360 -159.1550   35.2470 O.2    21  THR21      -0.2714
     29  CB         4.8150 -156.9840   37.0330 C.3    21  THR21       0.1808
     30  OG1        5.8920 -157.4420   37.8620 O.3    21  THR21      -0.2208
     31  CG2        3.6210 -156.5890   37.8970 C.3    21  THR21       0.0379
     32  N          5.6320 -157.4120   34.0580 N.am   22  GLN22      -0.1963
     33  CA         6.7770 -157.2640   33.1650 C.3    22  GLN22       0.1733
     34  C          7.0990 -155.7760   33.1160 C.2    22  GLN22       0.2616
     35  O          6.5010 -155.0290   32.3450 O.2    22  GLN22      -0.2715
     36  CB         6.4490 -157.7930   31.7660 C.3    22  GLN22       0.0408
     37  CG         7.5570 -157.6030   30.7340 C.3    22  GLN22       0.0908
     38  CD         8.7560 -158.5040   30.9730 C.2    22  GLN22       0.2608
     39  OE1        9.8040 -158.0500   31.4280 O.2    22  GLN22      -0.2717
     40  NE2        8.6060 -159.7870   30.6630 N.am   22  GLN22      -0.0878
     41  N          8.0370 -155.3500   33.9550 N.am   23  GLY23      -0.1955
     42  CA         8.2790 -153.9310   34.1630 C.3    23  GLY23       0.1869
     43  C          7.0540 -153.3180   34.8260 C.2    23  GLY23       0.2309
     44  O          6.5870 -153.8330   35.8470 O.2    23  GLY23      -0.2863
     45  N          1.1660 -158.4560   33.3090 N.3    27  ALA27      -0.1231
     46  CA         1.1020 -159.5210   32.3090 C.3    27  ALA27       0.1694
     47  C         -0.0470 -160.4870   32.5980 C.2    27  ALA27       0.2592
     48  O         -0.8080 -160.8410   31.6950 O.2    27  ALA27      -0.2718
     49  CB         2.4230 -160.2720   32.2570 C.3    27  ALA27       0.0304
     50  N         -0.1580 -160.9100   33.8570 N.am   28  ASP28      -0.1974
     51  CA        -1.2180 -161.8210   34.2890 C.3    28  ASP28       0.1709
     52  C         -1.9410 -161.2410   35.5020 C.2    28  ASP28       0.2293
     53  O         -1.3130 -160.9110   36.5090 O.2    28  ASP28      -0.2864
     54  CB        -0.6350 -163.1960   34.6290 C.3    28  ASP28       0.1436
     55  CG        -1.6880 -164.2960   34.6560 C.2    28  ASP28       0.3671
     56  OD1       -1.3090 -165.4730   34.4830 O.co2  28  ASP28      -0.2456
     57  OD2       -2.8850 -163.9960   34.8530 O.co2  28  ASP28      -0.2456
     58  N         -2.6960 -165.0580   38.1530 N.3    31  CYS31      -0.1235
     59  CA        -1.7480 -166.1730   38.1040 C.3    31  CYS31       0.1677
     60  C         -1.6690 -166.8770   39.4580 C.2    31  CYS31       0.2270
     61  O         -1.9170 -166.2690   40.5000 O.2    31  CYS31      -0.2867
     62  CB        -0.3590 -165.6950   37.6710 C.3    31  CYS31       0.0956
     63  SG         0.6530 -164.9890   38.9880 S.3    31  CYS31      -0.0801
     64  N          0.3490 -168.4740   42.3340 N.3    33  LYS33      -0.1245
     65  CA         1.6650 -168.4600   42.9730 C.3    33  LYS33       0.1561
     66  C          1.7860 -169.5230   44.0620 C.2    33  LYS33       0.2260
     67  O          2.8620 -169.7080   44.6320 O.2    33  LYS33      -0.2867
     68  CB         1.9500 -167.0760   43.5510 C.3    33  LYS33       0.0271
     69  CG         1.6960 -165.9570   42.5550 C.3    33  LYS33       0.0035
     70  CD         2.1530 -164.6130   43.0810 C.3    33  LYS33       0.0206
     71  CE         1.7440 -163.4950   42.1390 C.3    33  LYS33       0.1093
     72  NZ         2.3310 -162.1920   42.5480 N.3    33  LYS33      -0.1314
     73  N          1.9460 -173.3790   44.9240 N.3    35  HIS35      -0.1241
     74  CA         2.3860 -174.5790   44.2190 C.3    35  HIS35       0.1621
     75  C          2.2950 -175.8060   45.1090 C.2    35  HIS35       0.2264
     76  O          2.6140 -175.7420   46.2930 O.2    35  HIS35      -0.2867
     77  CB         3.8310 -174.4190   43.7620 C.3    35  HIS35       0.0745
     78  CG         4.0690 -173.2050   42.9210 C.ar   35  HIS35       0.0817
     79  ND1        3.7440 -173.1510   41.5820 N.ar   35  HIS35      -0.2268
     80  CD2        4.6090 -172.0020   43.2270 C.ar   35  HIS35       0.1154
     81  CE1        4.0690 -171.9640   41.1020 C.ar   35  HIS35       0.1986
     82  NE2        4.5950 -171.2480   42.0790 N.ar   35  HIS35      -0.2212
     83  N          5.5800 -168.8330   45.9920 N.3    45  GLY45      -0.1210
     84  CA         6.7930 -168.4180   45.2860 C.3    45  GLY45       0.1956
     85  C          6.7650 -167.0050   44.7350 C.2    45  GLY45       0.2612
     86  O          5.8410 -166.6260   44.0160 O.2    45  GLY45      -0.2717
     87  N          7.7880 -166.2300   45.0850 N.am   46  ALA46      -0.1965
     88  CA         8.0240 -164.9090   44.5090 C.3    46  ALA46       0.1728
     89  C          9.3580 -164.9190   43.7750 C.2    46  ALA46       0.2617
     90  O         10.1830 -165.8110   43.9860 O.2    46  ALA46      -0.2715
     91  CB         8.0410 -163.8530   45.6000 C.3    46  ALA46       0.0334
     92  N          9.5690 -163.9190   42.9230 N.am   47  GLY47      -0.1940
     93  CA        10.8050 -163.8030   42.1510 C.3    47  GLY47       0.2014
     94  C         10.5660 -164.0040   40.6670 C.2    47  GLY47       0.2640
     95  O          9.5330 -163.5950   40.1400 O.2    47  GLY47      -0.2714
     96  N         11.5280 -164.6310   39.9950 N.am   48  THR48      -0.1936
     97  CA        11.4030 -164.9460   38.5730 C.3    48  THR48       0.2028
     98  C         10.3580 -166.0500   38.4020 C.2    48  THR48       0.2642
     99  O         10.5230 -167.1560   38.9140 O.2    48  THR48      -0.2714
    100  CB        12.7530 -165.3870   37.9780 C.3    48  THR48       0.1808
    101  OG1       13.7510 -164.4010   38.2750 O.3    48  THR48      -0.2208
    102  CG2       12.6550 -165.5640   36.4660 C.3    48  THR48       0.0379
    103  N          9.2870 -165.7340   37.6800 N.am   49  ALA49      -0.1963
    104  CA         8.0950 -166.5860   37.6270 C.3    49  ALA49       0.1728
    105  C          8.3650 -168.0030   37.1300 C.2    49  ALA49       0.2616
    106  O          7.9230 -168.9740   37.7470 O.2    49  ALA49      -0.2715
    107  CB         7.0170 -165.9310   36.7750 C.3    49  ALA49       0.0334
    108  N          9.0850 -168.1180   36.0180 N.am   50  ALA50      -0.1977
    109  CA         9.4160 -169.4260   35.4560 C.3    50  ALA50       0.1597
    110  C         10.3270 -170.2310   36.3790 C.2    50  ALA50       0.2287
    111  O         10.2390 -171.4580   36.4130 O.2    50  ALA50      -0.2864
    112  CB        10.0660 -169.2710   34.0960 C.3    50  ALA50       0.0319
    113  N         10.4320 -170.0800   39.8320 N.3    52  THR52      -0.1218
    114  CA         9.6520 -170.5920   40.9620 C.3    52  THR52       0.1862
    115  C          8.8050 -171.7930   40.5500 C.2    52  THR52       0.2287
    116  O          8.6620 -172.7410   41.3160 O.2    52  THR52      -0.2866
    117  CB         8.7240 -169.5220   41.5790 C.3    52  THR52       0.1770
    118  OG1        7.7870 -169.0610   40.5970 O.3    52  THR52      -0.2211
    119  CG2        9.5310 -168.3450   42.1220 C.3    52  THR52       0.0375
    120  N          8.7460 -161.3440   48.8790 N.3   128  GLY128     -0.1210
    121  CA         8.3380 -160.6020   47.6900 C.3   128  GLY128      0.1956
    122  C          8.4040 -159.0980   47.8750 C.2   128  GLY128      0.2612
    123  O          8.7310 -158.6090   48.9540 O.2   128  GLY128     -0.2717
    124  N          8.0850 -158.3630   46.8120 N.am  129  SER129     -0.1952
    125  CA         8.1580 -156.9000   46.8280 C.3   129  SER129      0.1924
    126  C          7.1900 -156.2900   47.8390 C.2   129  SER129      0.2314
    127  O          7.4750 -155.2460   48.4230 O.2   129  SER129     -0.2863
    128  CB         7.8870 -156.3270   45.4330 C.3   129  SER129      0.2116
    129  OG         6.6110 -156.7130   44.9590 O.3   129  SER129     -0.2180
    130  N          3.7190 -153.8910   42.9140 N.3   168  GLY168     -0.1225
    131  CA         4.1020 -155.2090   42.4300 C.3   168  GLY168      0.1811
    132  C          3.0430 -156.2620   42.6850 C.2   168  GLY168      0.2280
    133  O          3.0960 -157.3390   42.1050 O.2   168  GLY168     -0.2866
@<TRIPOS>BOND
     1    40    38   am
     2    37    38    1
     3    37    36    1
     4    38    39    2
     5    48    47    2
     6    36    33    1
     7    49    46    1
     8    46    47    1
     9    46    45    1
    10    35    34    2
    11    47    50   am
    12    34    33    1
    13    34    41   am
    14    33    32    1
    15    50    51    1
    16    41    42    1
    17    32    27   am
    18   112   109    1
    19    42    43    1
    20    51    54    1
    21    51    52    1
    22    56    55   ar
    23    54    55    1
    24    55    57   ar
    25    43    44    2
    26    27    28    2
    27    27    26    1
    28   109   108    1
    29   109   110    1
    30    52    53    2
    31    22    21    2
    32   108   105   am
    33    26    25    1
    34    26    29    1
    35    24    23    1
    36   110   111    2
    37   102   100    1
    38    23    20    1
    39    21    25   am
    40    21    20    1
    41   107   104    1
    42    29    30    1
    43    29    31    1
    44   105   104    1
    45   105   106    2
    46    20    19    1
    47   104   103    1
    48    62    59    1
    49    62    63    1
    50   103    98   am
    51   100   101    1
    52   100    97    1
    53    19    10   am
    54    59    58    1
    55    59    60    1
    56    98    97    1
    57    98    99    2
    58    97    96    1
    59    10     9    1
    60    10    11    2
    61    13    14    1
    62    13    12    1
    63    60    61    2
    64   113   114    1
    65     9    12    1
    66     9     8    1
    67    14    15    1
    68    96    94   am
    69    15    16    2
    70    95    94    2
    71    16    18    1
    72    16    17    1
    73   115   114    1
    74   115   116    2
    75   118   117    1
    76    94    93    1
    77   114   117    1
    78    81    79   ar
    79    81    82   ar
    80   117   119    1
    81    79    78   ar
    82    82    80   ar
    83   133   132    2
    84    71    72    1
    85    71    70    1
    86    93    92    1
    87    64    65    1
    88   131   132    1
    89   131   130    1
    90    69    70    1
    91    69    68    1
    92    78    80   ar
    93    78    77    1
    94    92    89   am
    95     6     5    1
    96    65    68    1
    97    65    66    1
    98     1     2    1
    99    77    74    1
   100    89    90    2
   101    89    88    1
   102    86    85    2
   103    66    67    2
   104    74    73    1
   105    74    75    1
   106     5     2    1
   107     5     7    1
   108     2     3    1
   109    88    87    1
   110    88    91    1
   111    85    87   am
   112    85    84    1
   113   129   128    1
   114    75    76    2
   115    84    83    1
   116   128   125    1
   117     3     4    2
   118   124   125    1
   119   124   122   am
   120   125   126    1
   121   121   122    1
   122   121   120    1
   123   126   127    2
   124   122   123    2
