@<TRIPOS>MOLECULE
tmp/4y8jY00.pdb
 131 122 0 0 0
SMALL
GASTEIGER

@<TRIPOS>ATOM
      1  N         56.6360 -152.7700    8.6060 N.3     1  THR1       -0.1218
      2  CA        57.0230 -153.3700    7.2880 C.3     1  THR1        0.1862
      3  C         56.4370 -152.8250    5.9850 C.2     1  THR1        0.2287
      4  O         55.3060 -152.4370    5.9460 O.2     1  THR1       -0.2866
      5  CB        56.5930 -154.8060    7.3410 C.3     1  THR1        0.1770
      6  OG1       57.2770 -155.3750    8.3770 O.3     1  THR1       -0.2211
      7  CG2       56.9430 -155.6250    6.1470 C.3     1  THR1        0.0375
      8  N         63.3230 -154.0030    8.1890 N.3    19  ARG19      -0.1231
      9  CA        63.2400 -153.3400    9.4940 C.3    19  ARG19       0.1694
     10  C         62.2940 -154.0510   10.4590 C.2    19  ARG19       0.2592
     11  O         61.2320 -154.5300   10.0630 O.2    19  ARG19      -0.2718
     12  CB        62.8000 -151.8790    9.3450 C.3    19  ARG19       0.0321
     13  CG        62.7510 -151.1260   10.6720 C.3    19  ARG19       0.0489
     14  CD        62.5780 -149.6270   10.5010 C.3    19  ARG19       0.2205
     15  NE        63.7660 -148.9930    9.9290 N.pl3  19  ARG19      -0.0865
     16  CZ        63.9890 -147.6800    9.8950 C.cat  19  ARG19       0.5346
     17  NH1       63.1110 -146.8230   10.4090 N.pl3  19  ARG19       0.1354
     18  NH2       65.1040 -147.2190    9.3450 N.pl3  19  ARG19       0.1354
     19  N         62.6980 -154.1110   11.7260 N.am   20  ALA20      -0.1966
     20  CA        61.8300 -154.5670   12.8080 C.3    20  ALA20       0.1728
     21  C         61.7210 -153.4520   13.8340 C.2    20  ALA20       0.2617
     22  O         62.7150 -152.8000   14.1560 O.2    20  ALA20      -0.2715
     23  CB        62.3840 -155.8230   13.4580 C.3    20  ALA20       0.0334
     24  N         60.5130 -153.2390   14.3450 N.am   21  THR21      -0.1937
     25  CA        60.2690 -152.1830   15.3190 C.3    21  THR21       0.2028
     26  C         59.5370 -152.7000   16.5520 C.2    21  THR21       0.2642
     27  O         58.8180 -153.6980   16.4940 O.2    21  THR21      -0.2714
     28  CB        59.4500 -151.0310   14.7030 C.3    21  THR21       0.1808
     29  OG1       58.1980 -151.5320   14.2150 O.3    21  THR21      -0.2208
     30  CG2       60.2240 -150.3740   13.5610 C.3    21  THR21       0.0379
     31  N         59.7510 -152.0120   17.6690 N.am   22  ALA22      -0.1963
     32  CA        58.9780 -152.2160   18.8880 C.3    22  ALA22       0.1728
     33  C         58.5260 -150.8420   19.3570 C.2    22  ALA22       0.2616
     34  O         59.2490 -150.1480   20.0720 O.2    22  ALA22      -0.2715
     35  CB        59.8180 -152.9000   19.9490 C.3    22  ALA22       0.0334
     36  N         57.3290 -150.4470   18.9370 N.am   23  GLY23      -0.1955
     37  CA        56.8830 -149.0720   19.0970 C.3    23  GLY23       0.1869
     38  C         57.6970 -148.2090   18.1520 C.2    23  GLY23       0.2309
     39  O         57.7440 -148.4790   16.9530 O.2    23  GLY23      -0.2863
     40  N         64.3260 -151.9550   16.2690 N.3    27  ALA27      -0.1231
     41  CA        64.9200 -153.1310   16.8930 C.3    27  ALA27       0.1694
     42  C         65.9720 -153.7790   16.0110 C.2    27  ALA27       0.2592
     43  O         67.0140 -154.2090   16.5020 O.2    27  ALA27      -0.2718
     44  CB        63.8440 -154.1380   17.2430 C.3    27  ALA27       0.0304
     45  N         65.6970 -153.8510   14.7140 N.am   28  SER28      -0.1952
     46  CA        66.6240 -154.4600   13.7680 C.3    28  SER28       0.1924
     47  C         66.5170 -153.7940   12.4020 C.2    28  SER28       0.2314
     48  O         65.4490 -153.3190   12.0170 O.2    28  SER28      -0.2863
     49  CB        66.3430 -155.9590   13.6470 C.3    28  SER28       0.2116
     50  OG        67.2300 -156.5780   12.7350 O.3    28  SER28      -0.2180
     51  N         66.5080 -157.7880    9.2530 N.3    31  VAL31      -0.1245
     52  CA        65.5690 -158.9110    9.3140 C.3    31  VAL31       0.1561
     53  C         65.3260 -159.5130    7.9280 C.2    31  VAL31       0.2260
     54  O         65.1570 -158.7910    6.9450 O.2    31  VAL31      -0.2867
     55  CB        64.2230 -158.4880    9.9420 C.3    31  VAL31       0.0252
     56  CG1       63.1540 -159.5550    9.7440 C.3    31  VAL31       0.0019
     57  CG2       64.4050 -158.2080   11.4240 C.3    31  VAL31       0.0019
     58  N         62.8180 -161.0020    5.7220 N.3    33  LYS33      -0.1245
     59  CA        61.3560 -161.0520    5.6110 C.3    33  LYS33       0.1561
     60  C         60.8500 -161.9540    4.4860 C.2    33  LYS33       0.2260
     61  O         59.6420 -162.1430    4.3420 O.2    33  LYS33      -0.2867
     62  CB        60.7900 -159.6410    5.4540 C.3    33  LYS33       0.0271
     63  CG        60.9010 -158.8270    6.7310 C.3    33  LYS33       0.0035
     64  CD        60.3650 -157.4200    6.5560 C.3    33  LYS33       0.0206
     65  CE        60.8970 -156.4970    7.6380 C.3    33  LYS33       0.1093
     66  NZ        60.1550 -155.2110    7.6850 N.3    33  LYS33      -0.1314
     67  N         56.8350 -161.8310    4.7830 N.3    45  MET45      -0.1230
     68  CA        56.4180 -161.6260    6.1710 C.3    45  MET45       0.1702
     69  C         56.0820 -160.1680    6.4770 C.2    45  MET45       0.2592
     70  O         56.8760 -159.2670    6.2050 O.2    45  MET45      -0.2718
     71  CB        57.5240 -162.0800    7.1210 C.3    45  MET45       0.0401
     72  CG        57.9160 -163.5400    6.9790 C.3    45  MET45       0.0596
     73  SD        59.1570 -163.9950    8.2010 S.3    45  MET45      -0.1393
     74  CE        59.6000 -165.6270    7.6200 C.3    45  MET45       0.0692
     75  N         54.9000 -159.9500    7.0480 N.am   46  ALA46      -0.1966
     76  CA        54.5100 -158.6420    7.5740 C.3    46  ALA46       0.1728
     77  C         53.5530 -158.8220    8.7480 C.2    46  ALA46       0.2617
     78  O         52.7030 -159.7140    8.7310 O.2    46  ALA46      -0.2715
     79  CB        53.8670 -157.7910    6.4930 C.3    46  ALA46       0.0334
     80  N         53.6940 -157.9670    9.7570 N.am   47  GLY47      -0.1940
     81  CA        52.9170 -158.0800   10.9900 C.3    47  GLY47       0.2014
     82  C         53.7980 -158.5390   12.1360 C.2    47  GLY47       0.2639
     83  O         54.9430 -158.1010   12.2560 O.2    47  GLY47      -0.2714
     84  N         53.2690 -159.4240   12.9760 N.am   48  GLY48      -0.1939
     85  CA        54.0280 -159.9670   14.0990 C.3    48  GLY48       0.2014
     86  C         55.2080 -160.7930   13.6190 C.2    48  GLY48       0.2639
     87  O         55.0350 -161.7450   12.8520 O.2    48  GLY48      -0.2714
     88  N         56.4060 -160.4260   14.0700 N.am   49  ALA49      -0.1963
     89  CA        57.6420 -161.0730   13.6190 C.3    49  ALA49       0.1728
     90  C         57.6560 -162.5630   13.9210 C.2    49  ALA49       0.2616
     91  O         57.8880 -163.3770   13.0320 O.2    49  ALA49      -0.2715
     92  CB        58.8530 -160.3990   14.2470 C.3    49  ALA49       0.0334
     93  N         57.3950 -162.9120   15.1770 N.am   50  ALA50      -0.1977
     94  CA        57.3610 -164.3090   15.6050 C.3    50  ALA50       0.1597
     95  C         56.2510 -165.0700   14.8910 C.2    50  ALA50       0.2287
     96  O         56.4820 -166.1520   14.3530 O.2    50  ALA50      -0.2864
     97  CB        57.1730 -164.3950   17.1110 C.3    50  ALA50       0.0319
     98  N         54.7750 -164.5310   12.0210 N.3    52  CYS52      -0.1235
     99  CA        55.1640 -164.7730   10.6360 C.3    52  CYS52       0.1677
    100  C         56.2810 -165.8050   10.5470 C.2    52  CYS52       0.2270
    101  O         56.1590 -166.7950    9.8260 O.2    52  CYS52      -0.2867
    102  CB        55.6120 -163.4720    9.9660 C.3    52  CYS52       0.0956
    103  SG        54.2570 -162.3480    9.5650 S.3    52  CYS52      -0.0801
    104  N         48.8710 -161.8500   14.2350 N.3    96  SER96      -0.1217
    105  CA        49.0030 -160.6890   13.3590 C.3    96  SER96       0.1889
    106  C         49.9350 -161.0260   12.2030 C.2    96  SER96       0.2288
    107  O         51.1560 -161.0770   12.3710 O.2    96  SER96      -0.2866
    108  CB        49.5390 -159.4890   14.1430 C.3    96  SER96       0.2089
    109  OG        49.6230 -158.3380   13.3210 O.3    96  SER96      -0.2183
    110  N         51.8000 -154.4040    4.4740 N.3   130  GLY130     -0.1210
    111  CA        52.5470 -153.8160    5.5780 C.3   130  GLY130      0.1956
    112  C         52.1720 -152.3680    5.8330 C.2   130  GLY130      0.2612
    113  O         51.3580 -151.7900    5.1150 O.2   130  GLY130     -0.2717
    114  N         52.7890 -151.7840    6.8580 N.am  131  SER131     -0.1952
    115  CA        52.5440 -150.3930    7.2450 C.3   131  SER131      0.1924
    116  C         52.9340 -149.3880    6.1640 C.2   131  SER131      0.2314
    117  O         52.4470 -148.2570    6.1660 O.2   131  SER131     -0.2863
    118  CB        53.3090 -150.0620    8.5250 C.3   131  SER131      0.2116
    119  OG        54.7020 -150.2480    8.3400 O.3   131  SER131     -0.2180
    120  N         58.2660 -146.8030    9.9160 N.3   170  TYR170     -0.1241
    121  CA        58.4010 -148.1910   10.3550 C.3   170  TYR170      0.1605
    122  C         58.8450 -149.1380    9.2370 C.2   170  TYR170      0.2264
    123  O         58.7540 -150.3550    9.3840 O.2   170  TYR170     -0.2867
    124  CB        57.0840 -148.6620   10.9710 C.3   170  TYR170      0.0534
    125  CG        56.6240 -147.7550   12.0850 C.ar  170  TYR170     -0.0201
    126  CD1       57.3180 -147.6990   13.2900 C.ar  170  TYR170     -0.0009
    127  CD2       55.5160 -146.9350   11.9310 C.ar  170  TYR170     -0.0009
    128  CE1       56.9100 -146.8630   14.3120 C.ar  170  TYR170      0.0417
    129  CE2       55.1000 -146.0990   12.9510 C.ar  170  TYR170      0.0417
    130  CZ        55.8010 -146.0660   14.1370 C.ar  170  TYR170      0.1957
    131  OH        55.3920 -145.2340   15.1510 O.3   170  TYR170     -0.2866
@<TRIPOS>BOND
     1    61    60    2
     2   110   111    1
     3    60    59    1
     4    67    68    1
     5   113   112    2
     6    62    59    1
     7    62    63    1
     8   111   112    1
     9    59    58    1
    10   112   114   am
    11     4     3    2
    12     3     2    1
    13     7     5    1
    14   116   117    2
    15   116   115    1
    16    68    69    1
    17    68    71    1
    18    70    69    2
    19    69    75   am
    20    79    76    1
    21    64    63    1
    22    64    65    1
    23   114   115    1
    24    54    53    2
    25    72    71    1
    26    72    73    1
    27    75    76    1
    28   115   118    1
    29     2     5    1
    30     2     1    1
    31     5     6    1
    32    76    77    1
    33    74    73    1
    34    65    66    1
    35    53    52    1
    36     8     9    1
    37   119   118    1
    38    78    77    2
    39    77    80   am
    40   122   123    2
    41   122   121    1
    42    51    52    1
    43    52    55    1
    44    12     9    1
    45    12    13    1
    46    18    16    1
    47     9    10    1
    48   103   102    1
    49    56    55    1
    50    80    81    1
    51   101   100    2
    52    16    15    2
    53    16    17    1
    54   120   121    1
    55    15    14    1
    56    55    57    1
    57   102    99    1
    58    11    10    2
    59   121   124    1
    60    10    19   am
    61    14    13    1
    62   100    99    1
    63    99    98    1
    64   124   125    1
    65    81    82    1
    66    19    20    1
    67   127   125   ar
    68   127   129   ar
    69    48    47    2
    70   125   126   ar
    71    82    83    2
    72    82    84   am
    73   106   107    2
    74   106   105    1
    75    47    46    1
    76    50    49    1
    77    20    23    1
    78    20    21    1
    79    87    86    2
    80   129   130   ar
    81    84    85    1
    82    91    90    2
    83   126   128   ar
    84   109   108    1
    85   105   108    1
    86   105   104    1
    87    30    28    1
    88    86    88   am
    89    86    85    1
    90    89    90    1
    91    89    88    1
    92    89    92    1
    93    49    46    1
    94    46    45    1
    95    21    22    2
    96    21    24   am
    97    90    93   am
    98   130   128   ar
    99   130   131    1
   100    29    28    1
   101    24    25    1
   102    96    95    2
   103    28    25    1
   104    45    42   am
   105    95    94    1
   106    93    94    1
   107    25    26    1
   108    94    97    1
   109    42    43    2
   110    42    41    1
   111    40    41    1
   112    27    26    2
   113    26    31   am
   114    41    44    1
   115    39    38    2
   116    31    32    1
   117    38    37    1
   118    32    33    1
   119    32    35    1
   120    36    37    1
   121    36    33   am
   122    33    34    2
