@<TRIPOS>MOLECULE
tmp/4y8kY00.pdb
 119 111 0 0 0
SMALL
GASTEIGER

@<TRIPOS>ATOM
      1  N         57.1830 -153.4980    8.4160 N.3     1  THR1       -0.1218
      2  CA        57.2730 -154.2600    7.1570 C.3     1  THR1        0.1862
      3  C         56.7710 -153.6470    5.8870 C.2     1  THR1        0.2287
      4  O         55.8050 -152.9520    5.8570 O.2     1  THR1       -0.2866
      5  CB        56.5620 -155.5660    7.2930 C.3     1  THR1        0.1770
      6  OG1       57.2280 -156.1490    8.2960 O.3     1  THR1       -0.2211
      7  CG2       56.7470 -156.4890    6.1140 C.3     1  THR1        0.0375
      8  N         63.4150 -154.8380    8.3130 N.3    19  ARG19      -0.1231
      9  CA        63.3080 -154.1490    9.6020 C.3    19  ARG19       0.1694
     10  C         62.2960 -154.7820   10.5550 C.2    19  ARG19       0.2592
     11  O         61.1850 -155.1330   10.1550 O.2    19  ARG19      -0.2718
     12  CB        62.9410 -152.6830    9.4080 C.3    19  ARG19       0.0321
     13  CG        62.8330 -151.9370   10.7300 C.3    19  ARG19       0.0489
     14  CD        62.6390 -150.4460   10.5490 C.3    19  ARG19       0.2205
     15  NE        63.8270 -149.8010    9.9980 N.pl3  19  ARG19      -0.0865
     16  CZ        64.0110 -148.4840    9.9290 C.cat  19  ARG19       0.5346
     17  NH1       63.0870 -147.6410   10.3820 N.pl3  19  ARG19       0.1354
     18  NH2       65.1320 -148.0050    9.4050 N.pl3  19  ARG19       0.1354
     19  N         62.6960 -154.9020   11.8190 N.am   20  ALA20      -0.1966
     20  CA        61.8100 -155.3420   12.8930 C.3    20  ALA20       0.1728
     21  C         61.6940 -154.2190   13.9130 C.2    20  ALA20       0.2617
     22  O         62.6850 -153.5580   14.2340 O.2    20  ALA20      -0.2715
     23  CB        62.3430 -156.6060   13.5490 C.3    20  ALA20       0.0334
     24  N         60.4820 -154.0040   14.4170 N.am   21  THR21      -0.1937
     25  CA        60.2190 -152.9170   15.3580 C.3    21  THR21       0.2028
     26  C         59.3710 -153.3740   16.5390 C.2    21  THR21       0.2642
     27  O         58.3960 -154.1090   16.3680 O.2    21  THR21      -0.2714
     28  CB        59.4910 -151.7440   14.6700 C.3    21  THR21       0.1808
     29  OG1       58.2340 -152.1940   14.1440 O.3    21  THR21      -0.2208
     30  CG2       60.3320 -151.1770   13.5400 C.3    21  THR21       0.0379
     31  N         59.7590 -152.9330   17.7340 N.am   22  ALA22      -0.1963
     32  CA        58.9540 -153.1050   18.9400 C.3    22  ALA22       0.1728
     33  C         58.4930 -151.7180   19.3820 C.2    22  ALA22       0.2616
     34  O         59.2030 -151.0110   20.1000 O.2    22  ALA22      -0.2715
     35  CB        59.7600 -153.7890   20.0340 C.3    22  ALA22       0.0334
     36  N         57.3010 -151.3330   18.9330 N.am   23  GLY23      -0.1955
     37  CA        56.8220 -149.9640   19.0970 C.3    23  GLY23       0.1869
     38  C         57.6230 -149.0380   18.1960 C.2    23  GLY23       0.2309
     39  O         57.6680 -149.2380   16.9800 O.2    23  GLY23      -0.2863
     40  N         64.2900 -152.8470   16.5710 N.3    27  ALA27      -0.1245
     41  CA        64.8820 -154.0570   17.1320 C.3    27  ALA27       0.1562
     42  C         66.0190 -154.5610   16.2490 C.2    27  ALA27       0.2260
     43  O         67.1350 -154.7670   16.7220 O.2    27  ALA27      -0.2867
     44  CB        63.8200 -155.1360   17.3040 C.3    27  ALA27       0.0290
     45  N         66.5880 -158.7410    9.4470 N.3    31  VAL31      -0.1245
     46  CA        65.6480 -159.8590    9.5260 C.3    31  VAL31       0.1561
     47  C         65.3970 -160.4600    8.1510 C.2    31  VAL31       0.2260
     48  O         65.1410 -159.7390    7.1860 O.2    31  VAL31      -0.2867
     49  CB        64.2950 -159.4280   10.1360 C.3    31  VAL31       0.0252
     50  CG1       63.2570 -160.5430   10.0290 C.3    31  VAL31       0.0019
     51  CG2       64.4830 -159.0340   11.5890 C.3    31  VAL31       0.0019
     52  N         62.9300 -161.8650    5.9760 N.3    33  LYS33      -0.1245
     53  CA        61.4770 -161.8670    5.8460 C.3    33  LYS33       0.1561
     54  C         60.9940 -162.7150    4.6830 C.2    33  LYS33       0.2260
     55  O         59.7910 -162.8220    4.4500 O.2    33  LYS33      -0.2867
     56  CB        60.9680 -160.4440    5.6860 C.3    33  LYS33       0.0271
     57  CG        61.2210 -159.6040    6.9150 C.3    33  LYS33       0.0035
     58  CD        60.4340 -158.3150    6.8640 C.3    33  LYS33       0.0206
     59  CE        60.9450 -157.3410    7.9070 C.3    33  LYS33       0.1093
     60  NZ        60.2370 -156.0470    7.7830 N.3    33  LYS33      -0.1314
     61  N         57.0680 -162.7440    5.0720 N.3    45  MET45      -0.1230
     62  CA        56.7030 -162.5970    6.4780 C.3    45  MET45       0.1702
     63  C         56.2960 -161.1730    6.8170 C.2    45  MET45       0.2592
     64  O         57.0990 -160.2490    6.7030 O.2    45  MET45      -0.2718
     65  CB        57.8840 -162.9860    7.3590 C.3    45  MET45       0.0401
     66  CG        58.2190 -164.4640    7.3160 C.3    45  MET45       0.0596
     67  SD        59.6570 -164.8410    8.3350 S.3    45  MET45      -0.1393
     68  CE        60.0190 -166.4650    7.6960 C.3    45  MET45       0.0692
     69  N         55.0490 -161.0040    7.2400 N.am   46  ALA46      -0.1966
     70  CA        54.5770 -159.7130    7.7270 C.3    46  ALA46       0.1728
     71  C         53.5740 -159.9110    8.8580 C.2    46  ALA46       0.2617
     72  O         52.7720 -160.8430    8.8320 O.2    46  ALA46      -0.2715
     73  CB        53.9620 -158.9040    6.5980 C.3    46  ALA46       0.0334
     74  N         53.6330 -159.0250    9.8470 N.am   47  GLY47      -0.1940
     75  CA        52.8220 -159.1420   11.0570 C.3    47  GLY47       0.2014
     76  C         53.6870 -159.6430   12.1960 C.2    47  GLY47       0.2639
     77  O         54.7780 -159.1220   12.4230 O.2    47  GLY47      -0.2714
     78  N         53.2060 -160.6580   12.9090 N.am   48  GLY48      -0.1939
     79  CA        53.9690 -161.2670   13.9970 C.3    48  GLY48       0.2014
     80  C         55.1850 -162.0130   13.4770 C.2    48  GLY48       0.2639
     81  O         55.0640 -162.8930   12.6200 O.2    48  GLY48      -0.2714
     82  N         56.3590 -161.6540   13.9910 N.am   49  ALA49      -0.1963
     83  CA        57.6170 -162.2680   13.5640 C.3    49  ALA49       0.1728
     84  C         57.6390 -163.7630   13.8680 C.2    49  ALA49       0.2616
     85  O         57.9140 -164.5770   12.9870 O.2    49  ALA49      -0.2715
     86  CB        58.7960 -161.5760   14.2320 C.3    49  ALA49       0.0334
     87  N         57.3420 -164.1150   15.1170 N.am   50  ALA50      -0.1977
     88  CA        57.3390 -165.5140   15.5470 C.3    50  ALA50       0.1597
     89  C         56.2690 -166.3120   14.8100 C.2    50  ALA50       0.2287
     90  O         56.5490 -167.3780   14.2630 O.2    50  ALA50      -0.2864
     91  CB        57.1230 -165.6070   17.0480 C.3    50  ALA50       0.0319
     92  N         48.9430 -163.1640   14.2000 N.3    96  SER96      -0.1217
     93  CA        49.0950 -162.0130   13.3120 C.3    96  SER96       0.1889
     94  C         50.0350 -162.3650   12.1670 C.2    96  SER96       0.2288
     95  O         51.2440 -162.5160   12.3660 O.2    96  SER96      -0.2866
     96  CB        49.6240 -160.8030   14.0830 C.3    96  SER96       0.2089
     97  OG        49.6600 -159.6550   13.2530 O.3    96  SER96      -0.2183
     98  N         52.0330 -155.3260    4.3770 N.3   130  GLY130     -0.1210
     99  CA        52.8120 -154.7010    5.4450 C.3   130  GLY130      0.1956
    100  C         52.4180 -153.2610    5.7240 C.2   130  GLY130      0.2612
    101  O         51.5560 -152.6910    5.0500 O.2   130  GLY130     -0.2717
    102  N         53.0660 -152.6680    6.7230 N.am  131  SER131     -0.1952
    103  CA        52.7630 -151.2990    7.1440 C.3   131  SER131      0.1924
    104  C         53.1350 -150.2580    6.0900 C.2   131  SER131      0.2314
    105  O         52.6520 -149.1290    6.1350 O.2   131  SER131     -0.2863
    106  CB        53.4810 -150.9700    8.4550 C.3   131  SER131      0.2116
    107  OG        54.8810 -150.8790    8.2620 O.3   131  SER131     -0.2180
    108  N         58.3520 -147.6200    9.8500 N.3   170  TYR170     -0.1241
    109  CA        58.4840 -149.0100   10.2990 C.3   170  TYR170      0.1605
    110  C         58.9470 -149.9670    9.1890 C.2   170  TYR170      0.2264
    111  O         58.8400 -151.1870    9.3320 O.2   170  TYR170     -0.2867
    112  CB        57.1590 -149.4840   10.9090 C.3   170  TYR170      0.0534
    113  CG        56.6740 -148.5750   12.0160 C.ar  170  TYR170     -0.0201
    114  CD1       57.4040 -148.4370   13.1930 C.ar  170  TYR170     -0.0009
    115  CD2       55.4980 -147.8420   11.8840 C.ar  170  TYR170     -0.0009
    116  CE1       56.9750 -147.6020   14.2100 C.ar  170  TYR170      0.0417
    117  CE2       55.0600 -147.0040   12.8980 C.ar  170  TYR170      0.0417
    118  CZ        55.8030 -146.8880   14.0590 C.ar  170  TYR170      0.1957
    119  OH        55.3800 -146.0580   15.0730 O.3   170  TYR170     -0.2866
@<TRIPOS>BOND
     1    98    99    1
     2    55    54    2
     3    54    53    1
     4   101   100    2
     5    61    62    1
     6    99   100    1
     7    56    53    1
     8    56    57    1
     9   100   102   am
    10    53    52    1
    11     4     3    2
    12     3     2    1
    13   104   105    2
    14   104   103    1
    15     7     5    1
    16    62    63    1
    17    62    65    1
    18    73    70    1
    19    64    63    2
    20   102   103    1
    21    63    69   am
    22    58    57    1
    23    58    59    1
    24   103   106    1
    25     2     5    1
    26     2     1    1
    27    48    47    2
    28    69    70    1
    29     5     6    1
    30    66    65    1
    31    66    67    1
    32    68    67    1
    33    70    71    1
    34    60    59    1
    35    47    46    1
    36   107   106    1
    37     8     9    1
    38    72    71    2
    39    71    74   am
    40   110   111    2
    41   110   109    1
    42    18    16    1
    43    12     9    1
    44    12    13    1
    45    45    46    1
    46    46    49    1
    47     9    10    1
    48    74    75    1
    49   108   109    1
    50    16    15    2
    51    16    17    1
    52    15    14    1
    53    50    49    1
    54    49    51    1
    55    11    10    2
    56   109   112    1
    57    14    13    1
    58    10    19   am
    59   112   113    1
    60    75    76    1
    61    19    20    1
    62   115   113   ar
    63   115   117   ar
    64   113   114   ar
    65    94    95    2
    66    94    93    1
    67    76    77    2
    68    76    78   am
    69    81    80    2
    70    20    23    1
    71    20    21    1
    72   117   118   ar
    73    78    79    1
    74    85    84    2
    75   114   116   ar
    76    97    96    1
    77    93    96    1
    78    93    92    1
    79    80    82   am
    80    80    79    1
    81    30    28    1
    82    83    84    1
    83    83    82    1
    84    83    86    1
    85    84    87   am
    86    21    22    2
    87    21    24   am
    88   118   116   ar
    89   118   119    1
    90    29    28    1
    91    90    89    2
    92    24    25    1
    93    28    25    1
    94    89    88    1
    95    87    88    1
    96    25    26    1
    97    88    91    1
    98    42    43    2
    99    42    41    1
   100    27    26    2
   101    26    31   am
   102    40    41    1
   103    39    38    2
   104    41    44    1
   105    31    32    1
   106    38    37    1
   107    36    37    1
   108    36    33   am
   109    32    33    1
   110    32    35    1
   111    33    34    2
