@<TRIPOS>MOLECULE
tmp/4y8pH00.pdb
 116 107 0 0 0
SMALL
GASTEIGER

@<TRIPOS>ATOM
      1  N         64.1360 -139.4550   44.9520 N.3     1  THR1       -0.1218
      2  CA        64.7760 -138.5960   45.9610 C.3     1  THR1        0.1862
      3  C         64.8290 -139.1640   47.3630 C.2     1  THR1        0.2287
      4  O         63.9170 -139.7860   47.8430 O.2     1  THR1       -0.2866
      5  CB        63.9980 -137.3390   46.0690 C.3     1  THR1        0.1770
      6  OG1       64.0630 -136.7980   44.8330 O.3     1  THR1       -0.2211
      7  CG2       64.6430 -136.3410   46.9840 C.3     1  THR1        0.0375
      8  N         70.2010 -137.1410   42.5330 N.3    19  ARG19      -0.1231
      9  CA        69.6910 -137.8340   41.3500 C.3    19  ARG19       0.1694
     10  C         68.3090 -137.3090   40.9910 C.2    19  ARG19       0.2593
     11  O         67.4540 -137.1690   41.8610 O.2    19  ARG19      -0.2718
     12  CB        69.6010 -139.3430   41.5990 C.3    19  ARG19       0.0321
     13  CG        68.9850 -140.1240   40.4430 C.3    19  ARG19       0.0489
     14  CD        68.9570 -141.6230   40.7030 C.3    19  ARG19       0.2205
     15  NE        70.2920 -142.2170   40.6870 N.pl3  19  ARG19      -0.0865
     16  CZ        70.5450 -143.5210   40.7880 C.cat  19  ARG19       0.5346
     17  NH1       69.5550 -144.4000   40.9120 N.pl3  19  ARG19       0.1354
     18  NH2       71.8000 -143.9520   40.7650 N.pl3  19  ARG19       0.1354
     19  N         68.0960 -137.0210   39.7090 N.am   20  SER20      -0.1938
     20  CA        66.7550 -136.7630   39.1900 C.3    20  SER20       0.2055
     21  C         66.4650 -137.7890   38.1070 C.2    20  SER20       0.2644
     22  O         67.2940 -138.0260   37.2290 O.2    20  SER20      -0.2714
     23  CB        66.6260 -135.3430   38.6340 C.3    20  SER20       0.2130
     24  OG        67.4160 -135.1650   37.4750 O.3    20  SER20      -0.2179
     25  N         65.2900 -138.4030   38.1840 N.am   21  THR21      -0.1936
     26  CA        64.9200 -139.4700   37.2720 C.3    21  THR21       0.2028
     27  C         63.7290 -139.0620   36.4300 C.2    21  THR21       0.2642
     28  O         62.9340 -138.2120   36.8320 O.2    21  THR21      -0.2714
     29  CB        64.5410 -140.7550   38.0370 C.3    21  THR21       0.1808
     30  OG1       63.4580 -140.4840   38.9380 O.3    21  THR21      -0.2208
     31  CG2       65.7280 -141.2860   38.8210 C.3    21  THR21       0.0379
     32  N         63.6490 -139.6390   35.2360 N.am   22  GLN22      -0.1976
     33  CA        62.4320 -139.6760   34.4480 C.3    22  GLN22       0.1601
     34  C         62.1470 -141.1150   34.1100 C.2    22  GLN22       0.2287
     35  O         62.8310 -141.7020   33.3120 O.2    22  GLN22      -0.2864
     36  CB        62.5370 -138.8630   33.1660 C.3    22  GLN22       0.0394
     37  CG        63.8890 -138.2490   32.8630 C.3    22  GLN22       0.0908
     38  CD        63.9640 -137.7050   31.4450 C.2    22  GLN22       0.2608
     39  OE1       63.3660 -138.2650   30.5300 O.2    22  GLN22      -0.2717
     40  NE2       64.6910 -136.6090   31.2580 N.am   22  GLN22      -0.0878
     41  N         67.9830 -138.5390   34.5140 N.3    27  ALA27      -0.1245
     42  CA        68.0300 -137.3130   33.7170 C.3    27  ALA27       0.1562
     43  C         69.2150 -136.4300   34.1140 C.2    27  ALA27       0.2260
     44  O         69.9940 -136.0090   33.2570 O.2    27  ALA27      -0.2867
     45  CB        66.7190 -136.5440   33.8490 C.3    27  ALA27       0.0290
     46  N         71.8900 -132.8470   40.3740 N.3    31  CYS31      -0.1235
     47  CA        70.9660 -131.7260   40.5290 C.3    31  CYS31       0.1677
     48  C         70.9680 -131.2470   41.9780 C.2    31  CYS31       0.2270
     49  O         71.3430 -131.9900   42.8870 O.2    31  CYS31      -0.2867
     50  CB        69.5530 -132.1210   40.1000 C.3    31  CYS31       0.0956
     51  SG        68.7300 -133.2620   41.2270 S.3    31  CYS31      -0.0801
     52  N         68.9070 -130.1930   45.1090 N.3    33  LYS33      -0.1245
     53  CA        67.5890 -130.3080   45.7310 C.3    33  LYS33       0.1561
     54  C         67.4690 -129.4280   46.9730 C.2    33  LYS33       0.2260
     55  O         66.3940 -129.3310   47.5650 O.2    33  LYS33      -0.2867
     56  CB        67.3070 -131.7680   46.0770 C.3    33  LYS33       0.0271
     57  CG        67.5670 -132.7070   44.9110 C.3    33  LYS33       0.0035
     58  CD        67.0970 -134.1140   45.2050 C.3    33  LYS33       0.0206
     59  CE        67.4770 -135.0570   44.0800 C.3    33  LYS33       0.1093
     60  NZ        66.8720 -136.3980   44.2810 N.3    33  LYS33      -0.1314
     61  N         67.2950 -125.7990   48.4500 N.3    35  HIS35      -0.1241
     62  CA        66.8550 -124.4980   47.9630 C.3    35  HIS35       0.1621
     63  C         66.9550 -123.4500   49.0560 C.2    35  HIS35       0.2264
     64  O         66.7110 -123.7390   50.2260 O.2    35  HIS35      -0.2867
     65  CB        65.4040 -124.5790   47.4940 C.3    35  HIS35       0.0745
     66  CG        65.1480 -125.6700   46.5010 C.ar   35  HIS35       0.0817
     67  ND1       65.5170 -125.5710   45.1760 N.ar   35  HIS35      -0.2268
     68  CD2       64.5540 -126.8790   46.6380 C.ar   35  HIS35       0.1154
     69  CE1       65.1640 -126.6750   44.5410 C.ar   35  HIS35       0.1986
     70  NE2       64.5780 -127.4850   45.4050 N.ar   35  HIS35      -0.2212
     71  N         63.5940 -130.4710   48.7790 N.3    45  GLY45      -0.1210
     72  CA        62.3820 -130.7560   48.0110 C.3    45  GLY45       0.1956
     73  C         62.3960 -132.0600   47.2360 C.2    45  GLY45       0.2612
     74  O         63.3290 -132.3360   46.4830 O.2    45  GLY45      -0.2717
     75  N         61.3470 -132.8580   47.4280 N.am   46  ALA46      -0.1965
     76  CA        61.1300 -134.0910   46.6700 C.3    46  ALA46       0.1728
     77  C         59.8020 -134.0150   45.9230 C.2    46  ALA46       0.2617
     78  O         58.9620 -133.1680   46.2210 O.2    46  ALA46      -0.2715
     79  CB        61.1350 -135.2920   47.6040 C.3    46  ALA46       0.0334
     80  N         59.6180 -134.9080   44.9560 N.am   47  GLY47      -0.1940
     81  CA        58.3850 -134.9610   44.1700 C.3    47  GLY47       0.2014
     82  C         58.5830 -134.4360   42.7600 C.2    47  GLY47       0.2640
     83  O         59.5910 -134.7340   42.1170 O.2    47  GLY47      -0.2714
     84  N         57.6160 -133.6620   42.2730 N.am   48  THR48      -0.1936
     85  CA        57.7050 -133.0590   40.9440 C.3    48  THR48       0.2028
     86  C         58.7420 -131.9370   40.9630 C.2    48  THR48       0.2642
     87  O         58.5780 -130.9410   41.6640 O.2    48  THR48      -0.2714
     88  CB        56.3450 -132.5010   40.4830 C.3    48  THR48       0.1808
     89  OG1       55.3310 -133.4980   40.6630 O.3    48  THR48      -0.2208
     90  CG2       56.3960 -132.0850   39.0130 C.3    48  THR48       0.0379
     91  N         59.8030 -132.1060   40.1780 N.am   49  ALA49      -0.1977
     92  CA        60.9810 -131.2380   40.2550 C.3    49  ALA49       0.1597
     93  C         60.6890 -129.7680   39.9450 C.2    49  ALA49       0.2287
     94  O         61.1850 -128.8800   40.6380 O.2    49  ALA49      -0.2864
     95  CB        62.0760 -131.7660   39.3400 C.3    49  ALA49       0.0319
     96  N         58.6810 -128.1670   43.0160 N.3    52  THR52      -0.1218
     97  CA        59.4640 -127.8660   44.2170 C.3    52  THR52       0.1862
     98  C         60.2880 -126.5960   44.0230 C.2    52  THR52       0.2287
     99  O         60.3760 -125.7740   44.9290 O.2    52  THR52      -0.2866
    100  CB        60.4050 -129.0230   44.6230 C.3    52  THR52       0.1770
    101  OG1       61.3340 -129.2940   43.5680 O.3    52  THR52      -0.2211
    102  CG2       59.6120 -130.2830   44.9400 C.3    52  THR52       0.0375
    103  N         60.5730 -138.3200   50.3680 N.3   128  GLY128     -0.1210
    104  CA        61.0070 -138.8540   49.0780 C.3   128  GLY128      0.1956
    105  C         60.9000 -140.3660   48.9970 C.2   128  GLY128      0.2612
    106  O         60.4960 -141.0220   49.9580 O.2   128  GLY128     -0.2717
    107  N         61.2660 -140.9180   47.8430 N.am  129  SER129     -0.1952
    108  CA        61.1730 -142.3630   47.6060 C.3   129  SER129      0.1924
    109  C         62.1490 -143.1700   48.4630 C.2   129  SER129      0.2314
    110  O         61.9020 -144.3390   48.7600 O.2   129  SER129     -0.2863
    111  CB        61.4020 -142.6850   46.1250 C.3   129  SER129      0.2116
    112  OG        62.6980 -142.2930   45.7070 O.3   129  SER129     -0.2180
    113  N         65.5070 -144.7830   43.2440 N.3   168  GLY168     -0.1225
    114  CA        65.1180 -143.4040   42.9790 C.3   168  GLY168      0.1811
    115  C         66.1990 -142.4040   43.3440 C.2   168  GLY168      0.2280
    116  O         66.2320 -141.3060   42.7980 O.2   168  GLY168     -0.2866
@<TRIPOS>BOND
     1    39    38    2
     2    40    38   am
     3    38    37    1
     4    37    36    1
     5    36    33    1
     6    44    43    2
     7    35    34    2
     8    42    45    1
     9    42    43    1
    10    42    41    1
    11    34    33    1
    12    33    32    1
    13    32    27   am
    14    27    28    2
    15    27    26    1
    16    22    21    2
    17    26    29    1
    18    26    25    1
    19    24    23    1
    20    29    31    1
    21    29    30    1
    22    21    25   am
    23    21    20    1
    24    23    20    1
    25    90    88    1
    26    20    19    1
    27    95    92    1
    28    19    10   am
    29    93    92    1
    30    93    94    2
    31    50    47    1
    32    50    51    1
    33    91    92    1
    34    91    86   am
    35    46    47    1
    36    13    14    1
    37    13    12    1
    38    88    89    1
    39    88    85    1
    40    47    48    1
    41    15    14    1
    42    15    16    2
    43    18    16    1
    44    16    17    1
    45    85    86    1
    46    85    84    1
    47    86    87    2
    48    10     9    1
    49    10    11    2
    50     9    12    1
    51     9     8    1
    52    48    49    2
    53    83    82    2
    54    84    82   am
    55    82    81    1
    56   116   115    2
    57   114   113    1
    58   114   115    1
    59    96    97    1
    60   101   100    1
    61    98    97    1
    62    98    99    2
    63    59    60    1
    64    59    58    1
    65    81    80    1
    66    97   100    1
    67    69    67   ar
    68    69    70   ar
    69   100   102    1
    70     6     5    1
    71    57    58    1
    72    57    56    1
    73     1     2    1
    74    80    77   am
    75    52    53    1
    76    67    66   ar
    77    70    68   ar
    78   112   111    1
    79    53    56    1
    80    53    54    1
    81    77    78    2
    82    77    76    1
    83     2     5    1
    84     2     3    1
    85     5     7    1
    86   111   108    1
    87    74    73    2
    88    66    68   ar
    89    66    65    1
    90    76    75    1
    91    76    79    1
    92    54    55    2
    93    73    75   am
    94    73    72    1
    95     3     4    2
    96    65    62    1
    97   108   107    1
    98   108   109    1
    99   107   105   am
   100    62    61    1
   101    62    63    1
   102    72    71    1
   103   109   110    2
   104   105   104    1
   105   105   106    2
   106    63    64    2
   107   104   103    1
