@<TRIPOS>MOLECULE
tmp/4y8pK00.pdb
 110 102 0 0 0
SMALL
GASTEIGER

@<TRIPOS>ATOM
      1  N         11.7220 -140.1850    9.9170 N.3     1  THR1       -0.1218
      2  CA        11.4000 -139.2430    8.8320 C.3     1  THR1        0.1862
      3  C         11.9230 -139.6380    7.4830 C.2     1  THR1        0.2287
      4  O         12.9510 -140.2480    7.3520 O.2     1  THR1       -0.2866
      5  CB        11.9920 -137.9060    9.1570 C.3     1  THR1        0.1770
      6  OG1       11.3300 -137.5040   10.3030 O.3     1  THR1       -0.2211
      7  CG2       11.7460 -136.8630    8.1050 C.3     1  THR1        0.0375
      8  N          5.1890 -138.9250   10.0780 N.3    19  ARG19      -0.1231
      9  CA         5.2930 -139.7920   11.2520 C.3    19  ARG19       0.1694
     10  C          6.2570 -139.2450   12.2970 C.2    19  ARG19       0.2592
     11  O          7.2920 -138.6710   11.9620 O.2    19  ARG19      -0.2718
     12  CB         5.7340 -141.2050   10.8570 C.3    19  ARG19       0.0321
     13  CG         5.8400 -142.1530   12.0480 C.3    19  ARG19       0.0489
     14  CD         6.0210 -143.6050   11.6400 C.3    19  ARG19       0.2205
     15  NE         4.8230 -144.1570   11.0110 N.pl3  19  ARG19      -0.0865
     16  CZ         4.6240 -145.4490   10.7570 C.cat  19  ARG19       0.5346
     17  NH1        5.5400 -146.3570   11.0800 N.pl3  19  ARG19       0.1354
     18  NH2        3.4920 -145.8370   10.1770 N.pl3  19  ARG19       0.1354
     19  N          5.9030 -139.4370   13.5650 N.am   20  ALA20      -0.1966
     20  CA         6.7980 -139.1630   14.6850 C.3    20  ALA20       0.1728
     21  C          6.9350 -140.4380   15.5060 C.2    20  ALA20       0.2617
     22  O          5.9420 -141.1270   15.7440 O.2    20  ALA20      -0.2715
     23  CB         6.2520 -138.0340   15.5420 C.3    20  ALA20       0.0334
     24  N          8.1600 -140.7490   15.9300 N.am   21  THR21      -0.1937
     25  CA         8.4230 -141.9600   16.7080 C.3    21  THR21       0.2028
     26  C          9.2460 -141.6780   17.9580 C.2    21  THR21       0.2642
     27  O         10.1390 -140.8320   17.9470 O.2    21  THR21      -0.2714
     28  CB         9.1740 -143.0270   15.8810 C.3    21  THR21       0.1808
     29  OG1       10.4650 -142.5330   15.4950 O.3    21  THR21      -0.2208
     30  CG2        8.3790 -143.4070   14.6410 C.3    21  THR21       0.0379
     31  N          8.9290 -142.3970   19.0310 N.am   22  ALA22      -0.1977
     32  CA         9.7500 -142.4240   20.2350 C.3    22  ALA22       0.1597
     33  C         10.2260 -143.8610   20.3960 C.2    22  ALA22       0.2287
     34  O          9.5610 -144.6820   21.0300 O.2    22  ALA22      -0.2864
     35  CB         8.9480 -141.9740   21.4460 C.3    22  ALA22       0.0319
     36  N          4.4300 -142.2170   17.7500 N.3    27  ALA27      -0.1245
     37  CA         3.8910 -141.1400   18.5780 C.3    27  ALA27       0.1562
     38  C          2.8170 -140.3440   17.8570 C.2    27  ALA27       0.2260
     39  O          1.8230 -139.9490   18.4670 O.2    27  ALA27      -0.2867
     40  CB         5.0080 -140.2140   19.0270 C.3    27  ALA27       0.0290
     41  N          2.0890 -135.3050   11.8180 N.3    31  VAL31      -0.1245
     42  CA         3.0200 -134.2040   12.0720 C.3    31  VAL31       0.1561
     43  C          3.2450 -133.3740   10.8110 C.2    31  VAL31       0.2260
     44  O          3.4350 -133.9220    9.7220 O.2    31  VAL31      -0.2867
     45  CB         4.3760 -134.7200   12.6050 C.3    31  VAL31       0.0252
     46  CG1        5.4270 -133.6180   12.6150 C.3    31  VAL31       0.0019
     47  CG2        4.2030 -135.2860   14.0040 C.3    31  VAL31       0.0019
     48  N          5.6940 -131.5430    8.8700 N.3    33  LYS33      -0.1245
     49  CA         7.1510 -131.4650    8.7390 C.3    33  LYS33       0.1561
     50  C          7.6220 -130.3780    7.7710 C.2    33  LYS33       0.2260
     51  O          8.8250 -130.1560    7.6330 O.2    33  LYS33      -0.2867
     52  CB         7.7150 -132.8240    8.3300 C.3    33  LYS33       0.0271
     53  CG         7.5880 -133.8590    9.4300 C.3    33  LYS33       0.0035
     54  CD         8.1700 -135.1980    9.0210 C.3    33  LYS33       0.0206
     55  CE         7.6390 -136.3050    9.9120 C.3    33  LYS33       0.1093
     56  NZ         8.4580 -137.5370    9.8000 N.3    33  LYS33      -0.1314
     57  N         11.5940 -130.5300    8.0150 N.3    45  MET45      -0.1230
     58  CA        12.0300 -130.9650    9.3410 C.3    45  MET45       0.1702
     59  C         12.3780 -132.4490    9.3710 C.2    45  MET45       0.2592
     60  O         11.6030 -133.2830    8.9060 O.2    45  MET45      -0.2718
     61  CB        10.9280 -130.7080   10.3660 C.3    45  MET45       0.0401
     62  CG        10.5080 -129.2550   10.4870 C.3    45  MET45       0.0596
     63  SD         9.2640 -129.0410   11.7740 S.3    45  MET45      -0.1393
     64  CE         8.8130 -127.3350   11.4980 C.3    45  MET45       0.0692
     65  N         13.5460 -132.7630    9.9270 N.am   46  ALA46      -0.1966
     66  CA        13.9440 -134.1440   10.1990 C.3    46  ALA46       0.1728
     67  C         14.9150 -134.1700   11.3700 C.2    46  ALA46       0.2617
     68  O         15.7680 -133.2910   11.4900 O.2    46  ALA46      -0.2715
     69  CB        14.5790 -134.7750    8.9720 C.3    46  ALA46       0.0334
     70  N         14.7830 -135.1810   12.2260 N.am   47  GLY47      -0.1940
     71  CA        15.5940 -135.2920   13.4380 C.3    47  GLY47       0.2014
     72  C         14.7520 -135.0290   14.6710 C.2    47  GLY47       0.2639
     73  O         13.6260 -135.5090   14.7710 O.2    47  GLY47      -0.2714
     74  N         15.2960 -134.2650   15.6120 N.am   48  GLY48      -0.1939
     75  CA        14.5660 -133.8970   16.8210 C.3    48  GLY48       0.2014
     76  C         13.3650 -133.0250   16.5010 C.2    48  GLY48       0.2638
     77  O         13.5010 -131.9780   15.8640 O.2    48  GLY48      -0.2714
     78  N         12.1870 -133.4640   16.9380 N.am   49  ALA49      -0.1977
     79  CA        10.9330 -132.7700   16.6310 C.3    49  ALA49       0.1597
     80  C         10.9100 -131.3520   17.1870 C.2    49  ALA49       0.2287
     81  O         10.5770 -130.4060   16.4770 O.2    49  ALA49      -0.2864
     82  CB         9.7500 -133.5610   17.1670 C.3    49  ALA49       0.0319
     83  N         13.7810 -129.0520   15.5550 N.3    52  CYS52      -0.1235
     84  CA        13.3590 -128.5870   14.2360 C.3    52  CYS52       0.1677
     85  C         12.2550 -127.5420   14.3390 C.2    52  CYS52       0.2270
     86  O         12.3910 -126.4340   13.8170 O.2    52  CYS52      -0.2867
     87  CB        12.8810 -129.7620   13.3820 C.3    52  CYS52       0.0956
     88  SG        14.2200 -130.8190   12.7930 S.3    52  CYS52      -0.0801
     89  N         16.5830 -137.8210    6.3350 N.3   130  GLY130     -0.1210
     90  CA        15.8400 -138.6040    7.3160 C.3   130  GLY130      0.1956
     91  C         16.2520 -140.0660    7.3350 C.2   130  GLY130      0.2612
     92  O         17.0690 -140.5070    6.5230 O.2   130  GLY130     -0.2717
     93  N         15.6630 -140.8190    8.2600 N.am  131  SER131     -0.1952
     94  CA        15.9280 -142.2510    8.4000 C.3   131  SER131      0.1924
     95  C         15.5730 -143.0460    7.1460 C.2   131  SER131      0.2314
     96  O         16.1570 -144.0970    6.8930 O.2   131  SER131     -0.2863
     97  CB        15.1480 -142.8150    9.5900 C.3   131  SER131      0.2116
     98  OG        13.7540 -142.6120    9.4230 O.3   131  SER131     -0.2180
     99  N         10.3200 -146.2960   10.4620 N.3   170  TYR170     -0.1241
    100  CA        10.1970 -145.0080   11.1460 C.3   170  TYR170      0.1605
    101  C          9.7220 -143.8770   10.2280 C.2   170  TYR170      0.2264
    102  O          9.8050 -142.7070   10.5940 O.2   170  TYR170     -0.2867
    103  CB        11.5320 -144.6420   11.8050 C.3   170  TYR170      0.0534
    104  CG        12.0310 -145.7180   12.7450 C.ar  170  TYR170     -0.0201
    105  CD1       11.3200 -146.0440   13.8930 C.ar  170  TYR170     -0.0009
    106  CD2       13.2030 -146.4190   12.4810 C.ar  170  TYR170     -0.0009
    107  CE1       11.7620 -147.0320   14.7560 C.ar  170  TYR170      0.0417
    108  CE2       13.6540 -147.4070   13.3410 C.ar  170  TYR170      0.0417
    109  CZ        12.9290 -147.7090   14.4760 C.ar  170  TYR170      0.1957
    110  OH        13.3680 -148.6900   15.3340 O.3   170  TYR170     -0.2866
@<TRIPOS>BOND
     1    89    90    1
     2    92    91    2
     3    96    95    2
     4    95    94    1
     5    90    91    1
     6    91    93   am
     7     4     3    2
     8     3     2    1
     9    51    50    2
    10    50    49    1
    11    57    58    1
    12     7     5    1
    13    93    94    1
    14    52    49    1
    15    52    53    1
    16    94    97    1
    17    49    48    1
    18     2     5    1
    19     2     1    1
    20    60    59    2
    21    69    66    1
    22    54    53    1
    23    54    55    1
    24     5     6    1
    25    58    59    1
    26    58    61    1
    27    59    65   am
    28    98    97    1
    29    44    43    2
    30    56    55    1
    31    65    66    1
    32     8     9    1
    33    18    16    1
    34    66    67    1
    35   101   102    2
    36   101   100    1
    37    61    62    1
    38    99   100    1
    39    62    63    1
    40    16    15    2
    41    16    17    1
    42    43    42    1
    43    12     9    1
    44    12    13    1
    45    15    14    1
    46   100   103    1
    47     9    10    1
    48    67    68    2
    49    67    70   am
    50    64    63    1
    51    14    13    1
    52   103   104    1
    53    41    42    1
    54    11    10    2
    55    42    45    1
    56    70    71    1
    57    10    19   am
    58   106   104   ar
    59   106   108   ar
    60    45    46    1
    61    45    47    1
    62   104   105   ar
    63    88    87    1
    64   108   109   ar
    65    87    84    1
    66    71    72    1
    67    19    20    1
    68    86    85    2
    69   105   107   ar
    70    84    85    1
    71    84    83    1
    72   109   107   ar
    73   109   110    1
    74    30    28    1
    75    72    73    2
    76    72    74   am
    77    20    21    1
    78    20    23    1
    79    29    28    1
    80    21    22    2
    81    21    24   am
    82    74    75    1
    83    77    76    2
    84    28    25    1
    85    24    25    1
    86    81    80    2
    87    76    75    1
    88    76    78   am
    89    79    78    1
    90    79    82    1
    91    79    80    1
    92    25    26    1
    93    36    37    1
    94    38    39    2
    95    38    37    1
    96    27    26    2
    97    26    31   am
    98    37    40    1
    99    31    32    1
   100    32    33    1
   101    32    35    1
   102    33    34    2
