@<TRIPOS>MOLECULE
tmp/4y8qK00.pdb
 133 126 0 0 0
SMALL
GASTEIGER

@<TRIPOS>ATOM
      1  N         11.9570 -140.2150    9.9350 N.3     1  THR1       -0.1218
      2  CA        11.6360 -139.3640    8.7630 C.3     1  THR1        0.1862
      3  C         12.2080 -139.7290    7.4090 C.2     1  THR1        0.2287
      4  O         13.2660 -140.2740    7.3040 O.2     1  THR1       -0.2866
      5  CB        12.1000 -137.9620    9.0430 C.3     1  THR1        0.1770
      6  OG1       11.3900 -137.5860   10.1320 O.3     1  THR1       -0.2211
      7  CG2       11.7560 -136.9700    7.9670 C.3     1  THR1        0.0375
      8  N          5.3630 -139.0540    9.8160 N.3    19  ARG19      -0.1231
      9  CA         5.4590 -139.9240   10.9880 C.3    19  ARG19       0.1694
     10  C          6.3870 -139.3540   12.0530 C.2    19  ARG19       0.2592
     11  O          7.4240 -138.7740   11.7390 O.2    19  ARG19      -0.2718
     12  CB         5.9430 -141.3230   10.6030 C.3    19  ARG19       0.0321
     13  CG         6.0400 -142.2720   11.7960 C.3    19  ARG19       0.0489
     14  CD         6.2170 -143.7250   11.3910 C.3    19  ARG19       0.2205
     15  NE         5.0180 -144.2760   10.7650 N.pl3  19  ARG19      -0.0865
     16  CZ         4.8230 -145.5650   10.5000 C.cat  19  ARG19       0.5346
     17  NH1        5.7460 -146.4740   10.8080 N.pl3  19  ARG19       0.1354
     18  NH2        3.6920 -145.9520    9.9220 N.pl3  19  ARG19       0.1354
     19  N          6.0030 -139.5320   13.3140 N.am   20  ALA20      -0.1966
     20  CA         6.8760 -139.2410   14.4460 C.3    20  ALA20       0.1728
     21  C          7.0300 -140.5110   15.2750 C.2    20  ALA20       0.2617
     22  O          6.0520 -141.2260   15.5020 O.2    20  ALA20      -0.2715
     23  CB         6.3020 -138.1190   15.2930 C.3    20  ALA20       0.0334
     24  N          8.2550 -140.7870   15.7190 N.am   21  THR21      -0.1937
     25  CA         8.5380 -141.9840   16.5080 C.3    21  THR21       0.2028
     26  C          9.3270 -141.6700   17.7720 C.2    21  THR21       0.2642
     27  O         10.1330 -140.7420   17.8010 O.2    21  THR21      -0.2714
     28  CB         9.3480 -143.0250   15.7060 C.3    21  THR21       0.1808
     29  OG1       10.6380 -142.4920   15.3750 O.3    21  THR21      -0.2208
     30  CG2        8.6120 -143.4260   14.4320 C.3    21  THR21       0.0379
     31  N          9.0760 -142.4580   18.8130 N.am   22  ALA22      -0.1977
     32  CA         9.9080 -142.4770   20.0100 C.3    22  ALA22       0.1597
     33  C         10.4310 -143.9000   20.1560 C.2    22  ALA22       0.2287
     34  O          9.8100 -144.7380   20.8090 O.2    22  ALA22      -0.2864
     35  CB         9.1040 -142.0600   21.2300 C.3    22  ALA22       0.0319
     36  N          4.5750 -142.3920   17.5240 N.3    27  ALA27      -0.1245
     37  CA         4.0040 -141.3130   18.3290 C.3    27  ALA27       0.1562
     38  C          2.9100 -140.5620   17.5880 C.2    27  ALA27       0.2260
     39  O          1.8820 -140.2220   18.1760 O.2    27  ALA27      -0.2867
     40  CB         5.0930 -140.3460   18.7600 C.3    27  ALA27       0.0290
     41  N          2.0730 -135.4210   11.4350 N.3    31  VAL31      -0.1231
     42  CA         3.0290 -134.3460   11.7200 C.3    31  VAL31       0.1692
     43  C          3.3180 -133.4950   10.4820 C.2    31  VAL31       0.2592
     44  O          3.4350 -134.0190    9.3710 O.2    31  VAL31      -0.2718
     45  CB         4.3470 -134.9250   12.2870 C.3    31  VAL31       0.0266
     46  CG1        5.4800 -133.9130   12.2250 C.3    31  VAL31       0.0020
     47  CG2        4.1410 -135.3890   13.7200 C.3    31  VAL31       0.0020
     48  N          3.4380 -132.1830   10.6940 N.am   32  LYS32      -0.1966
     49  CA         3.8020 -131.2360    9.6350 C.3    32  LYS32       0.1728
     50  C          5.3090 -131.0050    9.6160 C.2    32  LYS32       0.2616
     51  O          5.8400 -130.2960   10.4690 O.2    32  LYS32      -0.2715
     52  CB         3.0960 -129.8910    9.8380 C.3    32  LYS32       0.0311
     53  CG         1.7170 -129.7950    9.2040 C.3    32  LYS32       0.0038
     54  CD         1.3540 -128.3500    8.8810 C.3    32  LYS32       0.0206
     55  CE         2.0360 -127.8680    7.6060 C.3    32  LYS32       0.1093
     56  NZ         1.7840 -126.4250    7.3360 N.3    32  LYS32      -0.1314
     57  N          5.9900 -131.5950    8.6360 N.am   33  LYS33      -0.1977
     58  CA         7.4520 -131.5080    8.5390 C.3    33  LYS33       0.1596
     59  C          7.9340 -130.4340    7.5660 C.2    33  LYS33       0.2287
     60  O          9.1380 -130.2360    7.4090 O.2    33  LYS33      -0.2864
     61  CB         8.0340 -132.8690    8.1620 C.3    33  LYS33       0.0298
     62  CG         7.8580 -133.8900    9.2670 C.3    33  LYS33       0.0038
     63  CD         8.3900 -135.2550    8.8830 C.3    33  LYS33       0.0206
     64  CE         7.8720 -136.3080    9.8420 C.3    33  LYS33       0.1093
     65  NZ         8.5340 -137.6160    9.6220 N.3    33  LYS33      -0.1314
     66  N         11.8980 -130.5190    7.8560 N.3    45  MET45      -0.1230
     67  CA        12.3320 -130.9600    9.1800 C.3    45  MET45       0.1702
     68  C         12.6440 -132.4510    9.2160 C.2    45  MET45       0.2592
     69  O         11.8350 -133.2750    8.7850 O.2    45  MET45      -0.2718
     70  CB        11.2440 -130.6790   10.2090 C.3    45  MET45       0.0401
     71  CG        10.8990 -129.2150   10.3740 C.3    45  MET45       0.0596
     72  SD         9.6250 -128.9980   11.6240 S.3    45  MET45      -0.1393
     73  CE         9.1410 -127.3170   11.2800 C.3    45  MET45       0.0692
     74  N         13.8150 -132.7870    9.7510 N.am   46  ALA46      -0.1966
     75  CA        14.1940 -134.1780    9.9870 C.3    46  ALA46       0.1728
     76  C         15.1530 -134.2550   11.1690 C.2    46  ALA46       0.2617
     77  O         16.0380 -133.4110   11.3130 O.2    46  ALA46      -0.2715
     78  CB        14.8320 -134.7790    8.7470 C.3    46  ALA46       0.0334
     79  N         14.9620 -135.2620   12.0170 N.am   47  GLY47      -0.1940
     80  CA        15.8060 -135.4550   13.1930 C.3    47  GLY47       0.2014
     81  C         15.0790 -135.0970   14.4750 C.2    47  GLY47       0.2639
     82  O         13.9040 -135.4290   14.6440 O.2    47  GLY47      -0.2714
     83  N         15.7840 -134.4250   15.3830 N.am   48  GLY48      -0.1939
     84  CA        15.1910 -133.9540   16.6290 C.3    48  GLY48       0.2014
     85  C         14.0320 -133.0220   16.3320 C.2    48  GLY48       0.2639
     86  O         14.1910 -132.0250   15.6260 O.2    48  GLY48      -0.2714
     87  N         12.8600 -133.3460   16.8640 N.am   49  ALA49      -0.1963
     88  CA        11.6310 -132.6500   16.4820 C.3    49  ALA49       0.1728
     89  C         11.4840 -131.2820   17.1360 C.2    49  ALA49       0.2616
     90  O         11.0030 -130.3490   16.5030 O.2    49  ALA49      -0.2715
     91  CB        10.4180 -133.5120   16.7860 C.3    49  ALA49       0.0334
     92  N         11.8860 -131.1660   18.3990 N.am   50  ALA50      -0.1977
     93  CA        11.8660 -129.8810   19.0920 C.3    50  ALA50       0.1597
     94  C         12.9310 -128.9700   18.4960 C.2    50  ALA50       0.2287
     95  O         12.6730 -127.7970   18.2270 O.2    50  ALA50      -0.2864
     96  CB        12.1040 -130.0690   20.5820 C.3    50  ALA50       0.0319
     97  N         14.1910 -129.1000   15.4720 N.3    52  CYS52      -0.1221
     98  CA        13.7010 -128.6800   14.1590 C.3    52  CYS52       0.1808
     99  C         12.5720 -127.6560   14.2700 C.2    52  CYS52       0.2601
    100  O         12.6150 -126.6080   13.6270 O.2    52  CYS52      -0.2717
    101  CB        13.2260 -129.8890   13.3450 C.3    52  CYS52       0.0970
    102  SG        14.5630 -130.8700   12.6370 S.3    52  CYS52      -0.0800
    103  N         11.5740 -127.9610   15.0950 N.am   53  GLN53      -0.1979
    104  CA        10.3820 -127.1120   15.2100 C.3    53  GLN53       0.1601
    105  C         10.7500 -125.7300   15.7370 C.2    53  GLN53       0.2287
    106  O         10.3930 -124.7160   15.1500 O.2    53  GLN53      -0.2864
    107  CB         9.3380 -127.7520   16.1360 C.3    53  GLN53       0.0394
    108  CG         7.9260 -127.7140   15.5890 C.3    53  GLN53       0.0908
    109  CD         6.9320 -128.4030   16.5030 C.2    53  GLN53       0.2608
    110  OE1        6.7550 -128.0020   17.6530 O.2    53  GLN53      -0.2717
    111  NE2        6.2710 -129.4400   15.9950 N.am   53  GLN53      -0.0878
    112  N         16.9240 -137.9020    6.1390 N.3   130  GLY130     -0.1210
    113  CA        16.1750 -138.6820    7.1200 C.3   130  GLY130      0.1956
    114  C         16.5790 -140.1460    7.1540 C.2   130  GLY130      0.2612
    115  O         17.3870 -140.6000    6.3430 O.2   130  GLY130     -0.2717
    116  N         15.9980 -140.8820    8.0980 N.am  131  SER131     -0.1952
    117  CA        16.2440 -142.3150    8.2500 C.3   131  SER131      0.1924
    118  C         15.9140 -143.1190    6.9900 C.2   131  SER131      0.2314
    119  O         16.5220 -144.1610    6.7400 O.2   131  SER131     -0.2863
    120  CB        15.4290 -142.8630    9.4230 C.3   131  SER131      0.2116
    121  OG        14.0400 -142.6550    9.2200 O.3   131  SER131     -0.2180
    122  N         10.6340 -146.3920   10.2660 N.3   170  TYR170     -0.1241
    123  CA        10.5050 -145.1020   10.9450 C.3   170  TYR170      0.1605
    124  C         10.0430 -143.9700   10.0160 C.2   170  TYR170      0.2264
    125  O         10.2330 -142.7940   10.3220 O.2   170  TYR170     -0.2867
    126  CB        11.8300 -144.7380   11.6200 C.3   170  TYR170      0.0534
    127  CG        12.3210 -145.8130   12.5650 C.ar  170  TYR170     -0.0201
    128  CD1       11.5920 -146.1500   13.6990 C.ar  170  TYR170     -0.0009
    129  CD2       13.5070 -146.4990   12.3210 C.ar  170  TYR170     -0.0009
    130  CE1       12.0300 -147.1350   14.5650 C.ar  170  TYR170      0.0417
    131  CE2       13.9550 -147.4850   13.1840 C.ar  170  TYR170      0.0417
    132  CZ        13.2130 -147.7980   14.3030 C.ar  170  TYR170      0.1957
    133  OH        13.6520 -148.7770   15.1630 O.3   170  TYR170     -0.2866
@<TRIPOS>BOND
     1   112   113    1
     2   115   114    2
     3   119   118    2
     4   118   117    1
     5   113   114    1
     6   114   116   am
     7     4     3    2
     8    56    55    1
     9    60    59    2
    10     3     2    1
    11    59    58    1
    12    55    54    1
    13    66    67    1
    14     7     5    1
    15   116   117    1
    16    61    58    1
    17    61    62    1
    18   117   120    1
    19    58    57    1
    20    57    50   am
    21    78    75    1
    22     2     5    1
    23     2     1    1
    24    69    68    2
    25    54    53    1
    26    63    62    1
    27    63    64    1
    28     5     6    1
    29    67    68    1
    30    67    70    1
    31    53    52    1
    32    68    74   am
    33   121   120    1
    34    44    43    2
    35    50    49    1
    36    50    51    2
    37    65    64    1
    38    49    52    1
    39    49    48    1
    40    74    75    1
    41     8     9    1
    42    18    16    1
    43    75    76    1
    44   124   125    2
    45   124   123    1
    46    70    71    1
    47   122   123    1
    48    71    72    1
    49    43    48   am
    50    43    42    1
    51    16    15    2
    52    16    17    1
    53    12     9    1
    54    12    13    1
    55    15    14    1
    56   123   126    1
    57     9    10    1
    58    76    77    2
    59    76    79   am
    60    73    72    1
    61    14    13    1
    62    41    42    1
    63   126   127    1
    64    42    45    1
    65    11    10    2
    66    79    80    1
    67    10    19   am
    68    46    45    1
    69    45    47    1
    70   129   127   ar
    71   129   131   ar
    72   127   128   ar
    73   102   101    1
    74   131   132   ar
    75    80    81    1
    76    19    20    1
    77   101    98    1
    78   100    99    2
    79   128   130   ar
    80    98    99    1
    81    98    97    1
    82    99   103   am
    83   132   130   ar
    84   132   133    1
    85    30    28    1
    86    20    21    1
    87    20    23    1
    88    81    82    2
    89    81    83   am
    90   103   104    1
    91   106   105    2
    92   104   105    1
    93   104   107    1
    94    21    22    2
    95    21    24   am
    96    29    28    1
    97    83    84    1
    98   108   107    1
    99   108   109    1
   100    86    85    2
   101    28    25    1
   102    24    25    1
   103   111   109   am
   104    85    84    1
   105    85    87   am
   106    88    91    1
   107    88    87    1
   108    88    89    1
   109   109   110    2
   110    90    89    2
   111    25    26    1
   112    89    92   am
   113    36    37    1
   114    38    39    2
   115    38    37    1
   116    26    27    2
   117    26    31   am
   118    95    94    2
   119    37    40    1
   120    92    93    1
   121    94    93    1
   122    31    32    1
   123    93    96    1
   124    32    33    1
   125    32    35    1
   126    33    34    2
