@<TRIPOS>MOLECULE
tmp/4y8vA00.pdb
 97 91 0 0 0
SMALL
GASTEIGER

@<TRIPOS>ATOM
      1  N         54.0130   19.3470   84.0750 N.3   104  GLU104     -0.1245
      2  CA        54.6050   18.6450   82.9410 C.3   104  GLU104      0.1567
      3  C         53.9860   19.0910   81.6150 C.2   104  GLU104      0.2260
      4  O         54.5720   18.8670   80.5570 O.2   104  GLU104     -0.2867
      5  CB        54.4720   17.1200   83.1090 C.3   104  GLU104      0.0388
      6  CG        53.1600   16.4900   82.6240 C.3   104  GLU104      0.1160
      7  CD        52.0300   16.6360   83.6220 C.2   104  GLU104      0.3649
      8  OE1       50.9860   15.9790   83.4260 O.co2 104  GLU104     -0.2457
      9  OE2       52.1830   17.4020   84.5990 O.co2 104  GLU104     -0.2457
     10  N         50.9240   13.2980   88.5140 N.3   129  ASN129     -0.1240
     11  CA        51.2850   12.6790   87.2430 C.3   129  ASN129      0.1653
     12  C         52.0970   11.4050   87.4810 C.2   129  ASN129      0.2266
     13  O         53.2450   11.2960   87.0560 O.2   129  ASN129     -0.2867
     14  CB        52.0530   13.6800   86.3670 C.3   129  ASN129      0.1155
     15  CG        52.3850   13.1320   84.9940 C.2   129  ASN129      0.2627
     16  OD1       51.6170   12.3710   84.4060 O.2   129  ASN129     -0.2716
     17  ND2       53.5300   13.5390   84.4670 N.am  129  ASN129     -0.0877
     18  N         61.0390    8.2560   87.9870 N.3   159  GLN159     -0.1231
     19  CA        60.5950    9.5950   87.6430 C.3   159  GLN159      0.1698
     20  C         59.7100    9.5450   86.4000 C.2   159  GLN159      0.2593
     21  O         58.8680   10.4170   86.2010 O.2   159  GLN159     -0.2718
     22  CB        61.8010   10.5190   87.4170 C.3   159  GLN159      0.0381
     23  CG        61.4570   11.9900   87.1820 C.3   159  GLN159      0.0905
     24  CD        62.6630   12.9170   87.3270 C.2   159  GLN159      0.2608
     25  OE1       63.7910   12.4660   87.5460 O.2   159  GLN159     -0.2717
     26  NE2       62.4250   14.2180   87.1970 N.am  159  GLN159     -0.0878
     27  N         59.9060    8.5200   85.5680 N.am  160  SER160     -0.1938
     28  CA        59.1090    8.3500   84.3480 C.3   160  SER160      0.2055
     29  C         57.8980    7.4450   84.5630 C.2   160  SER160      0.2644
     30  O         58.0000    6.3840   85.1810 O.2   160  SER160     -0.2714
     31  CB        59.9690    7.7840   83.2160 C.3   160  SER160      0.2130
     32  OG        59.1610    7.1420   82.2400 O.3   160  SER160     -0.2179
     33  N         56.7570    7.8690   84.0320 N.am  161  GLY161     -0.1939
     34  CA        55.5160    7.1330   84.1730 C.3   161  GLY161      0.2014
     35  C         55.4410    5.9350   83.2450 C.2   161  GLY161      0.2639
     36  O         55.2730    4.8010   83.6960 O.2   161  GLY161     -0.2714
     37  N         55.5560    6.1860   81.9440 N.am  162  ALA162     -0.1963
     38  CA        55.4540    5.1230   80.9510 C.3   162  ALA162      0.1728
     39  C         56.5830    4.1020   81.0930 C.2   162  ALA162      0.2616
     40  O         56.3290    2.8980   81.1560 O.2   162  ALA162     -0.2715
     41  CB        55.4550    5.7120   79.5490 C.3   162  ALA162      0.0334
     42  N         57.8250    4.5700   81.1660 N.am  163  LEU163     -0.1977
     43  CA        58.9420    3.6420   81.3000 C.3   163  LEU163      0.1596
     44  C         58.8850    2.9410   82.6520 C.2   163  LEU163      0.2287
     45  O         59.2110    1.7620   82.7600 O.2   163  LEU163     -0.2864
     46  CB        60.2880    4.3510   81.1340 C.3   163  LEU163      0.0297
     47  CG        61.5140    3.4280   81.2110 C.3   163  LEU163      0.0022
     48  CD1       61.4390    2.2960   80.1870 C.3   163  LEU163      0.0001
     49  CD2       62.7990    4.2170   81.0290 C.3   163  LEU163      0.0001
     50  N         57.0710   10.6260   89.4850 N.3   185  GLY185     -0.1210
     51  CA        56.6310   11.5550   88.4540 C.3   185  GLY185      0.1956
     52  C         57.1670   12.9710   88.5910 C.2   185  GLY185      0.2611
     53  O         58.3780   13.1770   88.6980 O.2   185  GLY185     -0.2717
     54  N         56.2500   13.9350   88.6250 N.am  186  ASN186     -0.1974
     55  CA        56.5970   15.3520   88.6740 C.3   186  ASN186      0.1688
     56  C         57.3910   15.7650   89.9170 C.2   186  ASN186      0.2292
     57  O         58.0520   16.8050   89.9150 O.2   186  ASN186     -0.2864
     58  CB        55.3150   16.1810   88.5640 C.3   186  ASN186      0.1181
     59  CG        54.6950   16.0960   87.1810 C.2   186  ASN186      0.2629
     60  OD1       55.0940   15.2530   86.3710 O.2   186  ASN186     -0.2716
     61  ND2       53.7360   16.9710   86.8980 N.am  186  ASN186     -0.0877
     62  N         65.8420   11.4640   86.1050 N.3   213  GLU213     -0.1245
     63  CA        66.2100   12.4370   85.0820 C.3   213  GLU213      0.1567
     64  C         66.9390   13.6050   85.7320 C.2   213  GLU213      0.2260
     65  O         67.9850   14.0410   85.2470 O.2   213  GLU213     -0.2867
     66  CB        64.9770   12.9280   84.3220 C.3   213  GLU213      0.0388
     67  CG        65.3010   13.8770   83.1690 C.3   213  GLU213      0.1160
     68  CD        65.4920   15.3170   83.6230 C.2   213  GLU213      0.3649
     69  OE1       64.6360   15.8190   84.3870 O.co2 213  GLU213     -0.2457
     70  OE2       66.4980   15.9440   83.2270 O.co2 213  GLU213     -0.2457
     71  N         68.5080   17.9510   75.5500 N.3   250  ALA250     -0.1231
     72  CA        67.2070   17.5000   75.0700 C.3   250  ALA250      0.1694
     73  C         66.1590   17.5750   76.1800 C.2   250  ALA250      0.2591
     74  O         65.0650   18.1060   75.9870 O.2   250  ALA250     -0.2718
     75  CB        67.3080   16.0830   74.5220 C.3   250  ALA250      0.0304
     76  N         66.5080   17.0540   77.3540 N.am  251  ALA251     -0.1980
     77  CA        65.5990   17.0490   78.4990 C.3   251  ALA251      0.1597
     78  C         65.3560   18.4640   79.0220 C.2   251  ALA251      0.2287
     79  O         64.3100   18.7610   79.6080 O.2   251  ALA251     -0.2864
     80  CB        66.1490   16.1670   79.6070 C.3   251  ALA251      0.0319
     81  N         62.7630   20.2240   76.6070 N.3   254  HIS254     -0.1226
     82  CA        61.4260   19.6720   76.7890 C.3   254  HIS254      0.1752
     83  C         60.7040   20.3030   77.9730 C.2   254  HIS254      0.2596
     84  O         59.5050   20.5730   77.9070 O.2   254  HIS254     -0.2718
     85  CB        61.5030   18.1590   76.9980 C.3   254  HIS254      0.0759
     86  CG        60.1660   17.4870   77.0200 C.ar  254  HIS254      0.0818
     87  ND1       59.4500   17.2930   78.1820 N.ar  254  HIS254     -0.2268
     88  CD2       59.4180   16.9570   76.0240 C.ar  254  HIS254      0.1154
     89  CE1       58.3140   16.6790   77.8990 C.ar  254  HIS254      0.1986
     90  NE2       58.2710   16.4610   76.5970 N.ar  254  HIS254     -0.2212
     91  N         61.4460   20.5340   79.0500 N.am  255  THR255     -0.1953
     92  CA        60.8900   21.1040   80.2730 C.3   255  THR255      0.1897
     93  C         61.1050   22.6150   80.3770 C.2   255  THR255      0.2313
     94  O         60.5710   23.2630   81.2780 O.2   255  THR255     -0.2863
     95  CB        61.5180   20.4390   81.5040 C.3   255  THR255      0.1794
     96  OG1       62.9320   20.6660   81.5000 O.3   255  THR255     -0.2208
     97  CG2       61.2320   18.9370   81.5030 C.3   255  THR255      0.0378
@<TRIPOS>BOND
     1    75    72    1
     2    72    71    1
     3    72    73    1
     4    74    73    2
     5    88    90   ar
     6    88    86   ar
     7    73    76   am
     8    90    89   ar
     9    81    82    1
    10    82    85    1
    11    82    83    1
    12    85    86    1
    13    86    87   ar
    14    76    77    1
    15    89    87   ar
    16    84    83    2
    17    83    91   am
    18    77    78    1
    19    77    80    1
    20    78    79    2
    21    91    92    1
    22    41    38    1
    23    48    47    1
    24    92    93    1
    25    92    95    1
    26    93    94    2
    27     4     3    2
    28    38    39    1
    29    38    37    1
    30    49    47    1
    31    39    40    2
    32    39    42   am
    33    46    47    1
    34    46    43    1
    35    42    43    1
    36    43    44    1
    37    96    95    1
    38    97    95    1
    39     3     2    1
    40    37    35   am
    41    32    31    1
    42     6     5    1
    43     6     7    1
    44    44    45    2
    45     2     5    1
    46     2     1    1
    47    67    68    1
    48    67    66    1
    49    31    28    1
    50    70    68   ar
    51    35    36    2
    52    35    34    1
    53     8     7   ar
    54     7     9   ar
    55    68    69   ar
    56    33    34    1
    57    33    29   am
    58    66    63    1
    59    28    29    1
    60    28    27    1
    61    16    15    2
    62    17    15   am
    63    29    30    2
    64    15    14    1
    65    63    64    1
    66    63    62    1
    67    65    64    2
    68    27    20   am
    69    21    20    2
    70    14    11    1
    71    60    59    2
    72    20    19    1
    73    61    59   am
    74    13    12    2
    75    59    58    1
    76    23    24    1
    77    23    22    1
    78    26    24   am
    79    11    12    1
    80    11    10    1
    81    24    25    2
    82    22    19    1
    83    19    18    1
    84    51    52    1
    85    51    50    1
    86    58    55    1
    87    52    54   am
    88    52    53    2
    89    54    55    1
    90    55    56    1
    91    57    56    2
