@<TRIPOS>MOLECULE
tmp/4y8vA01.pdb
 57 51 0 0 0
SMALL
GASTEIGER

@<TRIPOS>ATOM
      1  N         84.4680  -23.9500   80.6940 N.3   306  ASN306     -0.1225
      2  CA        84.7510  -25.1080   79.8440 C.3   306  ASN306      0.1785
      3  C         85.1500  -24.6960   78.4270 C.2   306  ASN306      0.2598
      4  O         85.0320  -25.4790   77.4890 O.2   306  ASN306     -0.2718
      5  CB        83.5480  -26.0570   79.7890 C.3   306  ASN306      0.1169
      6  CG        82.3910  -25.5170   78.9540 C.2   306  ASN306      0.2627
      7  OD1       82.2060  -24.3090   78.8090 O.2   306  ASN306     -0.2716
      8  ND2       81.5990  -26.4280   78.4020 N.am  306  ASN306     -0.0877
      9  N         85.6220  -23.4650   78.2750 N.am  307  GLY307     -0.1942
     10  CA        86.0400  -22.9670   76.9760 C.3   307  GLY307      0.2014
     11  C         86.9240  -21.7410   77.1010 C.2   307  GLY307      0.2639
     12  O         86.5740  -20.7890   77.8010 O.2   307  GLY307     -0.2714
     13  N         88.0690  -21.7600   76.4260 N.am  308  GLY308     -0.1939
     14  CA        88.9860  -20.6350   76.4430 C.3   308  GLY308      0.2014
     15  C         88.3300  -19.3570   75.9530 C.2   308  GLY308      0.2639
     16  O         88.4900  -18.2920   76.5500 O.2   308  GLY308     -0.2714
     17  N         87.5790  -19.4710   74.8610 N.am  309  GLY309     -0.1954
     18  CA        86.9440  -18.3280   74.2290 C.3   309  GLY309      0.1869
     19  C         86.0500  -17.5270   75.1550 C.2   309  GLY309      0.2309
     20  O         86.1610  -16.3020   75.2080 O.2   309  GLY309     -0.2863
     21  N         88.1090  -15.6550   77.6930 N.3   312  VAL312     -0.1245
     22  CA        88.7600  -14.4370   77.2180 C.3   312  VAL312      0.1561
     23  C         87.7680  -13.2740   77.1290 C.2   312  VAL312      0.2260
     24  O         88.1160  -12.1320   77.4460 O.2   312  VAL312     -0.2867
     25  CB        89.4440  -14.6600   75.8540 C.3   312  VAL312      0.0252
     26  CG1       89.9820  -13.3470   75.2880 C.3   312  VAL312      0.0019
     27  CG2       90.5710  -15.6770   75.9990 C.3   312  VAL312      0.0019
     28  N         93.9750  -25.4640   81.7670 N.3   345  SER345     -0.1217
     29  CA        94.7090  -24.2360   82.0540 C.3   345  SER345      0.1889
     30  C         94.2730  -23.6870   83.4070 C.2   345  SER345      0.2288
     31  O         93.0860  -23.6680   83.7140 O.2   345  SER345     -0.2866
     32  CB        94.4770  -23.1990   80.9550 C.3   345  SER345      0.2089
     33  OG        94.9420  -21.9230   81.3580 O.3   345  SER345     -0.2183
     34  N         95.5640  -20.5810   84.7770 N.3   347  ALA347     -0.1245
     35  CA        96.0250  -19.2060   84.9050 C.3   347  ALA347      0.1562
     36  C         95.0150  -18.3280   85.6460 C.2   347  ALA347      0.2260
     37  O         95.3850  -17.2980   86.2050 O.2   347  ALA347     -0.2867
     38  CB        96.3170  -18.6210   83.5300 C.3   347  ALA347      0.0290
     39  N         91.2470  -17.3060   84.0150 N.3   349  PRO349     -0.2116
     40  CA        90.2380  -18.3490   84.2490 C.3   349  PRO349      0.1372
     41  C         90.8030  -19.7660   84.3070 C.2   349  PRO349      0.2244
     42  O         91.7490  -20.0840   83.5930 O.2   349  PRO349     -0.2868
     43  CB        89.3050  -18.2170   83.0420 C.3   349  PRO349      0.0268
     44  CG        89.5050  -16.8440   82.5400 C.3   349  PRO349      0.0207
     45  CD        90.9420  -16.5170   82.8070 C.3   349  PRO349      0.0892
     46  N         90.3940  -23.2480   83.1220 N.3   351  ASP351     -0.1239
     47  CA        89.7840  -23.8580   81.9490 C.3   351  ASP351      0.1674
     48  C         89.7450  -25.3730   82.1190 C.2   351  ASP351      0.2266
     49  O         90.7680  -26.0420   81.9940 O.2   351  ASP351     -0.2867
     50  CB        90.5700  -23.4740   80.6920 C.3   351  ASP351      0.1410
     51  CG        89.9400  -24.0060   79.4180 C.2   351  ASP351      0.3668
     52  OD1       88.8880  -24.6760   79.4920 O.co2 351  ASP351     -0.2456
     53  OD2       90.5050  -23.7540   78.3300 O.co2 351  ASP351     -0.2456
     54  N         86.6440  -28.1360   77.0150 N.3   354  GLY354     -0.1225
     55  CA        85.3860  -28.4280   76.3650 C.3   354  GLY354      0.1811
     56  C         84.9340  -29.8670   76.5330 C.2   354  GLY354      0.2280
     57  O         83.7970  -30.1780   76.1960 O.2   354  GLY354     -0.2866
@<TRIPOS>BOND
     1    18    17    1
     2    18    19    1
     3    17    15   am
     4    19    20    2
     5    26    25    1
     6    25    27    1
     7    25    22    1
     8    15    14    1
     9    15    16    2
    10    57    56    2
    11    55    56    1
    12    55    54    1
    13    13    14    1
    14    13    11   am
    15    10    11    1
    16    10     9    1
    17    11    12    2
    18    23    22    1
    19    23    24    2
    20    22    21    1
    21     4     3    2
    22     9     3   am
    23    53    51   ar
    24     8     6   am
    25     3     2    1
    26     7     6    2
    27     6     5    1
    28    51    52   ar
    29    51    50    1
    30     5     2    1
    31     2     1    1
    32    50    47    1
    33    32    33    1
    34    32    29    1
    35    28    29    1
    36    47    48    1
    37    47    46    1
    38    49    48    2
    39    29    30    1
    40    44    45    1
    41    44    43    1
    42    45    39    1
    43    43    40    1
    44    30    31    2
    45    38    35    1
    46    42    41    2
    47    39    40    1
    48    40    41    1
    49    34    35    1
    50    35    36    1
    51    36    37    2
