@<TRIPOS>MOLECULE
tmp/4y8zA00.pdb
 202 200 0 0 0
SMALL
GASTEIGER

@<TRIPOS>ATOM
      1  N         49.4920  -27.5910   37.5440 N.3    26  ARG26      -0.1231
      2  CA        49.2790  -26.2010   37.1560 C.3    26  ARG26       0.1694
      3  C         47.8260  -25.8120   37.4070 C.2    26  ARG26       0.2592
      4  O         46.9630  -26.6890   37.4840 O.2    26  ARG26      -0.2718
      5  CB        49.6480  -25.9740   35.6730 C.3    26  ARG26       0.0321
      6  CG        48.7100  -26.6610   34.6910 C.3    26  ARG26       0.0489
      7  CD        49.0890  -26.3510   33.2600 C.3    26  ARG26       0.2205
      8  NE        48.2880  -27.1350   32.3200 N.pl3  26  ARG26      -0.0865
      9  CZ        47.0640  -26.8130   31.9110 C.cat  26  ARG26       0.5346
     10  NH1       46.4730  -25.7120   32.3630 N.pl3  26  ARG26       0.1354
     11  NH2       46.4190  -27.5910   31.0550 N.pl3  26  ARG26       0.1354
     12  N         47.5600  -24.4910   37.5100 N.am   27  HIS27      -0.1962
     13  CA        46.2170  -23.9390   37.6350 C.3    27  HIS27       0.1787
     14  C         45.5540  -24.2270   36.3120 C.2    27  HIS27       0.2620
     15  O         46.1700  -24.0570   35.2590 O.2    27  HIS27      -0.2715
     16  CB        46.2790  -22.4310   37.8620 C.3    27  HIS27       0.0785
     17  CG        44.9530  -21.7280   37.6980 C.ar   27  HIS27       0.0821
     18  ND1       44.0870  -21.5560   38.7720 N.ar   27  HIS27      -0.2267
     19  CD2       44.3980  -21.1770   36.5900 C.ar   27  HIS27       0.1154
     20  CE1       43.0510  -20.9040   38.2890 C.ar   27  HIS27       0.1986
     21  NE2       43.1940  -20.6510   36.9740 N.ar   27  HIS27      -0.2212
     22  N         44.3280  -24.7120   36.3690 N.am   28  LEU28      -0.1963
     23  CA        43.5450  -25.0630   35.2060 C.3    28  LEU28       0.1728
     24  C         42.4140  -24.0820   34.9920 C.2    28  LEU28       0.2616
     25  O         42.2150  -23.6000   33.8660 O.2    28  LEU28      -0.2715
     26  CB        42.9890  -26.4930   35.3770 C.3    28  LEU28       0.0311
     27  CG        42.2240  -27.0850   34.1930 C.3    28  LEU28       0.0022
     28  CD1       43.1480  -27.3250   33.0000 C.3    28  LEU28       0.0001
     29  CD2       41.4760  -28.3520   34.6000 C.3    28  LEU28       0.0001
     30  N         41.6470  -23.7990   36.0660 N.am   29  CYS29      -0.1968
     31  CA        40.4210  -23.0080   36.0030 C.3    29  CYS29       0.1712
     32  C         40.0540  -22.5170   37.4120 C.2    29  CYS29       0.2296
     33  O         40.5950  -23.0200   38.4030 O.2    29  CYS29      -0.2864
     34  CB        39.2950  -23.8840   35.4310 C.3    29  CYS29       0.0983
     35  SG        39.3100  -24.0750   33.6170 S.3    29  CYS29      -0.0798
     36  N         33.7360  -26.7320   29.9480 N.3    44  HIS44      -0.1226
     37  CA        34.8450  -26.7500   28.9610 C.3    44  HIS44       0.1752
     38  C         36.2090  -26.9280   29.6150 C.2    44  HIS44       0.2596
     39  O         37.1310  -27.3520   28.9180 O.2    44  HIS44      -0.2718
     40  CB        34.8320  -25.5670   27.9580 C.3    44  HIS44       0.0759
     41  CG        35.3800  -24.2730   28.4840 C.ar   44  HIS44       0.0818
     42  ND1       34.5510  -23.2990   28.9940 N.ar   44  HIS44      -0.2268
     43  CD2       36.6610  -23.8360   28.5580 C.ar   44  HIS44       0.1154
     44  CE1       35.3430  -22.3100   29.3810 C.ar   44  HIS44       0.1986
     45  NE2       36.6230  -22.5910   29.1540 N.ar   44  HIS44      -0.2212
     46  N         36.3160  -26.6750   30.9530 N.am   45  CYS45      -0.1970
     47  CA        37.5500  -26.8290   31.7340 C.3    45  CYS45       0.1712
     48  C         38.0890  -28.2510   31.7310 C.2    45  CYS45       0.2296
     49  O         39.2910  -28.4620   31.9310 O.2    45  CYS45      -0.2864
     50  CB        37.3480  -26.3330   33.1640 C.3    45  CYS45       0.0983
     51  SG        37.3550  -24.5330   33.3290 S.3    45  CYS45      -0.0798
     52  N         38.0010  -30.5010   29.1720 N.3    47  TYR47      -0.1241
     53  CA        38.3180  -31.1080   27.8690 C.3    47  TYR47       0.1605
     54  C         39.6460  -31.8190   27.9900 C.2    47  TYR47       0.2264
     55  O         40.6280  -31.2160   28.4120 O.2    47  TYR47      -0.2867
     56  CB        38.3950  -30.0690   26.7450 C.3    47  TYR47       0.0534
     57  CG        38.8200  -30.6630   25.4120 C.ar   47  TYR47      -0.0201
     58  CD1       40.1670  -30.8700   25.1130 C.ar   47  TYR47      -0.0009
     59  CD2       37.8810  -30.9980   24.4450 C.ar   47  TYR47      -0.0009
     60  CE1       40.5680  -31.3550   23.8670 C.ar   47  TYR47       0.0417
     61  CE2       38.2680  -31.5030   23.2020 C.ar   47  TYR47       0.0417
     62  CZ        39.6140  -31.6660   22.9130 C.ar   47  TYR47       0.1957
     63  OH        40.0020  -32.1620   21.6920 O.3    47  TYR47      -0.2866
     64  N         45.1890  -14.5090   32.5980 N.3   134  TYR134     -0.1241
     65  CA        46.0150  -13.5490   31.8510 C.3   134  TYR134      0.1605
     66  C         45.4750  -12.1340   31.9790 C.2   134  TYR134      0.2264
     67  O         44.2560  -11.9390   32.0600 O.2   134  TYR134     -0.2867
     68  CB        45.9930  -13.9030   30.3520 C.3   134  TYR134      0.0534
     69  CG        46.7500  -15.1300   29.8900 C.ar  134  TYR134     -0.0201
     70  CD1       47.1300  -16.1260   30.7880 C.ar  134  TYR134     -0.0009
     71  CD2       47.0120  -15.3390   28.5350 C.ar  134  TYR134     -0.0009
     72  CE1       47.7880  -17.2810   30.3550 C.ar  134  TYR134      0.0417
     73  CE2       47.6800  -16.4800   28.0920 C.ar  134  TYR134      0.0417
     74  CZ        48.0690  -17.4480   29.0050 C.ar  134  TYR134      0.1957
     75  OH        48.7220  -18.5700   28.5490 O.3   134  TYR134     -0.2866
     76  N         46.1920  -10.9390   26.1370 N.3   137  LEU137     -0.1245
     77  CA        46.0200  -12.1680   25.3400 C.3   137  LEU137      0.1561
     78  C         47.1970  -13.1560   25.3760 C.2   137  LEU137      0.2260
     79  O         46.9640  -14.3680   25.4280 O.2   137  LEU137     -0.2867
     80  CB        45.6340  -11.8670   23.8840 C.3   137  LEU137      0.0270
     81  CG        44.8010  -12.9640   23.2060 C.3   137  LEU137      0.0019
     82  CD1       43.4130  -13.0790   23.8390 C.3   137  LEU137      0.0001
     83  CD2       44.7020  -12.7320   21.6970 C.3   137  LEU137      0.0001
     84  N         50.5900  -14.7370   31.1880 N.3   140  LYS140     -0.1231
     85  CA        50.7380  -15.9210   32.0140 C.3   140  LYS140      0.1693
     86  C         49.7550  -15.8740   33.1870 C.2   140  LYS140      0.2591
     87  O         49.1180  -14.8530   33.4300 O.2   140  LYS140     -0.2718
     88  CB        52.2020  -16.0460   32.5200 C.3   140  LYS140      0.0285
     89  CG        52.7220  -14.8970   33.3940 C.3   140  LYS140      0.0035
     90  CD        54.1110  -15.2380   33.9590 C.3   140  LYS140      0.0206
     91  CE        54.6270  -14.1350   34.8850 C.3   140  LYS140      0.1093
     92  NZ        53.7200  -13.8990   36.0310 N.3   140  LYS140     -0.1314
     93  N         49.6610  -16.9730   33.9230 N.am  141  ILE141     -0.1980
     94  CA        48.8340  -17.0960   35.1150 C.3   141  ILE141      0.1595
     95  C         49.3780  -16.1510   36.1620 C.2   141  ILE141      0.2287
     96  O         50.5810  -16.1180   36.3970 O.2   141  ILE141     -0.2864
     97  CB        48.7500  -18.5790   35.5860 C.3   141  ILE141      0.0276
     98  CG1       47.9880  -19.4310   34.5510 C.3   141  ILE141      0.0022
     99  CG2       48.1570  -18.7300   37.0040 C.3   141  ILE141      0.0022
    100  CD1       46.4280  -19.0760   34.2850 C.3   141  ILE141      0.0001
    101  N         37.6190   -7.3200   31.4920 N.3   182  ASP182     -0.1225
    102  CA        37.0130   -8.6000   31.0860 C.3   182  ASP182      0.1805
    103  C         37.7670   -9.7290   31.7110 C.2   182  ASP182      0.2598
    104  O         38.8710   -9.5470   32.2060 O.2   182  ASP182     -0.2718
    105  CB        37.1760   -8.7750   29.5440 C.3   182  ASP182      0.1424
    106  CG        36.3060   -9.8060   28.8190 C.2   182  ASP182      0.3668
    107  OD1       35.4280  -10.4270   29.4760 O.co2 182  ASP182     -0.2456
    108  OD2       36.4580   -9.9450   27.5820 O.co2 182  ASP182     -0.2456
    109  N         37.2110  -10.9250   31.5840 N.am  183  ALA183     -0.1966
    110  CA        37.8610  -12.1720   31.9620 C.3   183  ALA183      0.1728
    111  C         38.7830  -12.5500   30.8080 C.2   183  ALA183      0.2616
    112  O         38.5790  -12.0810   29.6770 O.2   183  ALA183     -0.2715
    113  CB        36.8100  -13.2500   32.1610 C.3   183  ALA183      0.0334
    114  N         39.8010  -13.3780   31.0890 N.am  184  CYS184     -0.1954
    115  CA        40.7500  -13.8650   30.0990 C.3   184  CYS184      0.1843
    116  C         41.1410  -15.3130   30.3890 C.2   184  CYS184      0.2625
    117  O         40.6500  -15.9030   31.3560 O.2   184  CYS184     -0.2714
    118  CB        41.9750  -12.9540   30.0080 C.3   184  CYS184      0.0997
    119  SG        42.8180  -13.0160   28.4000 S.3   184  CYS184     -0.0797
    120  N         42.0210  -15.8860   29.5540 N.am  185  LYS185     -0.1963
    121  CA        42.5640  -17.2450   29.6950 C.3   185  LYS185      0.1728
    122  C         43.0040  -17.5320   31.1520 C.2   185  LYS185      0.2616
    123  O         43.8690  -16.8470   31.6720 O.2   185  LYS185     -0.2715
    124  CB        43.7420  -17.4170   28.7350 C.3   185  LYS185      0.0311
    125  CG        43.2810  -17.5100   27.2780 C.3   185  LYS185      0.0038
    126  CD        44.3940  -17.3090   26.2770 C.3   185  LYS185      0.0206
    127  CE        43.8870  -17.4760   24.8660 C.3   185  LYS185      0.1093
    128  NZ        44.9820  -17.3610   23.8710 N.3   185  LYS185     -0.1314
    129  N         42.3990  -18.5280   31.7890 N.am  186  GLY186     -0.1955
    130  CA        42.7210  -18.9180   33.1660 C.3   186  GLY186      0.1869
    131  C         41.6800  -18.5190   34.1730 C.2   186  GLY186      0.2309
    132  O         41.7460  -18.9100   35.3540 O.2   186  GLY186     -0.2863
    133  N         38.1850  -18.7680   33.3390 N.3   188  SER188     -0.1217
    134  CA        36.9980  -19.6040   33.0840 C.3   188  SER188      0.1889
    135  C         36.6550  -20.5430   34.2220 C.2   188  SER188      0.2288
    136  O         37.5500  -21.0460   34.9170 O.2   188  SER188     -0.2866
    137  CB        37.0970  -20.3550   31.7650 C.3   188  SER188      0.2089
    138  OG        37.8720  -21.5220   31.9650 O.3   188  SER188     -0.2183
    139  N         32.3230  -17.6850   34.3780 N.3   206  THR206     -0.1203
    140  CA        33.1090  -17.2670   33.2130 C.3   206  THR206      0.1994
    141  C         33.1270  -18.3740   32.1770 C.2   206  THR206      0.2619
    142  O         33.4350  -19.5160   32.4940 O.2   206  THR206     -0.2717
    143  CB        34.5150  -16.8670   33.6420 C.3   206  THR206      0.1784
    144  OG1       34.4060  -15.8660   34.6410 O.3   206  THR206     -0.2211
    145  CG2       35.3740  -16.3740   32.4660 C.3   206  THR206      0.0376
    146  N         32.8110  -18.0430   30.9410 N.am  207  SER207     -0.1937
    147  CA        32.7180  -19.0970   29.9460 C.3   207  SER207      0.2055
    148  C         33.5060  -18.7740   28.7000 C.2   207  SER207      0.2643
    149  O         34.5070  -19.4280   28.4420 O.2   207  SER207     -0.2714
    150  CB        31.2390  -19.3940   29.6570 C.3   207  SER207      0.2130
    151  OG        31.0260  -20.2920   28.5840 O.3   207  SER207     -0.2179
    152  N         33.0950  -17.7730   27.9360 N.am  208  TRP208     -0.1959
    153  CA        33.8070  -17.4440   26.6970 C.3   208  TRP208      0.1771
    154  C         33.6610  -15.9580   26.2720 C.2   208  TRP208      0.2620
    155  O         32.9030  -15.2050   26.8860 O.2   208  TRP208     -0.2715
    156  CB        33.3620  -18.3840   25.5640 C.3   208  TRP208      0.0590
    157  CG        31.9320  -18.2110   25.1520 C.ar  208  TRP208      0.0006
    158  CD1       30.8270  -18.6360   25.8260 C.ar  208  TRP208      0.0946
    159  CD2       31.4510  -17.5360   23.9740 C.ar  208  TRP208      0.0152
    160  NE1       29.6880  -18.2460   25.1590 N.ar  208  TRP208     -0.2442
    161  CE2       30.0420  -17.5920   24.0060 C.ar  208  TRP208      0.0810
    162  CE3       32.0760  -16.8540   22.9110 C.ar  208  TRP208      0.0012
    163  CZ2       29.2470  -17.0470   22.9880 C.ar  208  TRP208      0.0191
    164  CZ3       31.2880  -16.3100   21.9060 C.ar  208  TRP208      0.0001
    165  CH2       29.8920  -16.4250   21.9400 C.ar  208  TRP208      0.0015
    166  N         34.4110  -15.5890   25.2310 N.am  209  GLY209     -0.1954
    167  CA        34.4320  -14.2840   24.5990 C.3   209  GLY209      0.1869
    168  C         35.3210  -14.3080   23.3700 C.2   209  GLY209      0.2309
    169  O         36.1310  -15.2250   23.2160 O.2   209  GLY209     -0.2863
    170  N         38.3640  -12.8830   22.0040 N.3   211  GLY211     -0.1210
    171  CA        39.5570  -12.2370   22.5500 C.3   211  GLY211      0.1956
    172  C         39.2920  -11.8260   23.9930 C.2   211  GLY211      0.2612
    173  O         38.2420  -12.1850   24.5380 O.2   211  GLY211     -0.2717
    174  N         40.1750  -10.9960   24.5840 N.am  212  CYS212     -0.1970
    175  CA        39.9950  -10.4650   25.9470 C.3   212  CYS212      0.1712
    176  C         39.8180   -8.9290   25.9240 C.2   212  CYS212      0.2296
    177  O         40.5790   -8.2420   25.2460 O.2   212  CYS212     -0.2864
    178  CB        41.1400  -10.8870   26.8690 C.3   212  CYS212      0.0983
    179  SG        41.2550  -12.6800   27.1230 S.3   212  CYS212     -0.0798
    180  N         32.1150  -10.2130   27.7870 N.3   219  GLY219     -0.1210
    181  CA        32.3260  -11.5760   28.2180 C.3   219  GLY219      0.1956
    182  C         30.9900  -12.2840   28.2350 C.2   219  GLY219      0.2612
    183  O         29.9630  -11.6460   28.4570 O.2   219  GLY219     -0.2717
    184  N         30.9830  -13.5750   27.9190 N.am  220  VAL220     -0.1965
    185  CA        29.7840  -14.4220   27.9360 C.3   220  VAL220      0.1727
    186  C         29.9440  -15.3930   29.0850 C.2   220  VAL220      0.2616
    187  O         30.9680  -16.0660   29.1900 O.2   220  VAL220     -0.2715
    188  CB        29.4940  -15.1280   26.6050 C.3   220  VAL220      0.0290
    189  CG1       28.1550  -15.8590   26.6860 C.3   220  VAL220      0.0023
    190  CG2       29.4900  -14.1210   25.4340 C.3   220  VAL220      0.0023
    191  N         28.9380  -15.4360   29.9460 N.am  221  TYR221     -0.1974
    192  CA        28.8880  -16.2150   31.1770 C.3   221  TYR221      0.1639
    193  C         27.6580  -17.1510   31.2120 C.2   221  TYR221      0.2290
    194  O         26.6280  -16.8140   30.6500 O.2   221  TYR221     -0.2864
    195  CB        28.7990  -15.2450   32.3740 C.3   221  TYR221      0.0560
    196  CG        29.9630  -14.2770   32.4810 C.ar  221  TYR221     -0.0198
    197  CD1       30.0710  -13.1780   31.6260 C.ar  221  TYR221     -0.0009
    198  CD2       30.9120  -14.4130   33.4830 C.ar  221  TYR221     -0.0009
    199  CE1       31.1540  -12.3040   31.7080 C.ar  221  TYR221      0.0417
    200  CE2       31.9860  -13.5310   33.5910 C.ar  221  TYR221      0.0417
    201  CZ        32.0850  -12.4590   32.7270 C.ar  221  TYR221      0.1957
    202  OH        33.1730  -11.6210   32.8610 O.3   221  TYR221     -0.2866
@<TRIPOS>BOND
     1    63    62    1
     2    83    81    1
     3   164   165   ar
     4   164   162   ar
     5   165   163   ar
     6   170   171    1
     7   171   172    1
     8   162   159   ar
     9    62    61   ar
    10    62    60   ar
    11   163   161   ar
    12    61    59   ar
    13    81    82    1
    14    81    80    1
    15   169   168    2
    16   168   167    1
    17    60    58   ar
    18   128   127    1
    19    80    77    1
    20   159   161   ar
    21   159   157   ar
    22   172   173    2
    23   172   174   am
    24   161   160   ar
    25    59    57   ar
    26   174   175    1
    27   167   166    1
    28   127   126    1
    29    58    57   ar
    30   157   156    1
    31   157   158   ar
    32   160   158   ar
    33   166   154   am
    34   177   176    2
    35    77    78    1
    36    77    76    1
    37    78    79    2
    38    57    56    1
    39   190   188    1
    40   156   153    1
    41   176   175    1
    42   175   178    1
    43   154   153    1
    44   154   155    2
    45   126   125    1
    46   188   189    1
    47   188   185    1
    48   153   152    1
    49    56    53    1
    50   178   179    1
    51   179   119    1
    52   125   124    1
    53   108   106   ar
    54   180   181    1
    55    53    54    1
    56    53    52    1
    57   184   185    1
    58   184   182   am
    59   152   148   am
    60   185   186    1
    61    40    41    1
    62    40    37    1
    63    54    55    2
    64    73    71   ar
    65    73    74   ar
    66   181   182    1
    67   182   183    2
    68   119   118    1
    69   149   148    2
    70    41    43   ar
    71    41    42   ar
    72    71    69   ar
    73    75    74    1
    74    43    45   ar
    75   151   150    1
    76   148   147    1
    77   124   121    1
    78   106   107   ar
    79   106   105    1
    80    39    38    2
    81    37    38    1
    82    37    36    1
    83    42    44   ar
    84    74    72   ar
    85   186   187    2
    86   186   191   am
    87    45    44   ar
    88   105   102    1
    89   120   121    1
    90   120   116   am
    91    38    46   am
    92   150   147    1
    93   112   111    2
    94   121   122    1
    95    69    68    1
    96    69    70   ar
    97   191   192    1
    98   147   146    1
    99   118   115    1
   100   115   116    1
   101   115   114    1
   102    68    65    1
   103    72    70   ar
   104   116   117    2
   105   194   193    2
   106   111   114   am
   107   111   110    1
   108   146   141   am
   109    46    47    1
   110    11     9    1
   111   102   101    1
   112   102   103    1
   113   122   123    2
   114   122   129   am
   115   192   193    1
   116   192   195    1
   117    84    85    1
   118   109   103   am
   119   109   110    1
   120   197   199   ar
   121   197   196   ar
   122   199   201   ar
   123   103   104    2
   124    48    47    1
   125    48    49    2
   126    47    50    1
   127   137   138    1
   128   137   134    1
   129   129   130    1
   130    65    66    1
   131    65    64    1
   132     9     8    2
   133     9    10    1
   134   110   113    1
   135    66    67    2
   136    85    88    1
   137    85    86    1
   138   141   142    2
   139   141   140    1
   140     8     7    1
   141   195   196    1
   142   145   143    1
   143   196   198   ar
   144    88    89    1
   145   201   202    1
   146   201   200   ar
   147    28    27    1
   148   134   133    1
   149   134   135    1
   150    50    51    1
   151   130   131    1
   152    86    87    2
   153    86    93   am
   154   140   143    1
   155   140   139    1
   156     7     6    1
   157    51    35    1
   158    89    90    1
   159   198   200   ar
   160    35    34    1
   161   143   144    1
   162    25    24    2
   163    93    94    1
   164    90    91    1
   165   131   132    2
   166    27    29    1
   167    27    26    1
   168   135   136    2
   169   100    98    1
   170    98    97    1
   171     6     5    1
   172    91    92    1
   173    24    23    1
   174    24    30   am
   175    94    97    1
   176    94    95    1
   177    23    26    1
   178    23    22    1
   179    15    14    2
   180    34    31    1
   181    97    99    1
   182     5     2    1
   183    31    30    1
   184    31    32    1
   185    95    96    2
   186    14    22   am
   187    14    13    1
   188    19    21   ar
   189    19    17   ar
   190    21    20   ar
   191     2     3    1
   192     2     1    1
   193     3     4    2
   194     3    12   am
   195    32    33    2
   196    12    13    1
   197    13    16    1
   198    17    16    1
   199    17    18   ar
   200    20    18   ar
