@<TRIPOS>MOLECULE
tmp/4y94C01.pdb
 88 80 0 0 0
SMALL
GASTEIGER

@<TRIPOS>ATOM
      1  N          4.7210   -6.4400  -41.2480 N.3    11  LYS11      -0.1245
      2  CA         4.5090   -6.0530  -39.8640 C.3    11  LYS11       0.1561
      3  C          3.4150   -6.8260  -39.1760 C.2    11  LYS11       0.2260
      4  O          2.3800   -7.0990  -39.7180 O.2    11  LYS11      -0.2867
      5  CB         4.1970   -4.5540  -39.7520 C.3    11  LYS11       0.0271
      6  CG         3.7190   -4.1170  -38.3700 C.3    11  LYS11       0.0035
      7  CD         3.1750   -2.7000  -38.3100 C.3    11  LYS11       0.0206
      8  CE         1.7770   -2.5820  -38.8730 C.3    11  LYS11       0.1093
      9  NZ         0.7440   -3.1740  -37.9910 N.3    11  LYS11      -0.1314
     10  N          1.1660   -7.2380  -35.4830 N.3    13  SER13      -0.1217
     11  CA         0.6360   -6.5330  -34.3120 C.3    13  SER13       0.1889
     12  C          1.2270   -5.1440  -34.0880 C.2    13  SER13       0.2288
     13  O          1.0080   -4.5270  -33.0440 O.2    13  SER13      -0.2866
     14  CB         0.8570   -7.3840  -33.0580 C.3    13  SER13       0.2089
     15  OG         0.3340   -6.7470  -31.9050 O.3    13  SER13      -0.2183
     16  N         -7.0100   -9.6220  -32.3330 N.3    15  PRO15      -0.2116
     17  CA        -6.7660  -10.2660  -33.6250 C.3    15  PRO15       0.1372
     18  C         -5.3350  -10.0420  -34.0980 C.2    15  PRO15       0.2244
     19  O         -4.8700   -8.9030  -34.1360 O.2    15  PRO15      -0.2868
     20  CB        -7.7280   -9.5220  -34.5500 C.3    15  PRO15       0.0268
     21  CG        -7.7410   -8.1180  -34.0230 C.3    15  PRO15       0.0207
     22  CD        -7.1660   -8.1310  -32.6280 C.3    15  PRO15       0.0892
     23  N         -2.7100  -10.1790  -37.1190 N.3    17  ASN17      -0.1240
     24  CA        -2.5790  -10.2180  -38.5700 C.3    17  ASN17       0.1653
     25  C         -1.2640   -9.6160  -39.0550 C.2    17  ASN17       0.2266
     26  O         -0.4840   -9.0810  -38.2670 O.2    17  ASN17      -0.2867
     27  CB        -3.7510   -9.4860  -39.2260 C.3    17  ASN17       0.1155
     28  CG        -3.8690   -8.0460  -38.7650 C.2    17  ASN17       0.2627
     29  OD1       -3.5040   -7.7110  -37.6370 O.2    17  ASN17      -0.2716
     30  ND2       -4.3770   -7.1850  -39.6380 N.am   17  ASN17      -0.0877
     31  N          0.5690   -7.1190  -42.1210 N.3    19  LYS19      -0.1245
     32  CA         0.4150   -6.1700  -43.2180 C.3    19  LYS19       0.1561
     33  C          1.7630   -5.7210  -43.7800 C.2    19  LYS19       0.2260
     34  O          2.7380   -5.5850  -43.0420 O.2    19  LYS19      -0.2867
     35  CB        -0.4020   -4.9590  -42.7640 C.3    19  LYS19       0.0271
     36  CG        -1.8620   -5.2890  -42.4920 C.3    19  LYS19       0.0035
     37  CD        -2.5820   -5.7040  -43.7660 C.3    19  LYS19       0.0206
     38  CE        -4.0520   -5.9960  -43.5020 C.3    19  LYS19       0.1093
     39  NZ        -4.7050   -6.6640  -44.6630 N.3    19  LYS19      -0.1314
     40  N          4.2820   -3.0330  -44.9500 N.3    21  ARG21      -0.1245
     41  CA         4.4970   -1.6330  -44.6080 C.3    21  ARG21       0.1563
     42  C          5.8580   -1.1370  -45.0790 C.2    21  ARG21       0.2260
     43  O          6.8430   -1.8770  -45.0570 O.2    21  ARG21      -0.2867
     44  CB         4.3630   -1.4240  -43.0980 C.3    21  ARG21       0.0307
     45  CG         2.9480   -1.6020  -42.5720 C.3    21  ARG21       0.0489
     46  CD         2.0580   -0.4440  -42.9900 C.3    21  ARG21       0.2205
     47  NE         0.6620   -0.6700  -42.6300 N.pl3  21  ARG21      -0.0865
     48  CZ        -0.2690   -1.0930  -43.4790 C.cat  21  ARG21       0.5346
     49  NH1        0.0470   -1.3380  -44.7440 N.pl3  21  ARG21       0.1354
     50  NH2       -1.5160   -1.2710  -43.0650 N.pl3  21  ARG21       0.1354
     51  N          6.5440    3.9940  -40.1320 N.3    32  TYR32      -0.1241
     52  CA         6.1000    3.0440  -41.0980 C.3    32  TYR32       0.1605
     53  C          4.8450    3.6070  -41.7010 C.2    32  TYR32       0.2264
     54  O          4.0900    4.2870  -41.0630 O.2    32  TYR32      -0.2867
     55  CB         6.0100    1.6140  -40.5730 C.3    32  TYR32       0.0534
     56  CG         5.1140    1.3880  -39.4220 C.ar   32  TYR32      -0.0201
     57  CD1        3.8000    1.0750  -39.6140 C.ar   32  TYR32      -0.0009
     58  CD2        5.5870    1.4530  -38.1400 C.ar   32  TYR32      -0.0009
     59  CE1        2.9650    0.8480  -38.5610 C.ar   32  TYR32       0.0417
     60  CE2        4.7580    1.2200  -37.0790 C.ar   32  TYR32       0.0417
     61  CZ         3.4440    0.9210  -37.3080 C.ar   32  TYR32       0.1957
     62  OH         2.5930    0.6970  -36.2760 O.3    32  TYR32      -0.2866
     63  N          1.7930    3.0380  -45.1790 N.3    34  GLU34      -0.1245
     64  CA         1.2150    2.2620  -46.2670 C.3    34  GLU34       0.1567
     65  C          2.0140    2.5260  -47.5320 C.2    34  GLU34       0.2260
     66  O          2.5430    3.6220  -47.7170 O.2    34  GLU34      -0.2867
     67  CB        -0.2560    2.6160  -46.4970 C.3    34  GLU34       0.0388
     68  CG        -1.2310    1.9910  -45.5180 C.3    34  GLU34       0.1160
     69  CD        -2.6710    2.3320  -45.8530 C.2    34  GLU34       0.3649
     70  OE1       -2.8890    3.1600  -46.7630 O.co2  34  GLU34      -0.2457
     71  OE2       -3.5860    1.7660  -45.2180 O.co2  34  GLU34      -0.2457
     72  N          1.3100    5.2820  -40.6430 N.3    46  LYS46      -0.1245
     73  CA         0.5800    4.3390  -39.8010 C.3    46  LYS46       0.1561
     74  C          1.1500    4.2360  -38.3900 C.2    46  LYS46       0.2260
     75  O          0.4620    3.7970  -37.4680 O.2    46  LYS46      -0.2867
     76  CB         0.5700    2.9520  -40.4470 C.3    46  LYS46       0.0271
     77  CG        -0.3960    2.8040  -41.6080 C.3    46  LYS46       0.0035
     78  CD        -1.8300    3.0020  -41.1460 C.3    46  LYS46       0.0206
     79  CE        -2.8180    2.7000  -42.2580 C.3    46  LYS46       0.1093
     80  NZ        -4.2230    2.6970  -41.7680 N.3    46  LYS46      -0.1314
     81  N          7.6370   -4.8990  -30.9970 N.3   101  LEU101     -0.1245
     82  CA         7.1240   -4.8190  -32.3590 C.3   101  LEU101      0.1561
     83  C          7.8020   -5.8800  -33.2160 C.2   101  LEU101      0.2260
     84  O          9.0280   -5.9650  -33.2490 O.2   101  LEU101     -0.2867
     85  CB         7.3530   -3.4270  -32.9500 C.3   101  LEU101      0.0270
     86  CG         7.1180   -3.2880  -34.4560 C.3   101  LEU101      0.0019
     87  CD1        5.6520   -3.5080  -34.7990 C.3   101  LEU101      0.0001
     88  CD2        7.5930   -1.9310  -34.9580 C.3   101  LEU101      0.0001
@<TRIPOS>BOND
     1    66    65    2
     2    65    64    1
     3    70    69   ar
     4    67    64    1
     5    67    68    1
     6    64    63    1
     7    69    68    1
     8    69    71   ar
     9    42    43    2
    10    42    41    1
    11    40    41    1
    12    49    48    1
    13    39    38    1
    14    41    44    1
    15    33    32    1
    16    33    34    2
    17    37    38    1
    18    37    36    1
    19    48    50    1
    20    48    47    2
    21    32    35    1
    22    32    31    1
    23    44    45    1
    24    46    47    1
    25    46    45    1
    26    35    36    1
    27    79    80    1
    28    79    78    1
    29    53    52    1
    30    53    54    2
    31    77    78    1
    32    77    76    1
    33     1     2    1
    34    52    55    1
    35    52    51    1
    36    72    73    1
    37    55    56    1
    38    76    73    1
    39     2     5    1
    40     2     3    1
    41    73    74    1
    42     5     6    1
    43     4     3    2
    44    30    28   am
    45    57    56   ar
    46    57    59   ar
    47    56    58   ar
    48    27    28    1
    49    27    24    1
    50    25    24    1
    51    25    26    2
    52     8     7    1
    53     8     9    1
    54    28    29    2
    55    24    23    1
    56    59    61   ar
    57    74    75    2
    58     6     7    1
    59    58    60   ar
    60    61    60   ar
    61    61    62    1
    62    10    11    1
    63    88    86    1
    64    87    86    1
    65    20    21    1
    66    20    17    1
    67    86    85    1
    68    11    12    1
    69    11    14    1
    70    19    18    2
    71    18    17    1
    72    12    13    2
    73    21    22    1
    74    17    16    1
    75    84    83    2
    76    83    82    1
    77    14    15    1
    78    85    82    1
    79    22    16    1
    80    82    81    1
