@<TRIPOS>MOLECULE
tmp/4y95B01.pdb
 84 79 0 0 0
SMALL
GASTEIGER

@<TRIPOS>ATOM
      1  N        -14.7380    0.4540  -37.3720 N.3    17  THR17      -0.1203
      2  CA       -14.8510    0.5130  -35.9190 C.3    17  THR17       0.1994
      3  C        -14.5810   -0.8610  -35.3180 C.2    17  THR17       0.2618
      4  O        -15.0790   -1.8880  -35.8110 O.2    17  THR17      -0.2717
      5  CB       -16.2580    0.9850  -35.4980 C.3    17  THR17       0.1784
      6  OG1      -16.4970    2.2870  -36.0440 O.3    17  THR17      -0.2211
      7  CG2      -16.4020    1.0170  -33.9640 C.3    17  THR17       0.0376
      8  N        -13.8090   -0.8690  -34.2370 N.am   18  GLY18      -0.1942
      9  CA       -13.5590   -2.0530  -33.4690 C.3    18  GLY18       0.2014
     10  C        -13.8200   -1.7850  -32.0000 C.2    18  GLY18       0.2638
     11  O        -14.4620   -0.7920  -31.6270 O.2    18  GLY18      -0.2714
     12  N        -13.2820   -2.6680  -31.1670 N.am   19  GLN19      -0.1977
     13  CA       -13.5870   -2.6950  -29.7510 C.3    19  GLN19       0.1601
     14  C        -13.1280   -1.4230  -29.0300 C.2    19  GLN19       0.2287
     15  O        -13.6750   -1.1020  -27.9910 O.2    19  GLN19      -0.2864
     16  CB       -12.9680   -3.9450  -29.1240 C.3    19  GLN19       0.0394
     17  CG       -13.3130   -4.1420  -27.6810 C.3    19  GLN19       0.0908
     18  CD       -14.8000   -4.3340  -27.4480 C.2    19  GLN19       0.2608
     19  OE1      -15.4830   -5.0070  -28.2230 O.2    19  GLN19      -0.2717
     20  NE2      -15.3110   -3.7240  -26.3890 N.am   19  GLN19      -0.0878
     21  N        -13.0920    1.5910  -30.7130 N.3    21  GLY21      -0.1210
     22  CA       -13.6420    2.6980  -31.4780 C.3    21  GLY21       0.1956
     23  C        -13.1260    2.7650  -32.9050 C.2    21  GLY21       0.2611
     24  O        -12.8060    1.7450  -33.5140 O.2    21  GLY21      -0.2717
     25  N        -13.0640    3.9630  -33.4550 N.am   22  VAL22      -0.1979
     26  CA       -12.7340    4.1310  -34.8680 C.3    22  VAL22       0.1595
     27  C        -11.2560    3.9870  -35.1430 C.2    22  VAL22       0.2287
     28  O        -10.4050    4.2900  -34.3060 O.2    22  VAL22      -0.2864
     29  CB       -13.2120    5.4900  -35.3970 C.3    22  VAL22       0.0276
     30  CG1      -14.6790    5.6800  -35.0500 C.3    22  VAL22       0.0022
     31  CG2      -12.3900    6.6280  -34.8250 C.3    22  VAL22       0.0022
     32  N        -11.7050    5.3700  -28.2010 N.3    40  LYS40      -0.1231
     33  CA       -12.9630    5.8550  -27.6680 C.3    40  LYS40       0.1693
     34  C        -12.8860    6.0710  -26.1670 C.2    40  LYS40       0.2592
     35  O        -12.3750    5.2310  -25.4260 O.2    40  LYS40      -0.2718
     36  CB       -14.0650    4.8460  -28.0070 C.3    40  LYS40       0.0285
     37  CG       -15.3840    5.1310  -27.3340 C.3    40  LYS40       0.0035
     38  CD       -16.4100    4.0640  -27.6910 C.3    40  LYS40       0.0206
     39  CE       -17.5930    4.1490  -26.7410 C.3    40  LYS40       0.1093
     40  NZ       -18.6920    3.2090  -27.0780 N.3    40  LYS40      -0.1314
     41  N        -13.3910    7.2130  -25.6940 N.am   41  GLU41      -0.1966
     42  CA       -13.4900    7.4370  -24.2370 C.3    41  GLU41       0.1733
     43  C        -14.2020    6.3320  -23.5210 C.2    41  GLU41       0.2617
     44  O        -15.3070    5.9560  -23.8960 O.2    41  GLU41      -0.2715
     45  CB       -14.2370    8.7420  -23.9050 C.3    41  GLU41       0.0429
     46  CG       -13.4620    9.9130  -24.2370 C.3    41  GLU41       0.1163
     47  CD       -13.8500   11.2090  -23.4880 C.2    41  GLU41       0.3649
     48  OE1      -14.7710   11.2640  -22.6190 O.co2  41  GLU41      -0.2457
     49  OE2      -13.1820   12.1820  -23.8050 O.co2  41  GLU41      -0.2457
     50  N        -13.5550    5.8480  -22.4690 N.am   42  GLY42      -0.1940
     51  CA       -14.0820    4.8230  -21.5980 C.3    42  GLY42       0.2014
     52  C        -13.9510    3.3960  -22.0760 C.2    42  GLY42       0.2639
     53  O        -14.4120    2.4910  -21.4170 O.2    42  GLY42      -0.2714
     54  N        -13.3480    3.1930  -23.2360 N.am   43  SER43      -0.1949
     55  CA       -13.2260    1.8480  -23.7700 C.3    43  SER43       0.1924
     56  C        -11.9460    1.0960  -23.4450 C.2    43  SER43       0.2314
     57  O        -11.8880   -0.1080  -23.6290 O.2    43  SER43      -0.2863
     58  CB       -13.3530    1.8980  -25.2950 C.3    43  SER43       0.2116
     59  OG       -12.1820    2.4030  -25.9050 O.3    43  SER43      -0.2180
     60  N        -12.2790   -2.3990  -21.6480 N.3   154  LEU154     -0.1231
     61  CA       -13.2790   -2.0580  -20.6220 C.3   154  LEU154      0.1693
     62  C        -14.6740   -2.2120  -21.2260 C.2   154  LEU154      0.2592
     63  O        -15.2560   -1.2590  -21.7490 O.2   154  LEU154     -0.2718
     64  CB       -13.0840   -0.6430  -20.0910 C.3   154  LEU154      0.0284
     65  CG       -11.7110   -0.3780  -19.4750 C.3   154  LEU154      0.0019
     66  CD1      -11.5480    1.1080  -19.1630 C.3   154  LEU154      0.0001
     67  CD2      -11.4700   -1.1850  -18.2170 C.3   154  LEU154      0.0001
     68  N        -15.1860   -3.4250  -21.1600 N.am  155  ASP155     -0.1974
     69  CA       -16.4830   -3.7620  -21.7280 C.3   155  ASP155      0.1709
     70  C        -16.8650   -5.1130  -21.1740 C.2   155  ASP155      0.2293
     71  O        -16.2890   -6.1350  -21.5630 O.2   155  ASP155     -0.2864
     72  CB       -16.4160   -3.8040  -23.2510 C.3   155  ASP155      0.1436
     73  CG       -17.7750   -4.0150  -23.8950 C.2   155  ASP155      0.3671
     74  OD1      -18.7280   -4.3750  -23.1860 O.co2 155  ASP155     -0.2456
     75  OD2      -17.8720   -3.8090  -25.1170 O.co2 155  ASP155     -0.2456
     76  N        -20.2800  -10.3360  -26.5370 N.3   165  LYS165     -0.1245
     77  CA       -19.1710  -10.0730  -27.4450 C.3   165  LYS165      0.1561
     78  C        -17.9940  -11.0430  -27.2810 C.2   165  LYS165      0.2260
     79  O        -17.0640  -11.0090  -28.1070 O.2   165  LYS165     -0.2867
     80  CB       -18.6720   -8.6400  -27.2310 C.3   165  LYS165      0.0271
     81  CG       -19.6870   -7.5640  -27.6150 C.3   165  LYS165      0.0035
     82  CD       -19.1430   -6.1660  -27.3070 C.3   165  LYS165      0.0206
     83  CE       -20.2270   -5.1170  -27.3970 C.3   165  LYS165      0.1093
     84  NZ       -19.6630   -3.7390  -27.2160 N.3   165  LYS165     -0.1314
@<TRIPOS>BOND
     1     1     2    1
     2     6     5    1
     3     2     5    1
     4     2     3    1
     5     4     3    2
     6     5     7    1
     7    29    30    1
     8    29    26    1
     9    29    31    1
    10     3     8   am
    11    27    26    1
    12    27    28    2
    13    26    25    1
    14     8     9    1
    15    24    23    2
    16     9    10    1
    17    25    23   am
    18    23    22    1
    19    10    11    2
    20    10    12   am
    21    22    21    1
    22    12    13    1
    23    13    16    1
    24    13    14    1
    25    16    17    1
    26    14    15    2
    27    19    18    2
    28    32    33    1
    29    79    78    2
    30    36    33    1
    31    36    37    1
    32    38    37    1
    33    38    39    1
    34    17    18    1
    35    33    34    1
    36    81    82    1
    37    81    80    1
    38    18    20   am
    39    77    78    1
    40    77    80    1
    41    77    76    1
    42    83    82    1
    43    83    84    1
    44    40    39    1
    45    34    41   am
    46    34    35    2
    47    59    58    1
    48    41    42    1
    49    58    55    1
    50    75    73   ar
    51    46    45    1
    52    46    47    1
    53    42    45    1
    54    42    43    1
    55    44    43    2
    56    73    72    1
    57    73    74   ar
    58    49    47   ar
    59    55    56    1
    60    55    54    1
    61    57    56    2
    62    43    50   am
    63    47    48   ar
    64    72    69    1
    65    54    52   am
    66    50    51    1
    67    52    51    1
    68    52    53    2
    69    63    62    2
    70    69    70    1
    71    69    68    1
    72    60    61    1
    73    71    70    2
    74    62    68   am
    75    62    61    1
    76    61    64    1
    77    64    65    1
    78    65    66    1
    79    65    67    1
