@<TRIPOS>MOLECULE
tmp/4y95A01.pdb
 85 81 0 0 0
SMALL
GASTEIGER

@<TRIPOS>ATOM
      1  N        -17.9250   14.6200  -35.5710 N.3    85  ALA85      -0.1231
      2  CA       -18.9290   13.7060  -36.0990 C.3    85  ALA85       0.1694
      3  C        -20.2020   13.5140  -35.3110 C.2    85  ALA85       0.2592
      4  O        -21.2280   13.2190  -35.8840 O.2    85  ALA85      -0.2718
      5  CB       -18.3040   12.3530  -36.3960 C.3    85  ALA85       0.0304
      6  N        -20.1170   13.6440  -33.9980 N.am   86  ASN86      -0.1974
      7  CA       -21.2780   13.4380  -33.1630 C.3    86  ASN86       0.1688
      8  C        -22.0840   14.6880  -32.8420 C.2    86  ASN86       0.2292
      9  O        -23.0660   14.6210  -32.1280 O.2    86  ASN86      -0.2864
     10  CB       -20.9450   12.6110  -31.9300 C.3    86  ASN86       0.1181
     11  CG       -20.9600   11.1230  -32.2230 C.2    86  ASN86       0.2629
     12  OD1      -21.9370   10.5940  -32.7210 O.2    86  ASN86      -0.2716
     13  ND2      -19.8730   10.4550  -31.9210 N.am   86  ASN86      -0.0877
     14  N        -26.2200   15.0540  -27.9370 N.3    92  TYR92      -0.1241
     15  CA       -25.5410   13.8040  -27.6500 C.3    92  TYR92       0.1605
     16  C        -25.9510   13.2540  -26.2880 C.2    92  TYR92       0.2264
     17  O        -26.2000   12.0520  -26.1420 O.2    92  TYR92      -0.2867
     18  CB       -24.0340   14.0270  -27.7070 C.3    92  TYR92       0.0534
     19  CG       -23.1250   12.8310  -27.5170 C.ar   92  TYR92      -0.0201
     20  CD1      -22.9780   11.8790  -28.5030 C.ar   92  TYR92      -0.0009
     21  CD2      -22.3550   12.7100  -26.3660 C.ar   92  TYR92      -0.0009
     22  CE1      -22.1080   10.8040  -28.3280 C.ar   92  TYR92       0.0417
     23  CE2      -21.4870   11.6560  -26.1910 C.ar   92  TYR92       0.0417
     24  CZ       -21.3730   10.7060  -27.1590 C.ar   92  TYR92       0.1957
     25  OH       -20.4860    9.6750  -26.9450 O.3    92  TYR92      -0.2866
     26  N        -28.0420    9.7510  -25.7820 N.3    96  MET96      -0.1245
     27  CA       -27.2980    8.7190  -25.0660 C.3    96  MET96       0.1570
     28  C        -27.5780    8.7000  -23.5740 C.2    96  MET96       0.2261
     29  O        -26.7660    8.2190  -22.7940 O.2    96  MET96      -0.2867
     30  CB       -25.8010    8.9740  -25.2140 C.3    96  MET96       0.0387
     31  CG       -25.2800    9.0040  -26.6310 C.3    96  MET96       0.0595
     32  SD       -24.9830    7.3480  -27.2300 S.3    96  MET96      -0.1393
     33  CE       -23.9030    6.7200  -25.9580 C.3    96  MET96       0.0692
     34  N        -27.1770    5.4080  -21.6010 N.3    99  ARG99      -0.1231
     35  CA       -26.0240    4.6400  -22.0440 C.3    99  ARG99       0.1694
     36  C        -24.7140    5.0620  -21.3770 C.2    99  ARG99       0.2592
     37  O        -23.6830    4.4130  -21.5780 O.2    99  ARG99      -0.2718
     38  CB       -25.9120    4.7440  -23.5690 C.3    99  ARG99       0.0321
     39  CG       -27.1730    4.2310  -24.2810 C.3    99  ARG99       0.0489
     40  CD       -27.1140    4.4090  -25.7830 C.3    99  ARG99       0.2205
     41  NE       -25.9240    3.7880  -26.3560 N.pl3  99  ARG99      -0.0865
     42  CZ       -25.6500    3.7500  -27.6550 C.cat  99  ARG99       0.5346
     43  NH1      -26.4870    4.2940  -28.5300 N.pl3  99  ARG99       0.1354
     44  NH2      -24.5370    3.1630  -28.0800 N.pl3  99  ARG99       0.1354
     45  N        -24.7650    6.1300  -20.5830 N.am  100  PHE100     -0.1976
     46  CA       -23.5780    6.6550  -19.9220 C.3   100  PHE100      0.1639
     47  C        -23.3590    6.2540  -18.4780 C.2   100  PHE100      0.2290
     48  O        -24.2160    6.4600  -17.6300 O.2   100  PHE100     -0.2864
     49  CB       -23.6430    8.1820  -19.8640 C.3   100  PHE100      0.0560
     50  CG       -23.4830    8.8650  -21.1770 C.ar  100  PHE100     -0.0200
     51  CD1      -22.3430    8.7110  -21.9160 C.ar  100  PHE100     -0.0042
     52  CD2      -24.4650    9.7140  -21.6330 C.ar  100  PHE100     -0.0042
     53  CE1      -22.1970    9.3670  -23.1130 C.ar  100  PHE100     -0.0003
     54  CE2      -24.3270   10.3730  -22.8200 C.ar  100  PHE100     -0.0003
     55  CZ       -23.1970   10.1980  -23.5620 C.ar  100  PHE100     -0.0000
     56  N        -18.0210    8.0610  -17.2480 N.3   104  GLN104     -0.1245
     57  CA       -18.0330    8.6740  -18.5710 C.3   104  GLN104      0.1566
     58  C        -18.4350   10.1500  -18.4940 C.2   104  GLN104      0.2260
     59  O        -17.8630   10.9930  -19.1840 O.2   104  GLN104     -0.2867
     60  CB       -18.9910    7.9230  -19.5000 C.3   104  GLN104      0.0367
     61  CG       -18.6350    6.4600  -19.7040 C.3   104  GLN104      0.0905
     62  CD       -19.6010    5.7480  -20.6290 C.2   104  GLN104      0.2608
     63  OE1      -20.5560    6.3450  -21.1270 O.2   104  GLN104     -0.2717
     64  NE2      -19.3580    4.4640  -20.8650 N.am  104  GLN104     -0.0878
     65  N        -15.8410   11.3990  -32.9500 N.3   138  ASP138     -0.1225
     66  CA       -16.0470    9.9670  -33.0910 C.3   138  ASP138      0.1805
     67  C        -15.3510    9.1210  -32.0410 C.2   138  ASP138      0.2598
     68  O        -15.3490    7.9110  -32.1310 O.2   138  ASP138     -0.2718
     69  CB       -15.7910    9.4620  -34.5200 C.3   138  ASP138      0.1424
     70  CG       -14.4970    9.9400  -35.0950 C.2   138  ASP138      0.3668
     71  OD1      -13.7300   10.5840  -34.3820 O.co2 138  ASP138     -0.2456
     72  OD2      -14.2520    9.6610  -36.2820 O.co2 138  ASP138     -0.2456
     73  N        -14.7260    9.7780  -31.0780 N.am  139  GLN139     -0.1965
     74  CA       -14.1420    9.1010  -29.9380 C.3   139  GLN139      0.1733
     75  C        -15.0050    9.3500  -28.7040 C.2   139  GLN139      0.2616
     76  O        -14.6870    8.8720  -27.6330 O.2   139  GLN139     -0.2715
     77  CB       -12.7780    9.6500  -29.6020 C.3   139  GLN139      0.0408
     78  CG       -11.7430    9.5470  -30.6860 C.3   139  GLN139      0.0908
     79  CD       -10.5060   10.3220  -30.3170 C.2   139  GLN139      0.2608
     80  OE1      -10.3100   11.4270  -30.7730 O.2   139  GLN139     -0.2717
     81  NE2       -9.6990    9.7590  -29.4400 N.am  139  GLN139     -0.0878
     82  N        -16.0770   10.1240  -28.8500 N.am  140  GLY140     -0.1955
     83  CA       -16.8800   10.4750  -27.7040 C.3   140  GLY140      0.1869
     84  C        -16.2130   11.5870  -26.9090 C.2   140  GLY140      0.2309
     85  O        -16.5750   11.8230  -25.7440 O.2   140  GLY140     -0.2863
@<TRIPOS>BOND
     1     5     2    1
     2    72    70   ar
     3     2     1    1
     4     2     3    1
     5     4     3    2
     6     3     6   am
     7    70    69    1
     8    70    71   ar
     9    69    66    1
    10     6     7    1
    11     7     8    1
    12     7    10    1
    13    66    65    1
    14    66    67    1
    15     8     9    2
    16    12    11    2
    17    11    10    1
    18    11    13   am
    19    68    67    2
    20    67    73   am
    21    73    74    1
    22    80    79    2
    23    78    79    1
    24    78    77    1
    25    79    81   am
    26    74    77    1
    27    74    75    1
    28    82    75   am
    29    82    83    1
    30    75    76    2
    31    43    42    1
    32    20    22   ar
    33    20    19   ar
    34    22    24   ar
    35    44    42    1
    36    14    15    1
    37    18    15    1
    38    18    19    1
    39    83    84    1
    40    42    41    2
    41    15    16    1
    42    19    21   ar
    43    32    31    1
    44    32    33    1
    45    24    25    1
    46    24    23   ar
    47    84    85    2
    48    31    30    1
    49    21    23   ar
    50    41    40    1
    51    16    17    2
    52    40    39    1
    53    26    27    1
    54    30    27    1
    55    27    28    1
    56    39    38    1
    57    28    29    2
    58    38    35    1
    59    55    53   ar
    60    55    54   ar
    61    53    51   ar
    62    54    52   ar
    63    35    34    1
    64    35    36    1
    65    51    50   ar
    66    52    50   ar
    67    37    36    2
    68    36    45   am
    69    50    49    1
    70    63    62    2
    71    64    62   am
    72    62    61    1
    73    45    46    1
    74    46    49    1
    75    46    47    1
    76    61    60    1
    77    60    57    1
    78    59    58    2
    79    57    58    1
    80    57    56    1
    81    47    48    2
