@<TRIPOS>MOLECULE
tmp/4y9dA00.pdb
 152 145 0 0 0
SMALL
GASTEIGER

@<TRIPOS>ATOM
      1  N        -16.6950   18.9050  -26.8580 N.3    11  GLY11      -0.1225
      2  CA       -15.9330   19.8500  -26.0560 C.3    11  GLY11       0.1811
      3  C        -16.7160   20.2300  -24.8140 C.2    11  GLY11       0.2280
      4  O        -16.5980   21.3350  -24.2930 O.2    11  GLY11      -0.2866
      5  N        -15.4710   21.3120  -20.9250 N.3    14  SER14      -0.1202
      6  CA       -14.9280   22.6210  -20.5990 C.3    14  SER14       0.2020
      7  C        -15.6330   23.7690  -21.3120 C.2    14  SER14       0.2619
      8  O        -16.3790   23.5680  -22.2740 O.2    14  SER14      -0.2717
      9  CB       -13.4410   22.6520  -20.9430 C.3    14  SER14       0.2103
     10  OG       -13.0140   23.9730  -21.2300 O.3    14  SER14      -0.2182
     11  N        -15.3760   24.9770  -20.8200 N.am   15  GLY15      -0.1942
     12  CA       -15.8230   26.1980  -21.4610 C.3    15  GLY15       0.2014
     13  C        -17.2880   26.2130  -21.8380 C.2    15  GLY15       0.2639
     14  O        -18.1340   25.8440  -21.0460 O.2    15  GLY15      -0.2714
     15  N        -17.5780   26.6180  -23.0750 N.am   16  ALA16      -0.1963
     16  CA       -18.9540   26.7990  -23.5230 C.3    16  ALA16       0.1728
     17  C        -19.6920   25.4750  -23.6060 C.2    16  ALA16       0.2616
     18  O        -20.8970   25.4270  -23.3900 O.2    16  ALA16      -0.2715
     19  CB       -18.9820   27.5110  -24.8590 C.3    16  ALA16       0.0334
     20  N        -18.9790   24.3990  -23.9050 N.am   17  GLY17      -0.1955
     21  CA       -19.5910   23.0850  -23.9120 C.3    17  GLY17       0.1869
     22  C        -20.0790   22.6870  -22.5250 C.2    17  GLY17       0.2309
     23  O        -21.2310   22.2690  -22.3520 O.2    17  GLY17      -0.2863
     24  N        -19.0450   14.5970  -24.5890 N.3    34  ALA34      -0.1231
     25  CA       -18.0630   14.0720  -25.5200 C.3    34  ALA34       0.1694
     26  C        -16.8750   15.0160  -25.5950 C.2    34  ALA34       0.2592
     27  O        -17.0130   16.1540  -26.0210 O.2    34  ALA34      -0.2718
     28  CB       -18.6820   13.8850  -26.8990 C.3    34  ALA34       0.0304
     29  N        -15.7070   14.5470  -25.1820 N.am   35  ASP35      -0.1960
     30  CA       -14.5130   15.3750  -25.2260 C.3    35  ASP35       0.1840
     31  C        -13.3300   14.4560  -25.3560 C.2    35  ASP35       0.2622
     32  O        -13.4190   13.2850  -25.0190 O.2    35  ASP35      -0.2715
     33  CB       -14.3910   16.2540  -23.9790 C.3    35  ASP35       0.1450
     34  CG       -13.4770   17.4570  -24.1900 C.2    35  ASP35       0.3671
     35  OD1      -12.3590   17.2760  -24.7130 O.co2  35  ASP35      -0.2456
     36  OD2      -13.8810   18.5920  -23.8520 O.co2  35  ASP35      -0.2456
     37  N        -12.2240   14.9920  -25.8550 N.am   36  VAL36      -0.1963
     38  CA       -11.0650   14.1790  -26.1840 C.3    36  VAL36       0.1727
     39  C        -10.1630   13.9350  -24.9690 C.2    36  VAL36       0.2616
     40  O         -9.3990   12.9720  -24.9480 O.2    36  VAL36      -0.2715
     41  CB       -10.2520   14.8410  -27.3270 C.3    36  VAL36       0.0290
     42  CG1       -9.5760   16.1240  -26.8400 C.3    36  VAL36       0.0023
     43  CG2       -9.2440   13.8640  -27.9090 C.3    36  VAL36       0.0023
     44  N        -10.2670   14.7980  -23.9590 N.am   37  ARG37      -0.1977
     45  CA        -9.4670   14.6770  -22.7380 C.3    37  ARG37       0.1597
     46  C        -10.1770   13.8010  -21.7040 C.2    37  ARG37       0.2287
     47  O        -11.0680   14.2700  -20.9950 O.2    37  ARG37      -0.2864
     48  CB        -9.1920   16.0570  -22.1310 C.3    37  ARG37       0.0334
     49  CG        -8.4800   17.0540  -23.0340 C.3    37  ARG37       0.0492
     50  CD        -9.0260   18.4680  -22.8170 C.3    37  ARG37       0.2205
     51  NE        -8.8140   18.9680  -21.4590 N.pl3  37  ARG37      -0.0865
     52  CZ        -9.5660   19.8950  -20.8650 C.cat  37  ARG37       0.5346
     53  NH1      -10.6020   20.4360  -21.4970 N.pl3  37  ARG37       0.1354
     54  NH2       -9.2870   20.2790  -19.6260 N.pl3  37  ARG37       0.1354
     55  N        -13.7140   11.0700  -26.7560 N.3    60  LEU60      -0.1231
     56  CA       -13.8650   11.0220  -28.2060 C.3    60  LEU60       0.1693
     57  C        -13.1080   12.1270  -28.9060 C.2    60  LEU60       0.2592
     58  O        -13.1380   13.2860  -28.4910 O.2    60  LEU60      -0.2718
     59  CB       -15.3440   11.1030  -28.5890 C.3    60  LEU60       0.0284
     60  CG       -15.6380   11.2760  -30.0780 C.3    60  LEU60       0.0019
     61  CD1      -15.1260   10.0840  -30.8450 C.3    60  LEU60       0.0001
     62  CD2      -17.1280   11.4510  -30.3060 C.3    60  LEU60       0.0001
     63  N        -12.4270   11.7430  -29.9730 N.am   61  ASP61      -0.1960
     64  CA       -11.8710   12.6910  -30.9240 C.3    61  ASP61       0.1840
     65  C        -12.8050   12.7240  -32.1120 C.2    61  ASP61       0.2622
     66  O        -12.8600   11.7770  -32.8950 O.2    61  ASP61      -0.2715
     67  CB       -10.4570   12.2810  -31.3330 C.3    61  ASP61       0.1450
     68  CG        -9.8400   13.2160  -32.3560 C.2    61  ASP61       0.3671
     69  OD1      -10.5330   14.1300  -32.8520 O.co2  61  ASP61      -0.2456
     70  OD2       -8.6490   13.0280  -32.6740 O.co2  61  ASP61      -0.2456
     71  N        -13.5350   13.8250  -32.2450 N.am   62  ILE62      -0.1963
     72  CA       -14.5450   13.9700  -33.2920 C.3    62  ILE62       0.1727
     73  C        -13.9780   13.9070  -34.7120 C.2    62  ILE62       0.2616
     74  O        -14.7310   13.8450  -35.6730 O.2    62  ILE62      -0.2715
     75  CB       -15.3080   15.2930  -33.1350 C.3    62  ILE62       0.0290
     76  CG1      -14.3320   16.4770  -33.0950 C.3    62  ILE62       0.0022
     77  CG2      -16.1580   15.2450  -31.8780 C.3    62  ILE62       0.0023
     78  CD1      -15.0080   17.8320  -33.0390 C.3    62  ILE62       0.0001
     79  N        -12.6570   13.9360  -34.8370 N.am   63  MET63      -0.1977
     80  CA       -12.0050   13.7730  -36.1230 C.3    63  MET63       0.1605
     81  C        -11.9470   12.2910  -36.5270 C.2    63  MET63       0.2287
     82  O        -11.6610   11.9810  -37.6730 O.2    63  MET63      -0.2864
     83  CB       -10.6000   14.3840  -36.0870 C.3    63  MET63       0.0413
     84  CG       -10.6110   15.9040  -35.9480 C.3    63  MET63       0.0598
     85  SD        -9.0180   16.7200  -36.2350 S.3    63  MET63      -0.1393
     86  CE        -8.0730   16.1230  -34.8150 C.3    63  MET63       0.0692
     87  N        -19.6490   21.9150  -30.3000 N.3    89  THR89      -0.1203
     88  CA       -19.0400   23.0430  -29.6160 C.3    89  THR89       0.1994
     89  C        -17.5160   22.9530  -29.5800 C.2    89  THR89       0.2618
     90  O        -16.8360   23.9790  -29.4910 O.2    89  THR89      -0.2717
     91  CB       -19.5990   23.1410  -28.2040 C.3    89  THR89       0.1784
     92  OG1      -21.0040   23.4170  -28.2950 O.3    89  THR89      -0.2211
     93  CG2      -18.9060   24.2240  -27.4040 C.3    89  THR89       0.0376
     94  N        -16.9810   21.7430  -29.6820 N.am   90  ALA90      -0.1965
     95  CA       -15.5410   21.5580  -29.6080 C.3    90  ALA90       0.1728
     96  C        -14.8330   22.4530  -30.6170 C.2    90  ALA90       0.2617
     97  O        -15.2640   22.5660  -31.7560 O.2    90  ALA90      -0.2715
     98  CB       -15.1790   20.1020  -29.8420 C.3    90  ALA90       0.0334
     99  N        -13.7670   23.1090  -30.1800 N.am   91  GLY91      -0.1940
    100  CA       -13.0120   23.9970  -31.0320 C.3    91  GLY91       0.2014
    101  C        -11.5740   24.0860  -30.5850 C.2    91  GLY91       0.2638
    102  O        -11.2580   23.7680  -29.4510 O.2    91  GLY91      -0.2714
    103  N        -10.7020   24.5100  -31.4900 N.am   92  VAL92      -0.1977
    104  CA        -9.3010   24.7580  -31.1740 C.3    92  VAL92       0.1596
    105  C         -8.8090   25.8870  -32.0580 C.2    92  VAL92       0.2287
    106  O         -9.3990   26.1640  -33.1190 O.2    92  VAL92      -0.2864
    107  CB        -8.4140   23.5160  -31.3980 C.3    92  VAL92       0.0276
    108  CG1       -8.9480   22.3290  -30.6260 C.3    92  VAL92       0.0022
    109  CG2       -8.3240   23.1800  -32.8920 C.3    92  VAL92       0.0022
    110  N         -5.1330   20.2790  -38.3930 N.3   108  TRP108     -0.1241
    111  CA        -5.6040   20.2820  -37.0020 C.3   108  TRP108      0.1605
    112  C         -6.8190   21.1940  -36.8640 C.2   108  TRP108      0.2264
    113  O         -7.8770   20.7860  -36.3590 O.2   108  TRP108     -0.2867
    114  CB        -4.4870   20.7240  -36.0540 C.3   108  TRP108      0.0550
    115  CG        -4.8880   20.7650  -34.5970 C.ar  108  TRP108      0.0003
    116  CD1       -5.5440   19.7980  -33.9000 C.ar  108  TRP108      0.0946
    117  CD2       -4.6370   21.8260  -33.6730 C.ar  108  TRP108      0.0152
    118  NE1       -5.7280   20.1940  -32.5980 N.ar  108  TRP108     -0.2442
    119  CE2       -5.1800   21.4380  -32.4320 C.ar  108  TRP108      0.0810
    120  CE3       -4.0120   23.0720  -33.7750 C.ar  108  TRP108      0.0012
    121  CZ2       -5.1110   22.2470  -31.3010 C.ar  108  TRP108      0.0191
    122  CZ3       -3.9520   23.8780  -32.6620 C.ar  108  TRP108      0.0001
    123  CH2       -4.4940   23.4600  -31.4320 C.ar  108  TRP108      0.0015
    124  N        -10.7210   20.0600  -36.4950 N.3   112  VAL112     -0.1245
    125  CA       -11.6330   20.1550  -35.3720 C.3   112  VAL112      0.1561
    126  C        -12.8110   21.0460  -35.7230 C.2   112  VAL112      0.2260
    127  O        -13.9660   20.6640  -35.5460 O.2   112  VAL112     -0.2867
    128  CB       -10.9440   20.7160  -34.0810 C.3   112  VAL112      0.0252
    129  CG1      -11.9310   20.7760  -32.9550 C.3   112  VAL112      0.0019
    130  CG2       -9.7740   19.8590  -33.6750 C.3   112  VAL112      0.0019
    131  N        -21.5270   25.8080  -32.3100 N.3   140  VAL140     -0.1245
    132  CA       -20.8670   27.0030  -31.8360 C.3   140  VAL140      0.1561
    133  C        -19.7130   27.2390  -32.7780 C.2   140  VAL140      0.2260
    134  O        -18.7410   26.4900  -32.7990 O.2   140  VAL140     -0.2867
    135  CB       -20.3980   26.8720  -30.3770 C.3   140  VAL140      0.0252
    136  CG1      -19.5550   28.0650  -29.9760 C.3   140  VAL140      0.0019
    137  CG2      -21.6010   26.7570  -29.4640 C.3   140  VAL140      0.0019
    138  N        -14.7970   36.0110  -30.2140 N.3   187  ASN187     -0.1240
    139  CA       -13.4810   35.6330  -29.7110 C.3   187  ASN187      0.1653
    140  C        -12.3640   35.9900  -30.7220 C.2   187  ASN187      0.2266
    141  O        -11.7060   35.1080  -31.2710 O.2   187  ASN187     -0.2867
    142  CB       -13.4790   34.1340  -29.3830 C.3   187  ASN187      0.1155
    143  CG       -14.1220   33.2770  -30.4970 C.2   187  ASN187      0.2627
    144  OD1      -14.8490   33.7840  -31.3410 O.2   187  ASN187     -0.2716
    145  ND2      -13.8620   31.9780  -30.4780 N.am  187  ASN187     -0.0877
    146  N        -18.8220   31.6990  -20.0380 N.3   193  PRO193     -0.2116
    147  CA       -19.3530   30.4460  -20.5870 C.3   193  PRO193      0.1372
    148  C        -20.8020   30.1700  -20.2110 C.2   193  PRO193      0.2244
    149  O        -21.5320   29.6430  -21.0510 O.2   193  PRO193     -0.2868
    150  CB       -18.4380   29.3820  -19.9810 C.3   193  PRO193      0.0268
    151  CG       -17.1720   30.0790  -19.7410 C.3   193  PRO193      0.0207
    152  CD       -17.5450   31.4740  -19.3390 C.3   193  PRO193      0.0892
@<TRIPOS>BOND
     1   110   111    1
     2    82    81    2
     3   111   112    1
     4   111   114    1
     5   112   113    2
     6    81    80    1
     7   124   125    1
     8    85    84    1
     9    85    86    1
    10    80    83    1
    11    80    79    1
    12    83    84    1
    13   114   115    1
    14   126   127    2
    15   126   125    1
    16    74    73    2
    17   125   128    1
    18    79    73   am
    19    73    72    1
    20   115   116   ar
    21   115   117   ar
    22   128   130    1
    23   128   129    1
    24   116   118   ar
    25   120   117   ar
    26   120   122   ar
    27   117   119   ar
    28    72    75    1
    29    72    71    1
    30    75    76    1
    31    75    77    1
    32   106   105    2
    33    76    78    1
    34    66    65    2
    35   109   107    1
    36    69    68   ar
    37   134   133    2
    38   133   132    1
    39    70    68   ar
    40   122   123   ar
    41   118   119   ar
    42   119   121   ar
    43    68    67    1
    44   131   132    1
    45    71    65   am
    46    65    64    1
    47   105   104    1
    48   132   135    1
    49    97    96    2
    50   103   104    1
    51   103   101   am
    52   123   121   ar
    53   107   104    1
    54   107   108    1
    55   144   143    2
    56    67    64    1
    57   141   140    2
    58   100   101    1
    59   100    99    1
    60    64    63    1
    61    61    60    1
    62   140   139    1
    63    96    99   am
    64    96    95    1
    65   101   102    2
    66   143   145   am
    67   143   142    1
    68   135   136    1
    69   135   137    1
    70    62    60    1
    71    87    88    1
    72   138   139    1
    73    60    59    1
    74    63    57   am
    75    98    95    1
    76   139   142    1
    77    94    95    1
    78    94    89   am
    79    88    89    1
    80    88    91    1
    81    89    90    2
    82    57    58    2
    83    57    56    1
    84    59    56    1
    85    92    91    1
    86    56    55    1
    87    91    93    1
    88    43    41    1
    89    41    42    1
    90    41    38    1
    91    28    25    1
    92     1     2    1
    93    38    37    1
    94    38    39    1
    95     2     3    1
    96    27    26    2
    97    37    31   am
    98    26    25    1
    99    26    29   am
   100    25    24    1
   101    31    30    1
   102    31    32    2
   103    30    29    1
   104    30    33    1
   105    39    40    2
   106    39    44   am
   107    19    16    1
   108     3     4    2
   109    35    34   ar
   110    34    33    1
   111    34    36   ar
   112    44    45    1
   113    21    20    1
   114    21    22    1
   115    20    17   am
   116    17    16    1
   117    17    18    2
   118    16    15    1
   119    15    13   am
   120    49    50    1
   121    49    48    1
   122    50    51    1
   123    45    48    1
   124    45    46    1
   125    22    23    2
   126     8     7    2
   127    13    12    1
   128    13    14    2
   129    46    47    2
   130    53    52    1
   131    12    11    1
   132    51    52    2
   133     7    11   am
   134     7     6    1
   135    10     9    1
   136   149   148    2
   137     9     6    1
   138     5     6    1
   139    52    54    1
   140   147   148    1
   141   147   146    1
   142   147   150    1
   143   146   152    1
   144   150   151    1
   145   151   152    1
