@<TRIPOS>MOLECULE
tmp/4y9eA00.pdb
 97 86 0 0 0
SMALL
GASTEIGER

@<TRIPOS>ATOM
      1  N        -25.1270   10.9580    0.5140 N.3     4  MET4       -0.1245
      2  CA       -23.8040   10.3150    0.6510 C.3     4  MET4        0.1570
      3  C        -23.3310    9.9670   -0.7460 C.2     4  MET4        0.2261
      4  O        -24.1780    9.6250   -1.6130 O.2     4  MET4       -0.2867
      5  CB       -23.8750    9.0680    1.5260 C.3     4  MET4        0.0387
      6  CG       -22.4770    8.5150    1.8830 C.3     4  MET4        0.0595
      7  SD       -21.9090    7.2690    0.7060 S.3     4  MET4       -0.1393
      8  CE       -22.7260    5.8420    1.4070 C.3     4  MET4        0.0692
      9  N        -20.3700    7.6240   -2.8300 N.3     6  LYS6       -0.1245
     10  CA       -19.3430    6.5620   -2.7820 C.3     6  LYS6        0.1561
     11  C        -18.6980    6.4570   -4.1640 C.2     6  LYS6        0.2260
     12  O        -19.4140    6.3860   -5.2050 O.2     6  LYS6       -0.2867
     13  CB       -20.0180    5.2420   -2.4400 C.3     6  LYS6        0.0271
     14  CG       -19.0240    4.0940   -2.1970 C.3     6  LYS6        0.0035
     15  CD       -19.6570    2.8860   -1.4700 C.3     6  LYS6        0.0206
     16  CE       -18.5990    1.7990   -1.2120 C.3     6  LYS6        0.1093
     17  NZ       -17.9170    1.8730    0.1090 N.3     6  LYS6       -0.1314
     18  N        -15.7200    4.3500   -6.4730 N.3     8  LEU8       -0.1245
     19  CA       -14.9090    3.1410   -6.5920 C.3     8  LEU8        0.1561
     20  C        -14.0360    3.2020   -7.8260 C.2     8  LEU8        0.2260
     21  O        -14.3970    3.7980   -8.8510 O.2     8  LEU8       -0.2867
     22  CB       -15.8050    1.8960   -6.6610 C.3     8  LEU8        0.0270
     23  CG       -16.7990    1.6100   -5.5090 C.3     8  LEU8        0.0019
     24  CD1      -16.1400    1.8140   -4.1420 C.3     8  LEU8        0.0001
     25  CD2      -18.0510    2.4450   -5.6280 C.3     8  LEU8        0.0001
     26  N        -15.9110    7.0100    0.5800 N.3    45  GLU45      -0.1245
     27  CA       -17.2050    7.6180    0.9140 C.3    45  GLU45       0.1567
     28  C        -17.0620    9.0550    1.3840 C.2    45  GLU45       0.2260
     29  O        -16.0520    9.4520    1.9510 O.2    45  GLU45      -0.2867
     30  CB       -17.9940    6.8050    1.9610 C.3    45  GLU45       0.0388
     31  CG       -18.2980    5.3980    1.4810 C.3    45  GLU45       0.1160
     32  CD       -19.0880    4.5430    2.4530 C.2    45  GLU45       0.3649
     33  OE1      -19.3060    4.9840    3.5800 O.co2  45  GLU45      -0.2457
     34  OE2      -19.4370    3.3970    2.0880 O.co2  45  GLU45      -0.2457
     35  N        -33.4110    9.6940    1.4880 N.3    95  ARG95      -0.1245
     36  CA       -31.9640    9.5380    1.6340 C.3    95  ARG95       0.1563
     37  C        -31.4190    9.0600    0.2830 C.2    95  ARG95       0.2260
     38  O        -32.0010    8.1810   -0.3410 O.2    95  ARG95      -0.2867
     39  CB       -31.6170    8.5750    2.7420 C.3    95  ARG95       0.0307
     40  CG       -32.1900    9.0210    4.0840 C.3    95  ARG95       0.0489
     41  CD       -31.8230    8.0040    5.1470 C.3    95  ARG95       0.2205
     42  NE       -30.4060    8.0530    5.4960 N.pl3  95  ARG95      -0.0865
     43  CZ       -29.5210    7.0810    5.2480 C.cat  95  ARG95       0.5346
     44  NH1      -29.8910    5.9530    4.6420 N.pl3  95  ARG95       0.1354
     45  NH2      -28.2550    7.2390    5.6200 N.pl3  95  ARG95       0.1354
     46  N        -27.9880    7.8150   -1.8530 N.3    97  THR97      -0.1218
     47  CA       -26.5870    7.3860   -1.9780 C.3    97  THR97       0.1862
     48  C        -26.2610    7.4100   -3.4630 C.2    97  THR97       0.2287
     49  O        -26.9140    6.7000   -4.2460 O.2    97  THR97      -0.2866
     50  CB       -26.3850    5.9950   -1.4230 C.3    97  THR97       0.1770
     51  OG1      -26.6510    6.0250    0.0050 O.3    97  THR97      -0.2211
     52  CG2      -24.9370    5.5160   -1.7610 C.3    97  THR97       0.0375
     53  N        -23.5290    6.5010   -6.1340 N.3    99  ALA99      -0.1231
     54  CA       -22.3030    5.6930   -6.3710 C.3    99  ALA99       0.1694
     55  C        -21.7260    6.0020   -7.7090 C.2    99  ALA99       0.2592
     56  O        -22.4730    6.1610   -8.6820 O.2    99  ALA99      -0.2718
     57  CB       -22.6290    4.2180   -6.2700 C.3    99  ALA99       0.0304
     58  N        -20.4160    6.1120   -7.7860 N.am  100  ALA100     -0.1966
     59  CA       -19.7610    6.3160   -9.0780 C.3   100  ALA100      0.1728
     60  C        -18.6880    5.2710   -9.2090 C.2   100  ALA100      0.2616
     61  O        -17.9300    5.0110   -8.2460 O.2   100  ALA100     -0.2715
     62  CB       -19.1350    7.7030   -9.1950 C.3   100  ALA100      0.0334
     63  N        -18.6300    4.6020  -10.3370 N.am  101  LEU101     -0.1977
     64  CA       -17.5800    3.5580  -10.5940 C.3   101  LEU101      0.1596
     65  C        -16.7220    4.0980  -11.7330 C.2   101  LEU101      0.2287
     66  O        -17.2450    4.3730  -12.8180 O.2   101  LEU101     -0.2864
     67  CB       -18.2710    2.2540  -10.9890 C.3   101  LEU101      0.0297
     68  CG       -17.2710    1.1620  -11.3650 C.3   101  LEU101      0.0022
     69  CD1      -16.3720    0.7550  -10.1940 C.3   101  LEU101      0.0001
     70  CD2      -18.1260   -0.0050  -11.8560 C.3   101  LEU101      0.0001
     71  N        -19.6580    4.9720  -14.5310 N.3   108  SER108     -0.1217
     72  CA       -21.0610    4.6930  -14.3170 C.3   108  SER108      0.1889
     73  C        -21.4830    5.4490  -13.0610 C.2   108  SER108      0.2288
     74  O        -20.6580    5.6470  -12.1270 O.2   108  SER108     -0.2866
     75  CB       -21.3210    3.1930  -14.1460 C.3   108  SER108      0.2089
     76  OG       -20.7360    2.3760  -15.1790 O.3   108  SER108     -0.2183
     77  N        -24.9030    5.6020  -10.2260 N.3   110  THR110     -0.1218
     78  CA       -26.1340    4.9930   -9.8150 C.3   110  THR110      0.1862
     79  C        -26.6660    5.7200   -8.5980 C.2   110  THR110      0.2287
     80  O        -25.8790    6.2670   -7.8700 O.2   110  THR110     -0.2866
     81  CB       -25.8090    3.5580   -9.4760 C.3   110  THR110      0.1770
     82  OG1      -25.2400    2.9750  -10.6510 O.3   110  THR110     -0.2211
     83  CG2      -27.0000    2.8170   -8.9370 C.3   110  THR110      0.0375
     84  N        -29.2040    5.1240   -5.1730 N.3   112  VAL112     -0.1245
     85  CA       -30.0880    4.3360   -4.3410 C.3   112  VAL112      0.1561
     86  C        -30.8400    5.3430   -3.4580 C.2   112  VAL112      0.2260
     87  O        -30.2070    6.1730   -2.7790 O.2   112  VAL112     -0.2867
     88  CB       -29.2870    3.3500   -3.4730 C.3   112  VAL112      0.0252
     89  CG1      -30.1790    2.6910   -2.4110 C.3   112  VAL112      0.0019
     90  CG2      -28.6610    2.3080   -4.3980 C.3   112  VAL112      0.0019
     91  N        -33.7610    5.9660   -0.6580 N.3   114  THR114     -0.1218
     92  CA       -34.5610    5.2850    0.3660 C.3   114  THR114      0.1862
     93  C        -35.4510    6.2590    1.1060 C.2   114  THR114      0.2287
     94  O        -35.1590    7.4460    1.1970 O.2   114  THR114     -0.2866
     95  CB       -33.6690    4.5020    1.3270 C.3   114  THR114      0.1770
     96  OG1      -32.8290    5.4000    2.0470 O.3   114  THR114     -0.2211
     97  CG2      -32.8030    3.5210    0.5520 C.3   114  THR114      0.0375
@<TRIPOS>BOND
     1    76    75    1
     2    71    72    1
     3    72    75    1
     4    72    73    1
     5    73    74    2
     6    66    65    2
     7    70    68    1
     8    65    64    1
     9    68    67    1
    10    68    69    1
    11    67    64    1
    12    82    81    1
    13    64    63    1
    14    63    60   am
    15    77    78    1
    16    78    81    1
    17    78    79    1
    18    81    83    1
    19    60    59    1
    20    60    61    2
    21    62    59    1
    22    59    58    1
    23    21    20    2
    24    56    55    2
    25    79    80    2
    26    20    19    1
    27    58    55   am
    28    55    54    1
    29    22    19    1
    30    22    23    1
    31    19    18    1
    32    54    57    1
    33    54    53    1
    34    25    23    1
    35    23    24    1
    36    12    11    2
    37    84    85    1
    38    90    88    1
    39    85    88    1
    40    85    86    1
    41    49    48    2
    42    11    10    1
    43    88    89    1
    44    48    47    1
    45    86    87    2
    46     9    10    1
    47    10    13    1
    48    13    14    1
    49    14    15    1
    50    47    46    1
    51    47    50    1
    52    52    50    1
    53     4     3    2
    54    15    16    1
    55    50    51    1
    56    16    17    1
    57     3     2    1
    58    91    92    1
    59    38    37    2
    60    37    36    1
    61    92    93    1
    62    92    95    1
    63     1     2    1
    64    97    95    1
    65    26    27    1
    66     2     5    1
    67     7     8    1
    68     7     6    1
    69    27    28    1
    70    27    30    1
    71    93    94    2
    72    95    96    1
    73    28    29    2
    74    31    30    1
    75    31    32    1
    76    35    36    1
    77     5     6    1
    78    36    39    1
    79    34    32   ar
    80    32    33   ar
    81    39    40    1
    82    40    41    1
    83    44    43    1
    84    41    42    1
    85    43    42    2
    86    43    45    1
