@<TRIPOS>MOLECULE
tmp/4y9gB00.pdb
 84 75 0 0 0
SMALL
GASTEIGER

@<TRIPOS>ATOM
      1  N        -23.6630    7.3620  -29.3470 N.3     6  LYS6       -0.1245
      2  CA       -24.5520    6.1800  -29.3690 C.3     6  LYS6        0.1561
      3  C        -25.1430    5.9900  -28.0150 C.2     6  LYS6        0.2260
      4  O        -24.3980    5.9870  -27.0150 O.2     6  LYS6       -0.2867
      5  CB       -23.7750    4.9190  -29.7080 C.3     6  LYS6        0.0271
      6  CG       -24.6470    3.8240  -30.2740 C.3     6  LYS6        0.0035
      7  CD       -23.8460    2.5610  -30.5560 C.3     6  LYS6        0.0206
      8  CE       -24.7590    1.4530  -31.0530 C.3     6  LYS6        0.1093
      9  NZ       -25.1470    1.6210  -32.4920 N.3     6  LYS6       -0.1314
     10  N        -28.0040    3.6380  -25.5300 N.3     8  LEU8       -0.1245
     11  CA       -28.5920    2.3300  -25.4610 C.3     8  LEU8        0.1561
     12  C        -29.4710    2.2700  -24.2650 C.2     8  LEU8        0.2260
     13  O        -29.2360    2.9880  -23.2950 O.2     8  LEU8       -0.2867
     14  CB       -27.5310    1.2230  -25.4040 C.3     8  LEU8        0.0270
     15  CG       -26.7500    1.3010  -26.7400 C.3     8  LEU8        0.0019
     16  CD1      -25.3130    0.9130  -26.5330 C.3     8  LEU8        0.0001
     17  CD2      -27.3690    0.6360  -27.9580 C.3     8  LEU8        0.0001
     18  N        -31.6330    0.0960  -28.9910 N.3    15  PRO15      -0.2168
     19  CA       -31.1740    1.4740  -29.0420 C.3    15  PRO15       0.1057
     20  C        -32.1690    2.3900  -28.4060 C.3    15  PRO15       0.1993
     21  O        -33.4350    2.1340  -28.4520 O.3    15  PRO15      -0.2189
     22  CB       -31.1220    1.7980  -30.5410 C.3    15  PRO15       0.0215
     23  CG       -31.4800    0.5530  -31.2660 C.3    15  PRO15       0.0203
     24  CD       -31.6030   -0.5870  -30.3040 C.3    15  PRO15       0.0888
     25  N        -31.0840    3.5370  -34.9690 N.3    43  SER43      -0.1217
     26  CA       -30.0060    2.6590  -34.5280 C.3    43  SER43       0.1889
     27  C        -29.3990    3.2040  -33.2010 C.2    43  SER43       0.2288
     28  O        -28.3850    2.6630  -32.6910 O.2    43  SER43      -0.2866
     29  CB       -28.9530    2.5390  -35.6360 C.3    43  SER43       0.2089
     30  OG       -28.2910    3.7770  -35.8500 O.3    43  SER43      -0.2183
     31  N        -28.0010    6.1070  -32.8030 N.3    45  GLU45      -0.1245
     32  CA       -26.8310    6.9350  -33.1140 C.3    45  GLU45       0.1567
     33  C        -27.1470    8.3230  -33.5510 C.2    45  GLU45       0.2260
     34  O        -28.2070    8.6120  -34.1360 O.2    45  GLU45      -0.2867
     35  CB       -25.9270    6.2750  -34.1850 C.3    45  GLU45       0.0388
     36  CG       -25.3530    4.9860  -33.6720 C.3    45  GLU45       0.1160
     37  CD       -24.7610    4.0620  -34.7260 C.2    45  GLU45       0.3649
     38  OE1      -24.9450    4.2680  -35.9370 O.co2  45  GLU45      -0.2457
     39  OE2      -24.0840    3.1090  -34.3200 O.co2  45  GLU45      -0.2457
     40  N        -16.1350    8.3790  -30.3650 N.3    97  THR97      -0.1218
     41  CA       -17.4400    7.7710  -30.1760 C.3    97  THR97       0.1862
     42  C        -17.7840    7.7610  -28.6960 C.2    97  THR97       0.2287
     43  O        -17.0100    7.2210  -27.8710 O.2    97  THR97      -0.2866
     44  CB       -17.4830    6.3590  -30.7610 C.3    97  THR97       0.1770
     45  OG1      -17.1760    6.4280  -32.1520 O.3    97  THR97      -0.2211
     46  CG2      -18.8750    5.7190  -30.5940 C.3    97  THR97       0.0375
     47  N        -20.5270    6.5680  -26.0340 N.3    99  ALA99      -0.1231
     48  CA       -21.6610    5.6400  -25.9620 C.3    99  ALA99       0.1694
     49  C        -22.2110    5.8680  -24.5640 C.2    99  ALA99       0.2592
     50  O        -21.4310    5.9450  -23.6280 O.2    99  ALA99      -0.2718
     51  CB       -21.1980    4.1810  -26.0980 C.3    99  ALA99       0.0304
     52  N        -23.5360    5.9670  -24.4330 N.am  100  ALA100     -0.1966
     53  CA       -24.1770    6.0420  -23.1600 C.3   100  ALA100      0.1728
     54  C        -25.1270    4.8540  -23.0650 C.2   100  ALA100      0.2616
     55  O        -25.7920    4.4930  -24.0600 O.2   100  ALA100     -0.2715
     56  CB       -24.8860    7.3920  -23.0080 C.3   100  ALA100      0.0334
     57  N        -25.1290    4.1880  -21.9090 N.am  101  LEU101     -0.1977
     58  CA       -26.0510    3.1110  -21.6280 C.3   101  LEU101      0.1596
     59  C        -26.9660    3.5830  -20.5300 C.2   101  LEU101      0.2287
     60  O        -26.4940    3.9190  -19.4730 O.2   101  LEU101     -0.2864
     61  CB       -25.2500    1.9190  -21.1370 C.3   101  LEU101      0.0297
     62  CG       -25.9890    0.6390  -20.6800 C.3   101  LEU101      0.0022
     63  CD1      -26.8430    0.0470  -21.7950 C.3   101  LEU101      0.0001
     64  CD2      -25.0250   -0.4080  -20.1430 C.3   101  LEU101      0.0001
     65  N        -24.0150    4.7420  -17.6980 N.3   108  SER108     -0.1217
     66  CA       -22.5420    4.6830  -17.8860 C.3   108  SER108      0.1889
     67  C        -22.2310    5.3370  -19.2080 C.2   108  SER108      0.2288
     68  O        -23.0780    5.4060  -20.1140 O.2   108  SER108     -0.2866
     69  CB       -22.0500    3.2480  -17.8110 C.3   108  SER108      0.2089
     70  OG       -22.2120    2.5050  -18.9980 O.3   108  SER108     -0.2183
     71  N        -18.9630    5.9060  -22.0940 N.3   110  THR110     -0.1218
     72  CA       -17.6410    5.4350  -22.4060 C.3   110  THR110      0.1862
     73  C        -17.1880    6.2090  -23.6100 C.2   110  THR110      0.2287
     74  O        -18.0050    6.6840  -24.4050 O.2   110  THR110     -0.2866
     75  CB       -17.7060    3.9320  -22.7460 C.3   110  THR110      0.1770
     76  OG1      -18.4660    3.2570  -21.7230 O.3   110  THR110     -0.2211
     77  CG2      -16.2930    3.3370  -22.8640 C.3   110  THR110      0.0375
     78  N        -14.7200    5.8900  -27.0190 N.3   112  VAL112     -0.1245
     79  CA       -13.8060    5.1170  -27.8260 C.3   112  VAL112      0.1561
     80  C        -13.1000    6.1500  -28.7020 C.2   112  VAL112      0.2260
     81  O        -13.7380    6.9020  -29.4310 O.2   112  VAL112     -0.2867
     82  CB       -14.4910    3.9530  -28.5780 C.3   112  VAL112      0.0252
     83  CG1      -13.4990    3.2900  -29.5320 C.3   112  VAL112      0.0019
     84  CG2      -15.0210    2.9270  -27.5870 C.3   112  VAL112      0.0019
@<TRIPOS>BOND
     1    38    37   ar
     2    30    29    1
     3    29    26    1
     4    25    26    1
     5    37    39   ar
     6    37    36    1
     7    26    27    1
     8    35    36    1
     9    35    32    1
    10    34    33    2
    11    33    32    1
    12    27    28    2
    13    32    31    1
    14     9     8    1
    15    45    44    1
    16    23    22    1
    17    23    24    1
    18     8     7    1
    19    44    46    1
    20    44    41    1
    21     7     6    1
    22    22    19    1
    23    40    41    1
    24    24    18    1
    25     6     5    1
    26    41    42    1
    27     5     2    1
    28    83    82    1
    29    81    80    2
    30     2     1    1
    31     2     3    1
    32    19    18    1
    33    19    20    1
    34    80    79    1
    35    42    43    2
    36    82    79    1
    37    82    84    1
    38    21    20    1
    39     3     4    2
    40    17    15    1
    41    79    78    1
    42    15    16    1
    43    15    14    1
    44    51    48    1
    45    47    48    1
    46    48    49    1
    47    10    11    1
    48    11    14    1
    49    11    12    1
    50    49    52   am
    51    49    50    2
    52    52    53    1
    53    74    73    2
    54    12    13    2
    55    55    54    2
    56    73    72    1
    57    53    54    1
    58    53    56    1
    59    54    57   am
    60    77    75    1
    61    75    72    1
    62    75    76    1
    63    72    71    1
    64    57    58    1
    65    63    62    1
    66    58    61    1
    67    58    59    1
    68    61    62    1
    69    62    64    1
    70    59    60    2
    71    68    67    2
    72    67    66    1
    73    70    69    1
    74    66    69    1
    75    66    65    1
