@<TRIPOS>MOLECULE
tmp/4y9hA07.pdb
 64 58 0 0 0
SMALL
GASTEIGER

@<TRIPOS>ATOM
      1  N         37.8340   18.9030   17.0920 N.3   101  GLY101     -0.1225
      2  CA        38.6080   18.2320   16.0840 C.3   101  GLY101      0.1811
      3  C         37.8320   17.0480   15.3570 C.2   101  GLY101      0.2280
      4  O         38.0530   16.7570   14.1690 O.2   101  GLY101     -0.2866
      5  N         35.5880   18.8690   12.8370 N.3   104  LEU104     -0.1231
      6  CA        36.3150   19.2140   11.6250 C.3   104  LEU104      0.1693
      7  C         36.5650   17.9780   10.7520 C.2   104  LEU104      0.2591
      8  O         36.4760   18.0680    9.5450 O.2   104  LEU104     -0.2718
      9  CB        37.6940   19.8030   12.0250 C.3   104  LEU104      0.0284
     10  CG        38.5940   20.3360   10.8780 C.3   104  LEU104      0.0019
     11  CD1       37.8620   21.4510   10.1600 C.3   104  LEU104      0.0001
     12  CD2       39.8960   20.9040   11.4720 C.3   104  LEU104      0.0001
     13  N         36.9000   16.8550   11.3530 N.am  105  ALA105     -0.1980
     14  CA        37.1810   15.6620   10.5870 C.3   105  ALA105      0.1597
     15  C         35.9360   15.1670    9.8570 C.2   105  ALA105      0.2287
     16  O         35.9820   14.7780    8.7070 O.2   105  ALA105     -0.2864
     17  CB        37.6550   14.6020   11.5400 C.3   105  ALA105      0.0319
     18  N         35.0930   17.6390    7.0230 N.3   108  GLY108     -0.1210
     19  CA        36.0380   17.3230    6.0020 C.3   108  GLY108      0.1956
     20  C         35.5960   16.1160    5.1990 C.2   108  GLY108      0.2611
     21  O         35.6010   16.1620    3.9730 O.2   108  GLY108     -0.2717
     22  N         35.3500   15.0230    5.8910 N.am  109  ALA109     -0.1979
     23  CA        34.9260   13.8240    5.2500 C.3   109  ALA109      0.1597
     24  C         33.6680   14.0260    4.4200 C.2   109  ALA109      0.2287
     25  O         33.5520   13.4680    3.3500 O.2   109  ALA109     -0.2864
     26  CB        34.7350   12.7310    6.2610 C.3   109  ALA109      0.0319
     27  N         34.4570   15.7390    1.2180 N.3   112  ILE112     -0.1245
     28  CA        34.9860   14.7710    0.3360 C.3   112  ILE112      0.1561
     29  C         33.8610   13.8870   -0.2540 C.2   112  ILE112      0.2260
     30  O         33.8390   13.6500   -1.4690 O.2   112  ILE112     -0.2867
     31  CB        36.0420   13.8640    1.0390 C.3   112  ILE112      0.0252
     32  CG1       37.3050   14.7020    1.3620 C.3   112  ILE112      0.0019
     33  CG2       36.3940   12.6540    0.1440 C.3   112  ILE112      0.0019
     34  CD1       38.2680   14.0160    2.2770 C.3   112  ILE112      0.0001
     35  N         35.0180    6.0390   -3.6170 N.3   135  ILE135     -0.1245
     36  CA        35.6810    6.9470   -2.7290 C.3   135  ILE135      0.1561
     37  C         34.6600    7.7030   -1.8890 C.2   135  ILE135      0.2260
     38  O         34.8070    7.8210   -0.6360 O.2   135  ILE135     -0.2867
     39  CB        36.5990    7.9280   -3.5170 C.3   135  ILE135      0.0252
     40  CG1       37.7180    7.1810   -4.2070 C.3   135  ILE135      0.0019
     41  CG2       37.1610    8.9580   -2.5210 C.3   135  ILE135      0.0019
     42  CD1       38.4270    8.0470   -5.2250 C.3   135  ILE135      0.0001
     43  N         33.2060    5.3480    0.7490 N.3   138  ALA138     -0.1231
     44  CA        34.1330    5.2320    1.8220 C.3   138  ALA138      0.1694
     45  C         34.0810    6.4020    2.8240 C.2   138  ALA138      0.2591
     46  O         34.1370    6.1990    4.0770 O.2   138  ALA138     -0.2718
     47  CB        35.5340    4.9530    1.2950 C.3   138  ALA138      0.0304
     48  N         33.9920    7.6040    2.2880 N.am  139  ALA139     -0.1980
     49  CA        33.9540    8.7910    3.1170 C.3   139  ALA139      0.1597
     50  C         32.6500    8.7490    3.9320 C.2   139  ALA139      0.2287
     51  O         32.6440    9.0400    5.1330 O.2   139  ALA139     -0.2864
     52  CB        34.0630   10.0820    2.3250 C.3   139  ALA139      0.0319
     53  N         33.0130    6.2670    6.8150 N.3   142  TYR142     -0.1241
     54  CA        33.7690    6.8280    7.9160 C.3   142  TYR142      0.1605
     55  C         32.9170    7.7050    8.8000 C.2   142  TYR142      0.2264
     56  O         32.9290    7.5910   10.0060 O.2   142  TYR142     -0.2867
     57  CB        34.9190    7.7000    7.3150 C.3   142  TYR142      0.0534
     58  CG        35.6160    8.5700    8.3360 C.ar  142  TYR142     -0.0201
     59  CD1       36.5030    8.0270    9.2800 C.ar  142  TYR142     -0.0009
     60  CD2       35.2950    9.8840    8.4940 C.ar  142  TYR142     -0.0009
     61  CE1       37.0530    8.8350   10.2790 C.ar  142  TYR142      0.0417
     62  CE2       35.8580   10.6920    9.4790 C.ar  142  TYR142      0.0417
     63  CZ        36.7490   10.1650   10.3470 C.ar  142  TYR142      0.1957
     64  OH        37.2750   10.9510   11.3410 O.3   142  TYR142     -0.2866
@<TRIPOS>BOND
     1    42    40    1
     2    40    39    1
     3    35    36    1
     4    39    36    1
     5    39    41    1
     6    36    37    1
     7    37    38    2
     8    30    29    2
     9    29    28    1
    10    33    31    1
    11    28    31    1
    12    28    27    1
    13    43    44    1
    14    31    32    1
    15    47    44    1
    16    32    34    1
    17    44    45    1
    18    48    45   am
    19    48    49    1
    20    52    49    1
    21    45    46    2
    22    49    50    1
    23    25    24    2
    24    50    51    2
    25    21    20    2
    26    24    23    1
    27    20    22   am
    28    20    19    1
    29    23    22    1
    30    23    26    1
    31    19    18    1
    32    53    54    1
    33    57    54    1
    34    57    58    1
    35    54    55    1
    36    58    60   ar
    37    58    59   ar
    38    60    62   ar
    39    16    15    2
    40    55    56    2
    41    59    61   ar
    42    62    63   ar
    43     8     7    2
    44    15    14    1
    45    11    10    1
    46    61    63   ar
    47    63    64    1
    48    14    13    1
    49    14    17    1
    50     7    13   am
    51     7     6    1
    52    10    12    1
    53    10     9    1
    54     6     9    1
    55     6     5    1
    56     4     3    2
    57     3     2    1
    58     2     1    1
