@<TRIPOS>MOLECULE
tmp/4y9jB00.pdb
 145 144 0 0 0
SMALL
GASTEIGER

@<TRIPOS>ATOM
      1  N         22.3750   -9.7360   23.0340 N.3   337  TYR337     -0.1241
      2  CA        23.5670   -8.9740   23.4340 C.3   337  TYR337      0.1605
      3  C         23.9820   -7.9890   22.3590 C.2   337  TYR337      0.2264
      4  O         24.3680   -6.8560   22.6900 O.2   337  TYR337     -0.2867
      5  CB        24.6870   -9.9050   23.7430 C.3   337  TYR337      0.0534
      6  CG        25.8830   -9.2360   24.3960 C.ar  337  TYR337     -0.0201
      7  CD1       25.7880   -8.6810   25.6830 C.ar  337  TYR337     -0.0009
      8  CD2       27.1100   -9.2480   23.7770 C.ar  337  TYR337     -0.0009
      9  CE1       26.9050   -8.1040   26.2910 C.ar  337  TYR337      0.0417
     10  CE2       28.2500   -8.7410   24.4040 C.ar  337  TYR337      0.0417
     11  CZ        28.1420   -8.1550   25.6330 C.ar  337  TYR337      0.1957
     12  OH        29.2310   -7.5850   26.2210 O.3   337  TYR337     -0.2866
     13  N         25.5110   -4.1360   23.1450 N.3   341  ARG341     -0.1245
     14  CA        26.9720   -3.9700   23.2620 C.3   341  ARG341      0.1563
     15  C         27.4170   -3.0220   22.1730 C.2   341  ARG341      0.2260
     16  O         27.2870   -3.3610   21.0260 O.2   341  ARG341     -0.2867
     17  CB        27.6840   -5.3150   23.1160 C.3   341  ARG341      0.0307
     18  CG        29.1980   -5.2770   23.3190 C.3   341  ARG341      0.0489
     19  CD        29.6690   -4.6040   24.6240 C.3   341  ARG341      0.2205
     20  NE        31.1500   -4.6730   24.7750 N.pl3 341  ARG341     -0.0865
     21  CZ        31.8840   -4.1760   25.8070 C.cat 341  ARG341      0.5346
     22  NH1       31.3380   -3.5860   26.8680 N.pl3 341  ARG341      0.1354
     23  NH2       33.2300   -4.3020   25.7900 N.pl3 341  ARG341      0.1354
     24  N         30.2400   -1.2660   20.0510 N.3   343  VAL343     -0.1231
     25  CA        31.5900   -1.4340   19.5630 C.3   343  VAL343      0.1692
     26  C         31.7860   -0.4920   18.3500 C.2   343  VAL343      0.2592
     27  O         31.0310   -0.5010   17.3700 O.2   343  VAL343     -0.2718
     28  CB        31.9240   -2.8880   19.1940 C.3   343  VAL343      0.0266
     29  CG1       31.7350   -3.8180   20.4160 C.3   343  VAL343      0.0020
     30  CG2       31.1250   -3.3130   17.9570 C.3   343  VAL343      0.0020
     31  N         32.7850    0.3710   18.5110 N.am  344  PHE344     -0.1976
     32  CA        33.1910    1.3420   17.5050 C.3   344  PHE344      0.1639
     33  C         32.0110    2.2200   17.1820 C.2   344  PHE344      0.2290
     34  O         31.7450    2.5000   16.0270 O.2   344  PHE344     -0.2864
     35  CB        33.7800    0.6630   16.2650 C.3   344  PHE344      0.0560
     36  CG        35.0990   -0.0110   16.5230 C.ar  344  PHE344     -0.0200
     37  CD1       36.3010    0.7110   16.4320 C.ar  344  PHE344     -0.0042
     38  CD2       35.1540   -1.3580   16.8630 C.ar  344  PHE344     -0.0042
     39  CE1       37.5360    0.0860   16.6720 C.ar  344  PHE344     -0.0003
     40  CE2       36.3810   -1.9940   17.1000 C.ar  344  PHE344     -0.0003
     41  CZ        37.5710   -1.2660   17.0130 C.ar  344  PHE344     -0.0000
     42  N         26.6530   -3.9080   18.2300 N.3   348  GLN348     -0.1245
     43  CA        27.0940   -5.0220   17.3460 C.3   348  GLN348      0.1566
     44  C         26.0950   -5.3320   16.2420 C.2   348  GLN348      0.2260
     45  O         26.4670   -5.6660   15.1450 O.2   348  GLN348     -0.2867
     46  CB        27.3240   -6.3090   18.0890 C.3   348  GLN348      0.0367
     47  CG        28.4350   -6.2690   19.0940 C.3   348  GLN348      0.0905
     48  CD        28.4640   -7.5280   19.9630 C.2   348  GLN348      0.2608
     49  OE1       27.4350   -8.1320   20.2690 O.2   348  GLN348     -0.2717
     50  NE2       29.6640   -7.9090   20.3800 N.am  348  GLN348     -0.0878
     51  N         26.4630   -3.9330   12.7120 N.3   351  TRP351     -0.1241
     52  CA        27.6460   -4.1920   11.9220 C.3   351  TRP351      0.1605
     53  C         27.4100   -5.4020   11.0030 C.2   351  TRP351      0.2264
     54  O         27.2200   -6.5250   11.4720 O.2   351  TRP351     -0.2867
     55  CB        28.8670   -4.3910   12.8380 C.3   351  TRP351      0.0550
     56  CG        29.3290   -3.1180   13.4900 C.ar  351  TRP351      0.0003
     57  CD1       29.3290   -2.8170   14.8100 C.ar  351  TRP351      0.0946
     58  CD2       29.8550   -1.9780   12.8180 C.ar  351  TRP351      0.0152
     59  NE1       29.7990   -1.5340   15.0140 N.ar  351  TRP351     -0.2442
     60  CE2       30.1530   -1.0110   13.8020 C.ar  351  TRP351      0.0810
     61  CE3       30.1180   -1.6860   11.4710 C.ar  351  TRP351      0.0012
     62  CZ2       30.6900    0.2230   13.4860 C.ar  351  TRP351      0.0191
     63  CZ3       30.6400   -0.4850   11.1670 C.ar  351  TRP351      0.0001
     64  CH2       30.9230    0.4750   12.1630 C.ar  351  TRP351      0.0015
     65  N         29.3310   -7.4630    9.3010 N.3   353  LEU353     -0.1231
     66  CA        30.1330   -8.6670    9.5440 C.3   353  LEU353      0.1693
     67  C         29.5950   -9.4930   10.7130 C.2   353  LEU353      0.2592
     68  O         29.6550  -10.7290   10.6950 O.2   353  LEU353     -0.2718
     69  CB        31.5980   -8.2750    9.8080 C.3   353  LEU353      0.0284
     70  CG        32.6060   -9.3940   10.0560 C.3   353  LEU353      0.0019
     71  CD1       32.7080  -10.4440    8.9590 C.3   353  LEU353      0.0001
     72  CD2       33.9290   -8.6780   10.2570 C.3   353  LEU353      0.0001
     73  N         29.0420   -8.8280   11.7340 N.am  354  HIS354     -0.1976
     74  CA        28.4730   -9.5180   12.8550 C.3   354  HIS354      0.1656
     75  C         27.1990  -10.2660   12.4240 C.2   354  HIS354      0.2291
     76  O         27.0020  -11.4160   12.7990 O.2   354  HIS354     -0.2864
     77  CB        28.1650   -8.5920   14.0220 C.3   354  HIS354      0.0771
     78  CG        28.1310   -9.3120   15.3590 C.ar  354  HIS354      0.0820
     79  ND1       26.9710   -9.5070   16.0950 N.ar  354  HIS354     -0.2267
     80  CD2       29.1380   -9.7550   16.1320 C.ar  354  HIS354      0.1154
     81  CE1       27.2660  -10.1130   17.2290 C.ar  354  HIS354      0.1986
     82  NE2       28.5780  -10.2940   17.2690 N.ar  354  HIS354     -0.2212
     83  N         32.1130  -16.3670   21.2260 N.3   419  GLU419     -0.1231
     84  CA        33.0010  -15.3220   20.7380 C.3   419  GLU419      0.1699
     85  C         32.2500  -14.0260   20.4170 C.2   419  GLU419      0.2592
     86  O         32.8520  -12.9790   20.4920 O.2   419  GLU419     -0.2718
     87  CB        33.7570  -15.8570   19.5030 C.3   419  GLU419      0.0402
     88  CG        34.7530  -14.9100   18.8350 C.3   419  GLU419      0.1161
     89  CD        35.5260  -15.6140   17.7080 C.2   419  GLU419      0.3649
     90  OE1       35.6810  -16.8610   17.8210 O.co2 419  GLU419     -0.2457
     91  OE2       35.9080  -14.9440   16.7100 O.co2 419  GLU419     -0.2457
     92  N         30.9480  -14.0780   20.1080 N.am  420  CYS420     -0.1956
     93  CA        30.1750  -12.8810   19.9470 C.3   420  CYS420      0.1843
     94  C         30.2030  -11.9970   21.2130 C.2   420  CYS420      0.2625
     95  O         29.9130  -10.8050   21.1310 O.2   420  CYS420     -0.2714
     96  CB        28.7140  -13.1550   19.6390 C.3   420  CYS420      0.0997
     97  SG        28.4480  -14.0550   18.0770 S.3   420  CYS420     -0.0797
     98  N         30.4250  -12.5970   22.3610 N.am  421  PHE421     -0.1960
     99  CA        30.4910  -11.8060   23.6100 C.3   421  PHE421      0.1771
    100  C         31.9040  -11.3360   23.9290 C.2   421  PHE421      0.2620
    101  O         32.1250  -10.7220   24.9670 O.2   421  PHE421     -0.2715
    102  CB        30.0180  -12.6750   24.7400 C.3   421  PHE421      0.0574
    103  CG        28.5790  -13.1050   24.5830 C.ar  421  PHE421     -0.0200
    104  CD1       28.2540  -14.2620   23.9140 C.ar  421  PHE421     -0.0042
    105  CD2       27.5690  -12.3870   25.1940 C.ar  421  PHE421     -0.0042
    106  CE1       26.9530  -14.6550   23.7690 C.ar  421  PHE421     -0.0003
    107  CE2       26.2580  -12.7970   25.0740 C.ar  421  PHE421     -0.0003
    108  CZ        25.9310  -13.9360   24.3620 C.ar  421  PHE421     -0.0000
    109  N         32.8660  -11.6760   23.0880 N.am  422  GLY422     -0.1940
    110  CA        34.2630  -11.3380   23.3880 C.3   422  GLY422      0.2014
    111  C         34.7610  -12.0300   24.6240 C.2   422  GLY422      0.2639
    112  O         34.3630  -13.1670   24.9340 O.2   422  GLY422     -0.2714
    113  N         35.6240  -11.3360   25.3930 N.am  423  GLY423     -0.1939
    114  CA        36.1320  -11.9280   26.6270 C.3   423  GLY423      0.2014
    115  C         35.0880  -12.4100   27.6160 C.2   423  GLY423      0.2638
    116  O         35.2850  -13.4110   28.3040 O.2   423  GLY423     -0.2714
    117  N         33.9490  -11.7270   27.6760 N.am  424  GLN424     -0.1977
    118  CA        32.8620  -12.1300   28.5350 C.3   424  GLN424      0.1601
    119  C         32.2920  -13.4840   28.2490 C.2   424  GLN424      0.2287
    120  O         31.8760  -14.2170   29.2050 O.2   424  GLN424     -0.2864
    121  CB        31.7140  -11.0820   28.5020 C.3   424  GLN424      0.0394
    122  CG        32.1290   -9.7920   29.1680 C.3   424  GLN424      0.0908
    123  CD        32.3480   -9.9710   30.6920 C.2   424  GLN424      0.2608
    124  OE1       33.4800  -10.0360   31.1610 O.2   424  GLN424     -0.2717
    125  NE2       31.2720  -10.0090   31.4330 N.am  424  GLN424     -0.0878
    126  N         33.9900  -16.0090   27.6500 N.3   426  TYR426     -0.1227
    127  CA        34.9140  -16.9700   28.2110 C.3   426  TYR426      0.1736
    128  C         34.8790  -17.0010   29.7710 C.2   426  TYR426      0.2595
    129  O         35.6340  -17.7630   30.4300 O.2   426  TYR426     -0.2718
    130  CB        36.3440  -16.5540   27.7190 C.3   426  TYR426      0.0548
    131  CG        37.3960  -17.5740   27.8180 C.ar  426  TYR426     -0.0200
    132  CD1       37.4220  -18.6360   26.9210 C.ar  426  TYR426     -0.0009
    133  CD2       38.4710  -17.4240   28.6670 C.ar  426  TYR426     -0.0009
    134  CE1       38.4100  -19.5960   26.9400 C.ar  426  TYR426      0.0417
    135  CE2       39.4940  -18.3210   28.6690 C.ar  426  TYR426      0.0417
    136  CZ        39.4900  -19.4300   27.8330 C.ar  426  TYR426      0.1957
    137  OH        40.4480  -20.3960   27.8540 O.3   426  TYR426     -0.2866
    138  N         34.0170  -16.1740   30.3520 N.am  427  MET427     -0.1979
    139  CA        33.8970  -16.0340   31.8100 C.3   427  MET427      0.1605
    140  C         32.8110  -16.9450   32.3800 C.2   427  MET427      0.2287
    141  O         31.6470  -16.7940   32.0170 O.2   427  MET427     -0.2864
    142  CB        33.6530  -14.6050   32.2370 C.3   427  MET427      0.0413
    143  CG        34.6730  -13.5710   31.7730 C.3   427  MET427      0.0598
    144  SD        36.3210  -13.8610   32.4800 S.3   427  MET427     -0.1393
    145  CE        37.1940  -14.7720   31.1780 C.3   427  MET427      0.0692
@<TRIPOS>BOND
     1    71    70    1
     2    65    66    1
     3    66    69    1
     4    66    67    1
     5    69    70    1
     6    70    72    1
     7    68    67    2
     8    67    73   am
     9    53    54    2
    10    53    52    1
    11    63    61   ar
    12    63    64   ar
    13    61    58   ar
    14    73    74    1
    15    52    51    1
    16    52    55    1
    17    64    62   ar
    18    75    76    2
    19    75    74    1
    20    58    56   ar
    21    58    60   ar
    22    55    56    1
    23    74    77    1
    24    62    60   ar
    25    56    57   ar
    26    60    59   ar
    27    77    78    1
    28    57    59   ar
    29    45    44    2
    30    78    79   ar
    31    78    80   ar
    32    34    33    2
    33    79    81   ar
    34    80    82   ar
    35    44    43    1
    36    35    36    1
    37    35    32    1
    38    37    36   ar
    39    37    39   ar
    40    36    38   ar
    41    39    41   ar
    42    91    89   ar
    43    38    40   ar
    44    41    40   ar
    45    33    32    1
    46    81    82   ar
    47    43    46    1
    48    43    42    1
    49    27    26    2
    50    32    31    1
    51    89    90   ar
    52    89    88    1
    53    30    28    1
    54    97    96    1
    55    46    47    1
    56    26    31   am
    57    26    25    1
    58    88    87    1
    59    47    48    1
    60    28    25    1
    61    28    29    1
    62    87    84    1
    63    25    24    1
    64    96    93    1
    65    93    92    1
    66    93    94    1
    67    48    49    2
    68    48    50   am
    69    92    85   am
    70    85    86    2
    71    85    84    1
    72    84    83    1
    73    16    15    2
    74    95    94    2
    75    94    98   am
    76    15    14    1
    77     3     4    2
    78     3     2    1
    79    98    99    1
    80     1     2    1
    81   109   110    1
    82   109   100   am
    83    17    14    1
    84    17    18    1
    85    13    14    1
    86    18    19    1
    87   110   111    1
    88     2     5    1
    89    99   100    1
    90    99   102    1
    91     5     6    1
    92   106   104   ar
    93   106   108   ar
    94     8     6   ar
    95     8    10   ar
    96   104   103   ar
    97   100   101    2
    98   108   107   ar
    99     6     7   ar
   100    10    11   ar
   101   103   102    1
   102   103   105   ar
   103    19    20    1
   104   111   112    2
   105   111   113   am
   106    20    21    2
   107   107   105   ar
   108   113   114    1
   109    11    12    1
   110    11     9   ar
   111     7     9   ar
   112    23    21    1
   113    21    22    1
   114   114   115    1
   115   132   134   ar
   116   132   131   ar
   117   134   136   ar
   118   115   117   am
   119   115   116    2
   120   126   127    1
   121   117   118    1
   122   130   131    1
   123   130   127    1
   124   131   133   ar
   125   136   137    1
   126   136   135   ar
   127   127   128    1
   128   119   118    1
   129   119   120    2
   130   121   118    1
   131   121   122    1
   132   133   135   ar
   133   122   123    1
   134   128   138   am
   135   128   129    2
   136   138   139    1
   137   123   124    2
   138   123   125   am
   139   145   144    1
   140   143   142    1
   141   143   144    1
   142   139   142    1
   143   139   140    1
   144   141   140    2
