@<TRIPOS>MOLECULE
tmp/4y9jB01.pdb
 213 209 0 0 0
SMALL
GASTEIGER

@<TRIPOS>ATOM
      1  N         16.9040  -40.9800   29.1910 N.3   148  MET148     -0.1245
      2  CA        17.0020  -42.3440   29.5890 C.3   148  MET148      0.1570
      3  C         15.6730  -42.8740   30.1170 C.2   148  MET148      0.2261
      4  O         15.4100  -44.0580   29.9390 O.2   148  MET148     -0.2867
      5  CB        18.0850  -42.5490   30.5990 C.3   148  MET148      0.0387
      6  CG        19.4460  -42.3430   30.0200 C.3   148  MET148      0.0595
      7  SD        20.8140  -42.7070   31.1460 S.3   148  MET148     -0.1393
      8  CE        20.5220  -41.5960   32.4500 C.3   148  MET148      0.0692
      9  N         20.9520  -46.1550   32.3350 N.3   188  GLN188     -0.1231
     10  CA        21.2580  -47.0220   31.2000 C.3   188  GLN188      0.1698
     11  C         22.7470  -47.3190   31.4190 C.2   188  GLN188      0.2592
     12  O         23.5730  -46.4170   31.2860 O.2   188  GLN188     -0.2718
     13  CB        21.0280  -46.2190   29.8910 C.3   188  GLN188      0.0381
     14  CG        21.5450  -46.8450   28.5420 C.3   188  GLN188      0.0905
     15  CD        21.5290  -45.8620   27.3590 C.2   188  GLN188      0.2608
     16  OE1       21.2640  -44.6690   27.5180 O.2   188  GLN188     -0.2717
     17  NE2       21.9040  -46.3550   26.1590 N.am  188  GLN188     -0.0878
     18  N         23.0860  -48.5690   31.7390 N.am  189  TRP189     -0.1962
     19  CA        24.4920  -48.9230   32.1110 C.3   189  TRP189      0.1771
     20  C         25.1120  -49.9220   31.1160 C.2   189  TRP189      0.2620
     21  O         25.1170  -51.1330   31.3130 O.2   189  TRP189     -0.2715
     22  CB        24.5860  -49.5050   33.5170 C.3   189  TRP189      0.0590
     23  CG        23.9990  -48.6730   34.6310 C.ar  189  TRP189      0.0006
     24  CD1       23.6710  -47.3550   34.6210 C.ar  189  TRP189      0.0946
     25  CD2       23.6770  -49.1480   35.9380 C.ar  189  TRP189      0.0152
     26  NE1       23.1470  -46.9800   35.8480 N.ar  189  TRP189     -0.2442
     27  CE2       23.1240  -48.0610   36.6620 C.ar  189  TRP189      0.0810
     28  CE3       23.7800  -50.3860   36.5580 C.ar  189  TRP189      0.0012
     29  CZ2       22.7260  -48.1710   37.9510 C.ar  189  TRP189      0.0191
     30  CZ3       23.3600  -50.5080   37.8350 C.ar  189  TRP189      0.0001
     31  CH2       22.8300  -49.4040   38.5230 C.ar  189  TRP189      0.0015
     32  N         25.6670  -49.3860   30.0510 N.am  190  MET190     -0.1963
     33  CA        26.2860  -50.1410   28.9960 C.3   190  MET190      0.1736
     34  C         27.7980  -50.1450   28.9720 C.2   190  MET190      0.2617
     35  O         28.4620  -51.2250   28.7790 O.2   190  MET190     -0.2715
     36  CB        25.7980  -49.6260   27.6340 C.3   190  MET190      0.0427
     37  CG        24.3910  -50.0800   27.3520 C.3   190  MET190      0.0599
     38  SD        23.6550  -49.3910   25.8300 S.3   190  MET190     -0.1393
     39  CE        24.7460  -50.0660   24.5640 C.3   190  MET190      0.0692
     40  N         28.3420  -48.9540   29.1260 N.am  191  THR191     -0.1937
     41  CA        29.7430  -48.6820   28.9280 C.3   191  THR191      0.2028
     42  C         30.5950  -49.3050   30.0000 C.2   191  THR191      0.2642
     43  O         30.3170  -49.1510   31.1990 O.2   191  THR191     -0.2714
     44  CB        30.0260  -47.2200   28.7760 C.3   191  THR191      0.1808
     45  OG1       29.2880  -46.6790   27.6920 O.3   191  THR191     -0.2208
     46  CG2       31.5300  -46.9760   28.5920 C.3   191  THR191      0.0379
     47  N         31.6300  -50.0260   29.5680 N.am  192  GLU192     -0.1976
     48  CA        32.5790  -50.6180   30.5050 C.3   192  GLU192      0.1602
     49  C         34.0180  -50.1950   30.1430 C.2   192  GLU192      0.2287
     50  O         34.2290  -49.6030   29.0940 O.2   192  GLU192     -0.2864
     51  CB        32.3970  -52.1140   30.5580 C.3   192  GLU192      0.0415
     52  CG        30.9560  -52.5300   30.9730 C.3   192  GLU192      0.1163
     53  CD        30.8140  -53.9080   31.5140 C.2   192  GLU192      0.3649
     54  OE1       31.8310  -54.6330   31.7320 O.co2 192  GLU192     -0.2457
     55  OE2       29.6260  -54.3430   31.6800 O.co2 192  GLU192     -0.2457
     56  N         35.1740  -51.3030   26.6220 N.3   195  GLY195     -0.1210
     57  CA        34.5310  -50.6790   25.4670 C.3   195  GLY195      0.1956
     58  C         33.1920  -50.0470   25.7730 C.2   195  GLY195      0.2612
     59  O         32.4440  -50.5480   26.6450 O.2   195  GLY195     -0.2717
     60  N         32.9540  -48.9360   25.0700 N.am  196  GLY196     -0.1942
     61  CA        31.6910  -48.2490   25.1070 C.3   196  GLY196      0.2014
     62  C         31.0130  -48.2720   23.7800 C.2   196  GLY196      0.2640
     63  O         29.8780  -48.7450   23.6740 O.2   196  GLY196     -0.2714
     64  N         31.7340  -47.8310   22.7460 N.am  197  SER197     -0.1935
     65  CA        31.2600  -48.0280   21.3970 C.3   197  SER197      0.2055
     66  C         30.9930  -49.5190   21.1550 C.2   197  SER197      0.2643
     67  O         29.9980  -49.9120   20.5260 O.2   197  SER197     -0.2714
     68  CB        32.3080  -47.5560   20.3960 C.3   197  SER197      0.2130
     69  OG        32.6280  -46.2270   20.6250 O.3   197  SER197     -0.2179
     70  N         31.9080  -50.3510   21.6320 N.am  198  ASP198     -0.1971
     71  CA        31.9110  -51.7850   21.3090 C.3   198  ASP198      0.1709
     72  C         31.5310  -52.5680   22.5720 C.2   198  ASP198      0.2293
     73  O         32.3860  -52.8750   23.3750 O.2   198  ASP198     -0.2864
     74  CB        33.3230  -52.2000   20.9220 C.3   198  ASP198      0.1436
     75  CG        33.4200  -53.6720   20.6120 C.2   198  ASP198      0.3671
     76  OD1       32.3330  -54.3690   20.4790 O.co2 198  ASP198     -0.2456
     77  OD2       34.5950  -54.1370   20.5060 O.co2 198  ASP198     -0.2456
     78  N         31.4930  -48.4890   33.8810 N.3   222  TRP222     -0.1227
     79  CA        32.5390  -47.4640   33.8090 C.3   222  TRP222      0.1737
     80  C         32.0090  -46.0610   33.7280 C.2   222  TRP222      0.2595
     81  O         32.7180  -45.1550   34.1530 O.2   222  TRP222     -0.2718
     82  CB        33.4470  -47.7920   32.6130 C.3   222  TRP222      0.0564
     83  CG        34.5920  -46.9170   32.2890 C.ar  222  TRP222      0.0003
     84  CD1       34.9200  -46.5000   31.0110 C.ar  222  TRP222      0.0946
     85  CD2       35.6780  -46.5310   33.1270 C.ar  222  TRP222      0.0152
     86  NE1       36.0740  -45.7610   31.0330 N.ar  222  TRP222     -0.2442
     87  CE2       36.5870  -45.7900   32.3150 C.ar  222  TRP222      0.0810
     88  CE3       36.0110  -46.7590   34.4750 C.ar  222  TRP222      0.0012
     89  CZ2       37.7570  -45.2390   32.8350 C.ar  222  TRP222      0.0191
     90  CZ3       37.1690  -46.1920   34.9950 C.ar  222  TRP222      0.0001
     91  CH2       38.0220  -45.4290   34.1770 C.ar  222  TRP222      0.0015
     92  N         30.8370  -45.8680   33.1170 N.am  223  PHE223     -0.1962
     93  CA        30.1190  -44.5970   33.1250 C.3   223  PHE223      0.1771
     94  C         28.6710  -44.9290   33.4410 C.2   223  PHE223      0.2620
     95  O         28.0260  -45.6100   32.6230 O.2   223  PHE223     -0.2715
     96  CB        30.0800  -43.8280   31.7820 C.3   223  PHE223      0.0574
     97  CG        31.3880  -43.1450   31.4080 C.ar  223  PHE223     -0.0200
     98  CD1       32.5040  -43.8900   31.0220 C.ar  223  PHE223     -0.0042
     99  CD2       31.5330  -41.7690   31.5350 C.ar  223  PHE223     -0.0042
    100  CE1       33.7240  -43.2200   30.7050 C.ar  223  PHE223     -0.0003
    101  CE2       32.7450  -41.1350   31.2330 C.ar  223  PHE223     -0.0003
    102  CZ        33.8190  -41.8710   30.8310 C.ar  223  PHE223     -0.0000
    103  N         28.1750  -44.4000   34.5660 N.am  224  SER224     -0.1936
    104  CA        26.7330  -44.5680   34.9340 C.3   224  SER224      0.2055
    105  C         26.1750  -43.2380   35.3700 C.2   224  SER224      0.2643
    106  O         26.3810  -42.8150   36.5170 O.2   224  SER224     -0.2714
    107  CB        26.6420  -45.5690   36.0930 C.3   224  SER224      0.2130
    108  OG        27.0400  -46.8220   35.6810 O.3   224  SER224     -0.2179
    109  N         25.5500  -42.5400   34.4520 N.am  225  SER225     -0.1949
    110  CA        24.9520  -41.2630   34.6980 C.3   225  SER225      0.1924
    111  C         23.5940  -41.3400   35.4060 C.2   225  SER225      0.2314
    112  O         22.8670  -42.3000   35.2740 O.2   225  SER225     -0.2863
    113  CB        24.8200  -40.4990   33.3820 C.3   225  SER225      0.2116
    114  OG        26.0830  -40.1150   32.8980 O.3   225  SER225     -0.2180
    115  N         34.2960  -34.1300   35.1510 N.3   277  LYS277     -0.1245
    116  CA        33.9130  -34.0440   33.7340 C.3   277  LYS277      0.1561
    117  C         34.1020  -32.6480   33.2100 C.2   277  LYS277      0.2260
    118  O         33.9350  -31.6490   33.9650 O.2   277  LYS277     -0.2867
    119  CB        32.4590  -34.4390   33.5480 C.3   277  LYS277      0.0271
    120  CG        32.1660  -35.8550   34.0470 C.3   277  LYS277      0.0035
    121  CD        30.7450  -36.3200   33.7920 C.3   277  LYS277      0.0206
    122  CE        29.8500  -35.7860   34.9260 C.3   277  LYS277      0.1093
    123  NZ        28.4050  -36.0100   34.6330 N.3   277  LYS277     -0.1314
    124  N         32.1360  -31.0640   31.1200 N.3   279  GLY279     -0.1210
    125  CA        30.8190  -30.5190   31.3160 C.3   279  GLY279      0.1956
    126  C         29.8770  -31.5540   31.8280 C.2   279  GLY279      0.2612
    127  O         30.3100  -32.6180   32.2630 O.2   279  GLY279     -0.2717
    128  N         28.5560  -31.2710   31.7620 N.am  280  THR280     -0.1952
    129  CA        27.5820  -32.0620   32.4940 C.3   280  THR280      0.1897
    130  C         27.9040  -32.1930   33.9890 C.2   280  THR280      0.2313
    131  O         27.5250  -33.1840   34.6650 O.2   280  THR280     -0.2863
    132  CB        27.2680  -33.4650   31.8480 C.3   280  THR280      0.1794
    133  OG1       28.3290  -34.3860   32.0940 O.3   280  THR280     -0.2208
    134  CG2       27.0460  -33.3830   30.2650 C.3   280  THR280      0.0378
    135  N         27.6430  -38.6400   37.5750 N.3   285  THR285     -0.1218
    136  CA        28.0410  -39.7980   36.7640 C.3   285  THR285      0.1862
    137  C         29.0660  -40.5490   37.5670 C.2   285  THR285      0.2287
    138  O         30.1150  -40.0180   37.9430 O.2   285  THR285     -0.2866
    139  CB        28.5890  -39.3610   35.3760 C.3   285  THR285      0.1770
    140  OG1       27.6130  -38.6000   34.6410 O.3   285  THR285     -0.2211
    141  CG2       29.1040  -40.5420   34.5750 C.3   285  THR285      0.0375
    142  N         29.4420  -32.6450   25.2300 N.3   441  VAL441     -0.1245
    143  CA        29.0510  -34.0290   25.4810 C.3   441  VAL441      0.1561
    144  C         28.3060  -34.6930   24.2580 C.2   441  VAL441      0.2260
    145  O         28.3670  -35.9060   24.0460 O.2   441  VAL441     -0.2867
    146  CB        28.1970  -34.1750   26.7500 C.3   441  VAL441      0.0252
    147  CG1       26.7360  -33.8910   26.5140 C.3   441  VAL441      0.0019
    148  CG2       28.4260  -35.5830   27.3130 C.3   441  VAL441      0.0019
    149  N         29.6510  -37.1210   21.6790 N.3   444  ILE444     -0.1231
    150  CA        30.4360  -38.2080   22.2900 C.3   444  ILE444      0.1692
    151  C         29.5500  -39.3440   22.8020 C.2   444  ILE444      0.2592
    152  O         29.6920  -40.5380   22.3900 O.2   444  ILE444     -0.2718
    153  CB        31.3880  -37.6800   23.3620 C.3   444  ILE444      0.0266
    154  CG1       32.4340  -36.7400   22.7210 C.3   444  ILE444      0.0019
    155  CG2       32.1130  -38.8420   24.0460 C.3   444  ILE444      0.0020
    156  CD1       33.3180  -36.0110   23.7410 C.3   444  ILE444      0.0001
    157  N         28.6320  -39.0060   23.6720 N.am  445  TRP445     -0.1962
    158  CA        27.8180  -40.0480   24.2570 C.3   445  TRP445      0.1771
    159  C         26.6520  -40.4620   23.3860 C.2   445  TRP445      0.2620
    160  O         26.3200  -39.7770   22.4440 O.2   445  TRP445     -0.2715
    161  CB        27.3800  -39.6780   25.6810 C.3   445  TRP445      0.0590
    162  CG        26.4090  -38.5430   25.9010 C.ar  445  TRP445      0.0006
    163  CD1       25.6660  -37.8270   24.9730 C.ar  445  TRP445      0.0946
    164  CD2       26.0280  -38.0580   27.1770 C.ar  445  TRP445      0.0152
    165  NE1       24.9430  -36.8980   25.6020 N.ar  445  TRP445     -0.2442
    166  CE2       25.0900  -37.0440   26.9660 C.ar  445  TRP445      0.0810
    167  CE3       26.3980  -38.4130   28.5110 C.ar  445  TRP445      0.0012
    168  CZ2       24.5040  -36.3300   28.0450 C.ar  445  TRP445      0.0191
    169  CZ3       25.8200  -37.7190   29.5640 C.ar  445  TRP445      0.0001
    170  CH2       24.9220  -36.6530   29.3180 C.ar  445  TRP445      0.0015
    171  N         26.0980  -41.6350   23.7110 N.am  446  GLU446     -0.1963
    172  CA        25.0940  -42.3110   22.8980 C.3   446  GLU446      0.1733
    173  C         25.6030  -42.4890   21.4540 C.2   446  GLU446      0.2617
    174  O         24.8030  -42.5320   20.5300 O.2   446  GLU446     -0.2715
    175  CB        23.7580  -41.5640   22.8870 C.3   446  GLU446      0.0429
    176  CG        23.1130  -41.4550   24.2950 C.3   446  GLU446      0.1163
    177  CD        22.5760  -42.7830   24.9100 C.2   446  GLU446      0.3649
    178  OE1       22.6450  -43.8750   24.3050 O.co2 446  GLU446     -0.2457
    179  OE2       22.0600  -42.7030   26.0610 O.co2 446  GLU446     -0.2457
    180  N         26.9120  -42.6870   21.3350 N.am  447  GLY447     -0.1940
    181  CA        27.5420  -43.0140   20.0600 C.3   447  GLY447      0.2014
    182  C         28.3310  -41.8420   19.5090 C.2   447  GLY447      0.2639
    183  O         27.7800  -40.7730   19.3000 O.2   447  GLY447     -0.2714
    184  N         29.6060  -42.0280   19.2300 N.am  448  THR448     -0.1950
    185  CA        30.3710  -40.9310   18.6230 C.3   448  THR448      0.1897
    186  C         29.9180  -40.6960   17.1950 C.2   448  THR448      0.2313
    187  O         29.1980  -41.5280   16.5610 O.2   448  THR448     -0.2863
    188  CB        31.8770  -41.2070   18.6610 C.3   448  THR448      0.1794
    189  OG1       32.2030  -42.2000   17.6830 O.3   448  THR448     -0.2208
    190  CG2       32.3120  -41.6240   20.0460 C.3   448  THR448      0.0378
    191  N         31.5120  -40.9580   14.3710 N.3   450  ASN450     -0.1225
    192  CA        31.8750  -42.0300   13.4780 C.3   450  ASN450      0.1785
    193  C         31.1040  -43.3450   13.7150 C.2   450  ASN450      0.2597
    194  O         30.7900  -44.0960   12.7810 O.2   450  ASN450     -0.2718
    195  CB        33.3910  -42.2160   13.5070 C.3   450  ASN450      0.1169
    196  CG        34.1160  -41.0850   12.7380 C.2   450  ASN450      0.2627
    197  OD1       33.4820  -40.2400   12.1180 O.2   450  ASN450     -0.2716
    198  ND2       35.4360  -41.0660   12.8020 N.am  450  ASN450     -0.0877
    199  N         30.8810  -43.6410   14.9650 N.am  451  VAL451     -0.1980
    200  CA        30.2140  -44.8830   15.3310 C.3   451  VAL451      0.1595
    201  C         28.7990  -44.8150   14.8170 C.2   451  VAL451      0.2287
    202  O         28.2880  -45.7990   14.3210 O.2   451  VAL451     -0.2864
    203  CB        30.3070  -45.1240   16.8640 C.3   451  VAL451      0.0276
    204  CG1       29.3000  -46.1600   17.3770 C.3   451  VAL451      0.0022
    205  CG2       31.7440  -45.4980   17.2480 C.3   451  VAL451      0.0022
    206  N         28.6890  -45.3620   11.1250 N.3   454  LEU454     -0.1245
    207  CA        28.6860  -46.7690   10.8640 C.3   454  LEU454      0.1561
    208  C         27.2870  -47.3940   11.0370 C.2   454  LEU454      0.2260
    209  O         26.9620  -48.3380   10.3050 O.2   454  LEU454     -0.2867
    210  CB        29.6770  -47.4620   11.7540 C.3   454  LEU454      0.0270
    211  CG        31.1150  -47.1430   11.4000 C.3   454  LEU454      0.0019
    212  CD1       32.0130  -47.8410   12.3740 C.3   454  LEU454      0.0001
    213  CD2       31.4690  -47.6090   10.0230 C.3   454  LEU454      0.0001
@<TRIPOS>BOND
     1   213   211    1
     2   209   208    2
     3   207   208    1
     4   207   206    1
     5   207   210    1
     6   211   210    1
     7   211   212    1
     8   197   196    2
     9   196   198   am
    10   196   195    1
    11   194   193    2
    12   192   195    1
    13   192   193    1
    14   192   191    1
    15   193   199   am
    16   202   201    2
    17   201   200    1
    18   199   200    1
    19   200   203    1
    20   187   186    2
    21   203   205    1
    22   203   204    1
    23   186   185    1
    24   189   188    1
    25   185   188    1
    26   185   184    1
    27   188   190    1
    28   184   182   am
    29   183   182    2
    30   182   181    1
    31   181   180    1
    32    68    69    1
    33    68    65    1
    34    76    75   ar
    35    77    75   ar
    36    67    66    2
    37   174   173    2
    38    75    74    1
    39    74    71    1
    40    66    65    1
    41    66    70   am
    42    71    70    1
    43    71    72    1
    44   180   173   am
    45    65    64    1
    46   173   172    1
    47   149   150    1
    48   150   151    1
    49   150   153    1
    50   152   151    2
    51   160   159    2
    52    72    73    2
    53   154   153    1
    54   154   156    1
    55    64    62   am
    56   151   157   am
    57   175   172    1
    58   175   176    1
    59   172   171    1
    60   153   155    1
    61   159   171   am
    62   159   158    1
    63   157   158    1
    64    63    62    2
    65    62    61    1
    66   145   144    2
    67   158   161    1
    68   144   143    1
    69   176   177    1
    70   178   177   ar
    71    39    38    1
    72   177   179   ar
    73   163   165   ar
    74   163   162   ar
    75    60    61    1
    76    60    58   am
    77   142   143    1
    78    57    58    1
    79    57    56    1
    80   143   146    1
    81   165   166   ar
    82   161   162    1
    83    58    59    2
    84    38    37    1
    85   162   164   ar
    86    17    15   am
    87   147   146    1
    88   146   148    1
    89   166   164   ar
    90   166   168   ar
    91   164   167   ar
    92    37    36    1
    93    15    16    2
    94    15    14    1
    95    36    33    1
    96    45    44    1
    97   168   170   ar
    98   167   169   ar
    99    14    13    1
   100    46    44    1
   101    44    41    1
   102    35    34    2
   103    41    40    1
   104    41    42    1
   105    34    33    1
   106    34    40   am
   107    33    32    1
   108    50    49    2
   109     1     2    1
   110   170   169   ar
   111    47    42   am
   112    47    48    1
   113     2     3    1
   114     2     5    1
   115    13    10    1
   116     4     3    2
   117    42    43    2
   118     6     5    1
   119     6     7    1
   120    32    20   am
   121    49    48    1
   122   134   132    1
   123    48    51    1
   124    51    52    1
   125   100   102   ar
   126   100    98   ar
   127   102   101   ar
   128    52    53    1
   129    84    86   ar
   130    84    83   ar
   131    98    97   ar
   132    86    87   ar
   133    20    21    2
   134    20    19    1
   135   124   125    1
   136     7     8    1
   137    10    11    1
   138    10     9    1
   139   101    99   ar
   140    12    11    2
   141   125   126    1
   142    97    99   ar
   143    97    96    1
   144    11    18   am
   145    53    55   ar
   146    53    54   ar
   147    18    19    1
   148   128   126   am
   149   128   129    1
   150    96    93    1
   151   126   127    2
   152   132   133    1
   153   132   129    1
   154    19    22    1
   155    83    82    1
   156    83    85   ar
   157    87    89   ar
   158    87    85   ar
   159   129   130    1
   160    82    79    1
   161    95    94    2
   162    89    91   ar
   163   114   113    1
   164    92    93    1
   165    92    80   am
   166    93    94    1
   167    85    88   ar
   168   117   116    1
   169   117   118    2
   170   113   110    1
   171    94   103   am
   172    22    23    1
   173   119   116    1
   174   119   120    1
   175    80    79    1
   176    80    81    2
   177   116   115    1
   178   121   120    1
   179   121   122    1
   180    79    78    1
   181   130   131    2
   182    91    90   ar
   183   109   110    1
   184   109   105   am
   185    88    90   ar
   186   103   104    1
   187   141   139    1
   188    24    23   ar
   189    24    26   ar
   190    23    25   ar
   191   123   122    1
   192   140   139    1
   193   110   111    1
   194   104   105    1
   195   104   107    1
   196   112   111    2
   197   105   106    2
   198   139   136    1
   199   108   107    1
   200    26    27   ar
   201    25    28   ar
   202    25    27   ar
   203    28    30   ar
   204    27    29   ar
   205   136   137    1
   206   136   135    1
   207   137   138    2
   208    30    31   ar
   209    29    31   ar
