@<TRIPOS>MOLECULE
tmp/4y9tA00.pdb
 120 114 0 0 0
SMALL
GASTEIGER

@<TRIPOS>ATOM
      1  N         26.9130   -4.2390   42.5880 N.3    10  THR10      -0.1218
      2  CA        26.0020   -5.3320   42.9650 C.3    10  THR10       0.1862
      3  C         24.6560   -4.7320   43.3210 C.2    10  THR10       0.2287
      4  O         24.5220   -3.5090   43.4050 O.2    10  THR10      -0.2866
      5  CB        26.4700   -6.1270   44.2040 C.3    10  THR10       0.1770
      6  OG1       26.1730   -5.3540   45.3720 O.3    10  THR10      -0.2211
      7  CG2       27.9620   -6.4330   44.1500 C.3    10  THR10       0.0375
      8  N         23.0780   -5.1800   48.8480 N.3    13  ASP13      -0.1239
      9  CA        22.7050   -4.6270   50.1580 C.3    13  ASP13       0.1674
     10  C         21.8630   -3.3660   49.9820 C.2    13  ASP13       0.2266
     11  O         21.5710   -2.9590   48.8610 O.2    13  ASP13      -0.2867
     12  CB        23.9490   -4.3950   51.0340 C.3    13  ASP13       0.1410
     13  CG        24.8860   -3.3080   50.5010 C.2    13  ASP13       0.3668
     14  OD1       24.3990   -2.2960   49.9990 O.co2  13  ASP13      -0.2456
     15  OD2       26.1250   -3.4790   50.6300 O.co2  13  ASP13      -0.2456
     16  N         22.4550   -0.2570   50.6220 N.3    15  PHE15      -0.1227
     17  CA        23.1090    0.9100   50.0340 C.3    15  PHE15       0.1736
     18  C         23.0180    0.8430   48.5080 C.2    15  PHE15       0.2595
     19  O         22.7360    1.8230   47.8170 O.2    15  PHE15      -0.2718
     20  CB        24.5850    1.0020   50.4450 C.3    15  PHE15       0.0547
     21  CG        25.3180    2.1370   49.7670 C.ar   15  PHE15      -0.0202
     22  CD1       25.9370    1.9470   48.5490 C.ar   15  PHE15      -0.0042
     23  CD2       25.3660    3.3910   50.3540 C.ar   15  PHE15      -0.0042
     24  CE1       26.5860    2.9780   47.9270 C.ar   15  PHE15      -0.0003
     25  CE2       26.0110    4.4380   49.7330 C.ar   15  PHE15      -0.0003
     26  CZ        26.6170    4.2350   48.5130 C.ar   15  PHE15      -0.0000
     27  N         23.3110   -0.3240   47.9690 N.am   16  GLN16      -0.1979
     28  CA        23.3530   -0.4480   46.5220 C.3    16  GLN16       0.1601
     29  C         21.9580   -0.2400   45.9460 C.2    16  GLN16       0.2287
     30  O         21.7840    0.5300   44.9910 O.2    16  GLN16      -0.2864
     31  CB        23.9110   -1.8110   46.0960 C.3    16  GLN16       0.0394
     32  CG        25.3820   -2.0630   46.5060 C.3    16  GLN16       0.0908
     33  CD        26.3370   -0.9980   45.9870 C.2    16  GLN16       0.2608
     34  OE1       26.0350   -0.3080   45.0240 O.2    16  GLN16      -0.2717
     35  NE2       27.5090   -0.8870   46.6110 N.am   16  GLN16      -0.0878
     36  N         30.5880    7.1070   44.6450 N.3    86  ASP86      -0.1225
     37  CA        30.9270    6.3930   45.8890 C.3    86  ASP86       0.1805
     38  C         32.3470    5.8090   45.9720 C.2    86  ASP86       0.2597
     39  O         33.0120    5.9430   47.0100 O.2    86  ASP86      -0.2718
     40  CB        29.9150    5.2860   46.1300 C.3    86  ASP86       0.1424
     41  CG        29.9930    4.7190   47.5520 C.2    86  ASP86       0.3668
     42  OD1       29.9580    5.5280   48.5210 O.co2  86  ASP86      -0.2456
     43  OD2       30.0750    3.4730   47.6990 O.co2  86  ASP86      -0.2456
     44  N         32.8270    5.2250   44.8680 N.am   87  ARG87      -0.1979
     45  CA        34.0990    4.5220   44.8280 C.3    87  ARG87       0.1597
     46  C         35.0950    5.3290   44.0190 C.2    87  ARG87       0.2287
     47  O         35.0540    5.3440   42.7880 O.2    87  ARG87      -0.2864
     48  CB        33.9010    3.1140   44.2330 C.3    87  ARG87       0.0334
     49  CG        32.9520    2.2420   45.0780 C.3    87  ARG87       0.0492
     50  CD        32.7590    0.8580   44.5110 C.3    87  ARG87       0.2205
     51  NE        31.8750    0.0650   45.3750 N.pl3  87  ARG87      -0.0865
     52  CZ        31.8780   -1.2640   45.4350 C.cat  87  ARG87       0.5346
     53  NH1       32.7220   -1.9370   44.6860 N.pl3  87  ARG87       0.1354
     54  NH2       31.0600   -1.9080   46.2570 N.pl3  87  ARG87       0.1354
     55  N         37.7470   -1.9970   46.6310 N.3   137  ASP137     -0.1239
     56  CA        36.7690   -0.9300   46.8400 C.3   137  ASP137      0.1674
     57  C         37.3930    0.1440   47.7300 C.2   137  ASP137      0.2266
     58  O         37.6060   -0.1030   48.9190 O.2   137  ASP137     -0.2867
     59  CB        35.4880   -1.5020   47.4580 C.3   137  ASP137      0.1410
     60  CG        34.4760   -0.4200   47.8610 C.2   137  ASP137      0.3668
     61  OD1       34.6880    0.7760   47.5350 O.co2 137  ASP137     -0.2456
     62  OD2       33.4430   -0.7910   48.4400 O.co2 137  ASP137     -0.2456
     63  N         36.2170    2.6580   49.1020 N.3   139  TYR139     -0.1241
     64  CA        35.3850    3.0580   50.2240 C.3   139  TYR139      0.1605
     65  C         35.9280    2.4570   51.5250 C.2   139  TYR139      0.2264
     66  O         36.1620    3.1720   52.5110 O.2   139  TYR139     -0.2867
     67  CB        33.9360    2.6180   50.0250 C.3   139  TYR139      0.0534
     68  CG        33.0370    3.0120   51.1860 C.ar  139  TYR139     -0.0201
     69  CD1       32.5690    4.2910   51.2790 C.ar  139  TYR139     -0.0009
     70  CD2       32.6580    2.1000   52.1680 C.ar  139  TYR139     -0.0009
     71  CE1       31.7440    4.6870   52.3150 C.ar  139  TYR139      0.0417
     72  CE2       31.8260    2.4880   53.2430 C.ar  139  TYR139      0.0417
     73  CZ        31.3750    3.7950   53.3010 C.ar  139  TYR139      0.1957
     74  OH        30.5560    4.2770   54.3200 O.3   139  TYR139     -0.2866
     75  N         32.6210   -8.1290   49.8440 N.3   167  TRP167     -0.1241
     76  CA        31.6390   -7.5230   50.7310 C.3   167  TRP167      0.1605
     77  C         30.5940   -8.5420   51.2670 C.2   167  TRP167      0.2264
     78  O         29.5030   -8.1730   51.6700 O.2   167  TRP167     -0.2867
     79  CB        30.9480   -6.3540   50.0060 C.3   167  TRP167      0.0550
     80  CG        31.7130   -5.0540   50.0510 C.ar  167  TRP167      0.0003
     81  CD1       32.3400   -4.4330   49.0030 C.ar  167  TRP167      0.0946
     82  CD2       31.9120   -4.2070   51.1990 C.ar  167  TRP167      0.0152
     83  NE1       32.9040   -3.2380   49.4250 N.ar  167  TRP167     -0.2442
     84  CE2       32.6590   -3.0860   50.7680 C.ar  167  TRP167      0.0810
     85  CE3       31.5250   -4.2840   52.5480 C.ar  167  TRP167      0.0012
     86  CZ2       33.0190   -2.0650   51.6230 C.ar  167  TRP167      0.0191
     87  CZ3       31.8860   -3.2500   53.4000 C.ar  167  TRP167      0.0001
     88  CH2       32.6240   -2.1630   52.9320 C.ar  167  TRP167      0.0015
     89  N         30.4970   -2.2080   56.8620 N.3   192  ALA192     -0.1245
     90  CA        29.1350   -1.9140   56.4170 C.3   192  ALA192      0.1562
     91  C         28.1580   -2.7120   57.2950 C.2   192  ALA192      0.2260
     92  O         28.5030   -3.7500   57.8420 O.2   192  ALA192     -0.2867
     93  CB        28.9710   -2.2200   54.9230 C.3   192  ALA192      0.0290
     94  N         25.5010   -4.4710   56.8050 N.3   194  HIS194     -0.1241
     95  CA        25.0510   -5.8190   56.5020 C.3   194  HIS194      0.1621
     96  C         26.0850   -6.8270   57.0080 C.2   194  HIS194      0.2264
     97  O         25.7380   -7.9880   57.2650 O.2   194  HIS194     -0.2867
     98  CB        24.7620   -6.0330   54.9890 C.3   194  HIS194      0.0745
     99  CG        25.9650   -5.9660   54.1100 C.ar  194  HIS194      0.0817
    100  ND1       26.6420   -4.7930   53.8740 N.ar  194  HIS194     -0.2268
    101  CD2       26.6000   -6.9220   53.3800 C.ar  194  HIS194      0.1154
    102  CE1       27.6530   -5.0190   53.0570 C.ar  194  HIS194      0.1986
    103  NE2       27.6530   -6.3020   52.7390 N.ar  194  HIS194     -0.2212
    104  N         28.4000    2.2040   57.3490 N.3   217  ASN217     -0.1240
    105  CA        27.7190    2.7920   56.1860 C.3   217  ASN217      0.1653
    106  C         26.3520    3.3860   56.4180 C.2   217  ASN217      0.2266
    107  O         25.9090    4.1270   55.5800 O.2   217  ASN217     -0.2867
    108  CB        27.6030    1.8020   55.0120 C.3   217  ASN217      0.1155
    109  CG        26.5890    0.6820   55.2380 C.2   217  ASN217      0.2627
    110  OD1       26.1390    0.4430   56.3620 O.2   217  ASN217     -0.2716
    111  ND2       26.2890   -0.0710   54.1590 N.am  217  ASN217     -0.0877
    112  N         27.5480    6.8240   55.9880 N.3   237  GLN237     -0.1245
    113  CA        27.8780    7.6510   54.8260 C.3   237  GLN237      0.1566
    114  C         26.5700    8.2630   54.3580 C.2   237  GLN237      0.2260
    115  O         25.5240    7.6400   54.4810 O.2   237  GLN237     -0.2867
    116  CB        28.5060    6.8280   53.7090 C.3   237  GLN237      0.0367
    117  CG        27.5870    5.7160   53.1610 C.3   237  GLN237      0.0905
    118  CD        28.2450    4.9760   51.9960 C.2   237  GLN237      0.2608
    119  OE1       28.3770    3.7320   51.9980 O.2   237  GLN237     -0.2717
    120  NE2       28.6970    5.7450   50.9950 N.am  237  GLN237     -0.0878
@<TRIPOS>BOND
     1     1     2    1
     2    47    46    2
     3     2     3    1
     4     2     5    1
     5     3     4    2
     6    46    45    1
     7     7     5    1
     8     5     6    1
     9    48    45    1
    10    48    49    1
    11    50    49    1
    12    50    51    1
    13    36    37    1
    14    53    52    1
    15    45    44    1
    16    44    38   am
    17    30    29    2
    18    34    33    2
    19    51    52    2
    20    52    54    1
    21    37    38    1
    22    37    40    1
    23    29    28    1
    24    38    39    2
    25    33    32    1
    26    33    35   am
    27    31    32    1
    28    31    28    1
    29    40    41    1
    30    28    27    1
    31    55    56    1
    32    56    59    1
    33    56    57    1
    34    59    60    1
    35    61    60   ar
    36    41    43   ar
    37    41    42   ar
    38    57    58    2
    39    19    18    2
    40    60    62   ar
    41    24    26   ar
    42    24    22   ar
    43    27    18   am
    44    18    17    1
    45    26    25   ar
    46    22    21   ar
    47     8     9    1
    48    11    10    2
    49    81    83   ar
    50    81    80   ar
    51    63    64    1
    52    83    84   ar
    53    25    23   ar
    54    21    23   ar
    55    21    20    1
    56    75    76    1
    57    10     9    1
    58    14    13   ar
    59    79    80    1
    60    79    76    1
    61    67    64    1
    62    67    68    1
    63    17    20    1
    64    17    16    1
    65    80    82   ar
    66     9    12    1
    67    64    65    1
    68    13    15   ar
    69    13    12    1
    70    76    77    1
    71    84    82   ar
    72    84    86   ar
    73   120   118   am
    74    68    69   ar
    75    68    70   ar
    76    82    85   ar
    77    77    78    2
    78    69    71   ar
    79    65    66    2
    80    86    88   ar
    81   118   119    2
    82   118   117    1
    83    70    72   ar
    84    71    73   ar
    85    85    87   ar
    86   103   102   ar
    87   103   101   ar
    88    88    87   ar
    89   102   100   ar
    90   117   116    1
    91    72    73   ar
    92    73    74    1
    93   101    99   ar
    94   116   113    1
    95   100    99   ar
    96    99    98    1
    97   111   109   am
    98   114   115    2
    99   114   113    1
   100   113   112    1
   101    93    90    1
   102    98    95    1
   103   108   109    1
   104   108   105    1
   105   109   110    2
   106   107   106    2
   107   105   106    1
   108   105   104    1
   109    90    89    1
   110    90    91    1
   111    95    94    1
   112    95    96    1
   113    96    97    2
   114    91    92    2
