@<TRIPOS>MOLECULE
tmp/4y9vA01.pdb
 82 78 0 0 0
SMALL
GASTEIGER

@<TRIPOS>ATOM
      1  N        -13.5200   22.1410   38.9630 N.3   146  TYR146     -0.1241
      2  CA       -14.4270   21.5810   39.9500 C.3   146  TYR146      0.1605
      3  C        -15.8050   21.2050   39.3830 C.2   146  TYR146      0.2264
      4  O        -16.6490   20.7200   40.1340 O.2   146  TYR146     -0.2867
      5  CB       -14.5620   22.5220   41.1380 C.3   146  TYR146      0.0534
      6  CG       -15.0380   23.9120   40.8760 C.ar  146  TYR146     -0.0201
      7  CD1      -16.4010   24.2430   41.0010 C.ar  146  TYR146     -0.0009
      8  CD2      -14.1660   24.9530   40.5580 C.ar  146  TYR146     -0.0009
      9  CE1      -16.8550   25.5310   40.8020 C.ar  146  TYR146      0.0417
     10  CE2      -14.6160   26.2630   40.3750 C.ar  146  TYR146      0.0417
     11  CZ       -15.9530   26.5460   40.5160 C.ar  146  TYR146      0.1957
     12  OH       -16.4150   27.8470   40.4040 O.3   146  TYR146     -0.2866
     13  N        -20.4020   37.1760   50.7430 N.3   227  PHE227     -0.1241
     14  CA       -20.4660   36.3470   49.5410 C.3   227  PHE227      0.1605
     15  C        -21.8710   35.9790   49.0950 C.2   227  PHE227      0.2264
     16  O        -22.1400   36.0050   47.8800 O.2   227  PHE227     -0.2867
     17  CB       -19.6640   35.0780   49.7290 C.3   227  PHE227      0.0534
     18  CG       -18.1590   35.3310   49.8620 C.ar  227  PHE227     -0.0203
     19  CD1      -17.4480   35.8470   48.7940 C.ar  227  PHE227     -0.0042
     20  CD2      -17.4860   35.0440   51.0410 C.ar  227  PHE227     -0.0042
     21  CE1      -16.0840   36.0830   48.8950 C.ar  227  PHE227     -0.0003
     22  CE2      -16.1270   35.2850   51.1430 C.ar  227  PHE227     -0.0003
     23  CZ       -15.4140   35.7970   50.0710 C.ar  227  PHE227     -0.0000
     24  N        -27.4590   29.8700   51.3640 N.3   231  ARG231     -0.1245
     25  CA       -26.9640   28.8120   50.4850 C.3   231  ARG231      0.1563
     26  C        -27.6430   27.5080   50.8550 C.2   231  ARG231      0.2260
     27  O        -27.6790   27.1160   52.0310 O.2   231  ARG231     -0.2867
     28  CB       -25.4420   28.6570   50.5950 C.3   231  ARG231      0.0307
     29  CG       -24.8860   27.5210   49.7640 C.3   231  ARG231      0.0489
     30  CD       -23.3860   27.3650   49.8770 C.3   231  ARG231      0.2205
     31  NE       -22.6970   28.5260   49.3400 N.pl3 231  ARG231     -0.0865
     32  CZ       -21.6430   29.1450   49.8630 C.cat 231  ARG231      0.5346
     33  NH1      -21.1070   28.7250   50.9930 N.pl3 231  ARG231      0.1354
     34  NH2      -21.1500   30.2240   49.2540 N.pl3 231  ARG231      0.1354
     35  N        -16.0990   37.5270   43.7940 N.3   253  THR253     -0.1203
     36  CA       -16.3130   36.4100   42.9130 C.3   253  THR253      0.1994
     37  C        -17.7110   35.8030   43.0170 C.2   253  THR253      0.2617
     38  O        -18.1010   35.0020   42.1370 O.2   253  THR253     -0.2717
     39  CB       -15.2220   35.3140   43.1370 C.3   253  THR253      0.1784
     40  OG1      -15.1610   34.9690   44.5540 O.3   253  THR253     -0.2211
     41  CG2      -13.8680   35.7710   42.6610 C.3   253  THR253      0.0376
     42  N        -18.4610   36.1210   44.0590 N.am  254  LEU254     -0.1979
     43  CA       -19.8000   35.5900   44.2460 C.3   254  LEU254      0.1596
     44  C        -20.7880   36.7690   44.1980 C.2   254  LEU254      0.2287
     45  O        -21.1240   37.2570   43.1360 O.2   254  LEU254     -0.2864
     46  CB       -19.9260   34.6900   45.4770 C.3   254  LEU254      0.0297
     47  CG       -19.3100   33.2610   45.3650 C.3   254  LEU254      0.0022
     48  CD1      -17.7990   33.2770   45.3950 C.3   254  LEU254      0.0001
     49  CD2      -19.8780   32.3610   46.4620 C.3   254  LEU254      0.0001
     50  N        -27.6610   31.1690   46.8120 N.3   259  GLN259     -0.1245
     51  CA       -26.8580   30.2500   46.0230 C.3   259  GLN259      0.1566
     52  C        -27.4190   28.8470   46.1910 C.2   259  GLN259      0.2260
     53  O        -27.4820   28.3270   47.3120 O.2   259  GLN259     -0.2867
     54  CB       -25.3730   30.2840   46.3890 C.3   259  GLN259      0.0367
     55  CG       -24.5350   29.4800   45.3770 C.3   259  GLN259      0.0905
     56  CD       -23.0470   29.5100   45.6550 C.2   259  GLN259      0.2608
     57  OE1      -22.6390   29.7910   46.7720 O.2   259  GLN259     -0.2717
     58  NE2      -22.2440   29.2000   44.6350 N.am  259  GLN259     -0.0878
     59  N        -22.3750   26.1170   42.5240 N.3   284  GLY284     -0.1210
     60  CA       -21.8220   25.4600   43.6900 C.3   284  GLY284      0.1956
     61  C        -20.3040   25.4570   43.7130 C.2   284  GLY284      0.2612
     62  O        -19.6870   26.4170   43.2390 O.2   284  GLY284     -0.2717
     63  N        -19.7660   24.4430   44.3400 N.am  285  ASP285     -0.1959
     64  CA       -18.3210   24.4010   44.6210 C.3   285  ASP285      0.1840
     65  C        -17.7750   23.0260   44.2590 C.2   285  ASP285      0.2623
     66  O        -18.2990   22.3390   43.4030 O.2   285  ASP285     -0.2715
     67  CB       -17.9930   24.9810   45.9900 C.3   285  ASP285      0.1450
     68  CG       -18.4520   24.1270   47.1480 C.2   285  ASP285      0.3671
     69  OD1      -19.6710   24.1030   47.4040 O.co2 285  ASP285     -0.2456
     70  OD2      -17.6240   23.4520   47.7870 O.co2 285  ASP285     -0.2456
     71  N        -16.6580   22.6360   44.8960 N.am  286  GLY286     -0.1940
     72  CA       -15.8510   21.5400   44.4330 C.3   286  GLY286      0.2014
     73  C        -15.4340   20.5310   45.4770 C.2   286  GLY286      0.2638
     74  O        -14.5070   19.7600   45.2150 O.2   286  GLY286     -0.2714
     75  N        -16.0760   20.4870   46.6280 N.am  287  ASP287     -0.1971
     76  CA       -15.7810   19.4460   47.5750 C.3   287  ASP287      0.1709
     77  C        -16.3850   18.1060   47.1210 C.2   287  ASP287      0.2293
     78  O        -17.2740   18.0520   46.2770 O.2   287  ASP287     -0.2864
     79  CB       -16.2970   19.8310   48.9590 C.3   287  ASP287      0.1436
     80  CG       -15.5400   20.9460   49.6350 C.2   287  ASP287      0.3671
     81  OD1      -14.5450   21.4600   49.0590 O.co2 287  ASP287     -0.2456
     82  OD2      -15.9780   21.3370   50.7540 O.co2 287  ASP287     -0.2456
@<TRIPOS>BOND
     1     1     2    1
     2     3     2    1
     3     3     4    2
     4     2     5    1
     5    10    11   ar
     6    10     8   ar
     7    12    11    1
     8    11     9   ar
     9     8     6   ar
    10     9     7   ar
    11     6     7   ar
    12     6     5    1
    13    38    37    2
    14    59    60    1
    15    41    39    1
    16    36    37    1
    17    36    39    1
    18    36    35    1
    19    37    42   am
    20    45    44    2
    21    39    40    1
    22    62    61    2
    23    66    65    2
    24    60    61    1
    25    61    63   am
    26    42    43    1
    27    44    43    1
    28    43    46    1
    29    65    64    1
    30    65    71   am
    31    63    64    1
    32    72    71    1
    33    72    73    1
    34    64    67    1
    35    58    56   am
    36    74    73    2
    37    47    48    1
    38    47    46    1
    39    47    49    1
    40    55    56    1
    41    55    54    1
    42    73    75   am
    43    56    57    2
    44    67    68    1
    45    51    52    1
    46    51    54    1
    47    51    50    1
    48    52    53    2
    49    78    77    2
    50    75    76    1
    51    77    76    1
    52    68    69   ar
    53    68    70   ar
    54    76    79    1
    55    16    15    2
    56    19    21   ar
    57    19    18   ar
    58    21    23   ar
    59    79    80    1
    60    81    80   ar
    61    15    14    1
    62    34    32    1
    63    31    32    2
    64    31    30    1
    65    14    17    1
    66    14    13    1
    67    80    82   ar
    68    17    18    1
    69    29    30    1
    70    29    28    1
    71    18    20   ar
    72    32    33    1
    73    23    22   ar
    74    25    28    1
    75    25    26    1
    76    25    24    1
    77    26    27    2
    78    20    22   ar
