@<TRIPOS>MOLECULE
tmp/4y9vA00.pdb
 132 125 0 0 0
SMALL
GASTEIGER

@<TRIPOS>ATOM
      1  N        -14.4430   24.5190   34.1790 N.3   144  ARG144     -0.1245
      2  CA       -13.8500   24.7640   35.4970 C.3   144  ARG144      0.1563
      3  C        -13.4790   23.4120   36.0880 C.2   144  ARG144      0.2260
      4  O        -14.2030   22.4370   35.9330 O.2   144  ARG144     -0.2867
      5  CB       -14.8190   25.4990   36.4390 C.3   144  ARG144      0.0307
      6  CG       -15.3110   26.8250   35.9070 C.3   144  ARG144      0.0489
      7  CD       -16.0630   27.6430   36.9380 C.3   144  ARG144      0.2205
      8  NE       -16.7380   28.7680   36.3060 N.pl3 144  ARG144     -0.0865
      9  CZ       -17.4170   29.6760   36.9750 C.cat 144  ARG144      0.5346
     10  NH1      -17.4700   29.6300   38.3020 N.pl3 144  ARG144      0.1354
     11  NH2      -18.0960   30.6150   36.3150 N.pl3 144  ARG144      0.1354
     12  N        -13.5200   22.1410   38.9630 N.3   146  TYR146     -0.1227
     13  CA       -14.4270   21.5810   39.9500 C.3   146  TYR146      0.1736
     14  C        -15.8050   21.2050   39.3830 C.2   146  TYR146      0.2595
     15  O        -16.6490   20.7200   40.1340 O.2   146  TYR146     -0.2718
     16  CB       -14.5620   22.5220   41.1380 C.3   146  TYR146      0.0548
     17  CG       -15.0380   23.9120   40.8760 C.ar  146  TYR146     -0.0200
     18  CD1      -16.4010   24.2430   41.0010 C.ar  146  TYR146     -0.0009
     19  CD2      -14.1660   24.9530   40.5580 C.ar  146  TYR146     -0.0009
     20  CE1      -16.8550   25.5310   40.8020 C.ar  146  TYR146      0.0417
     21  CE2      -14.6160   26.2630   40.3750 C.ar  146  TYR146      0.0417
     22  CZ       -15.9530   26.5460   40.5160 C.ar  146  TYR146      0.1957
     23  OH       -16.4150   27.8470   40.4040 O.3   146  TYR146     -0.2866
     24  N        -15.9810   21.3470   38.0760 N.am  147  TYR147     -0.1976
     25  CA       -17.1940   20.8350   37.4180 C.3   147  TYR147      0.1639
     26  C        -16.9880   19.3370   37.1650 C.2   147  TYR147      0.2290
     27  O        -16.6100   18.9030   36.0750 O.2   147  TYR147     -0.2864
     28  CB       -17.4610   21.5790   36.1340 C.3   147  TYR147      0.0560
     29  CG       -17.8850   23.0150   36.2410 C.ar  147  TYR147     -0.0198
     30  CD1      -18.3020   23.6050   37.4480 C.ar  147  TYR147     -0.0009
     31  CD2      -17.9510   23.8230   35.1010 C.ar  147  TYR147     -0.0009
     32  CE1      -18.7490   24.9330   37.4950 C.ar  147  TYR147      0.0417
     33  CE2      -18.4240   25.0990   35.1250 C.ar  147  TYR147      0.0417
     34  CZ       -18.8290   25.6790   36.3110 C.ar  147  TYR147      0.1957
     35  OH       -19.3200   26.9530   36.3930 O.3   147  TYR147     -0.2866
     36  N        -27.4590   29.8700   51.3640 N.3   231  ARG231     -0.1245
     37  CA       -26.9640   28.8120   50.4850 C.3   231  ARG231      0.1563
     38  C        -27.6430   27.5080   50.8550 C.2   231  ARG231      0.2260
     39  O        -27.6790   27.1160   52.0310 O.2   231  ARG231     -0.2867
     40  CB       -25.4420   28.6570   50.5950 C.3   231  ARG231      0.0307
     41  CG       -24.8860   27.5210   49.7640 C.3   231  ARG231      0.0489
     42  CD       -23.3860   27.3650   49.8770 C.3   231  ARG231      0.2205
     43  NE       -22.6970   28.5260   49.3400 N.pl3 231  ARG231     -0.0865
     44  CZ       -21.6430   29.1450   49.8630 C.cat 231  ARG231      0.5346
     45  NH1      -21.1070   28.7250   50.9930 N.pl3 231  ARG231      0.1354
     46  NH2      -21.1500   30.2240   49.2540 N.pl3 231  ARG231      0.1354
     47  N        -16.0990   37.5270   43.7940 N.3   253  THR253     -0.1203
     48  CA       -16.3130   36.4100   42.9130 C.3   253  THR253      0.1994
     49  C        -17.7110   35.8030   43.0170 C.2   253  THR253      0.2617
     50  O        -18.1010   35.0020   42.1370 O.2   253  THR253     -0.2717
     51  CB       -15.2220   35.3140   43.1370 C.3   253  THR253      0.1784
     52  OG1      -15.1610   34.9690   44.5540 O.3   253  THR253     -0.2211
     53  CG2      -13.8680   35.7710   42.6610 C.3   253  THR253      0.0376
     54  N        -18.4610   36.1210   44.0590 N.am  254  LEU254     -0.1979
     55  CA       -19.8000   35.5900   44.2460 C.3   254  LEU254      0.1596
     56  C        -20.7880   36.7690   44.1980 C.2   254  LEU254      0.2287
     57  O        -21.1240   37.2570   43.1360 O.2   254  LEU254     -0.2864
     58  CB       -19.9260   34.6900   45.4770 C.3   254  LEU254      0.0297
     59  CG       -19.3100   33.2610   45.3650 C.3   254  LEU254      0.0022
     60  CD1      -17.7990   33.2770   45.3950 C.3   254  LEU254      0.0001
     61  CD2      -19.8780   32.3610   46.4620 C.3   254  LEU254      0.0001
     62  N        -24.1840   36.6390   45.8410 N.3   256  TYR256     -0.1241
     63  CA       -25.3900   35.9280   45.4490 C.3   256  TYR256      0.1605
     64  C        -26.4690   36.1470   46.5080 C.2   256  TYR256      0.2264
     65  O        -26.1980   36.0980   47.7050 O.2   256  TYR256     -0.2867
     66  CB       -25.1120   34.4370   45.3030 C.3   256  TYR256      0.0534
     67  CG       -24.0010   34.0970   44.3340 C.ar  256  TYR256     -0.0201
     68  CD1      -23.6800   34.8780   43.2390 C.ar  256  TYR256     -0.0009
     69  CD2      -23.2740   32.9230   44.4980 C.ar  256  TYR256     -0.0009
     70  CE1      -22.6780   34.4990   42.3380 C.ar  256  TYR256      0.0417
     71  CE2      -22.3080   32.5230   43.5810 C.ar  256  TYR256      0.0417
     72  CZ       -22.0140   33.3080   42.4980 C.ar  256  TYR256      0.1957
     73  OH       -21.0420   32.8560   41.6450 O.3   256  TYR256     -0.2866
     74  N        -27.6610   31.1690   46.8120 N.3   259  GLN259     -0.1245
     75  CA       -26.8580   30.2500   46.0230 C.3   259  GLN259      0.1566
     76  C        -27.4190   28.8470   46.1910 C.2   259  GLN259      0.2260
     77  O        -27.4820   28.3270   47.3120 O.2   259  GLN259     -0.2867
     78  CB       -25.3730   30.2840   46.3890 C.3   259  GLN259      0.0367
     79  CG       -24.5350   29.4800   45.3770 C.3   259  GLN259      0.0905
     80  CD       -23.0470   29.5100   45.6550 C.2   259  GLN259      0.2608
     81  OE1      -22.6390   29.7910   46.7720 O.2   259  GLN259     -0.2717
     82  NE2      -22.2440   29.2000   44.6350 N.am  259  GLN259     -0.0878
     83  N        -24.5550   40.9580   42.5690 N.3   277  ARG277     -0.1245
     84  CA       -24.4100   40.1260   41.3760 C.3   277  ARG277      0.1563
     85  C        -25.6630   39.2370   41.2760 C.2   277  ARG277      0.2260
     86  O        -26.7650   39.7340   41.4240 O.2   277  ARG277     -0.2867
     87  CB       -23.0490   39.4240   41.2960 C.3   277  ARG277      0.0307
     88  CG       -21.8930   40.4070   41.3310 C.3   277  ARG277      0.0489
     89  CD       -20.5350   39.7830   41.0820 C.3   277  ARG277      0.2205
     90  NE       -20.4420   39.2310   39.7410 N.pl3 277  ARG277     -0.0865
     91  CZ       -20.4170   37.9690   39.3980 C.cat 277  ARG277      0.5346
     92  NH1      -20.4570   36.9880   40.2800 N.pl3 277  ARG277      0.1354
     93  NH2      -20.3590   37.6470   38.0930 N.pl3 277  ARG277      0.1354
     94  N        -28.1350   32.3990   42.1590 N.3   281  ALA281     -0.1245
     95  CA       -27.0100   31.7600   41.4990 C.3   281  ALA281      0.1562
     96  C        -27.2090   30.2630   41.6220 C.2   281  ALA281      0.2260
     97  O        -27.4550   29.7660   42.7170 O.2   281  ALA281     -0.2867
     98  CB       -25.7030   32.1430   42.1590 C.3   281  ALA281      0.0290
     99  N        -25.2320   26.8400   40.9220 N.3   283  GLY283     -0.1210
    100  CA       -23.8760   26.4120   40.6320 C.3   283  GLY283      0.1956
    101  C        -23.3470   25.5690   41.7880 C.2   283  GLY283      0.2612
    102  O        -23.8100   24.4660   41.9990 O.2   283  GLY283     -0.2717
    103  N        -22.3750   26.1170   42.5240 N.am  284  GLY284     -0.1942
    104  CA       -21.8220   25.4600   43.6900 C.3   284  GLY284      0.2014
    105  C        -20.3040   25.4570   43.7130 C.2   284  GLY284      0.2638
    106  O        -19.6870   26.4170   43.2390 O.2   284  GLY284     -0.2714
    107  N        -19.7660   24.4430   44.3400 N.am  285  ASP285     -0.1971
    108  CA       -18.3210   24.4010   44.6210 C.3   285  ASP285      0.1709
    109  C        -17.7750   23.0260   44.2590 C.2   285  ASP285      0.2293
    110  O        -18.2990   22.3390   43.4030 O.2   285  ASP285     -0.2864
    111  CB       -17.9930   24.9810   45.9900 C.3   285  ASP285      0.1436
    112  CG       -18.4520   24.1270   47.1480 C.2   285  ASP285      0.3671
    113  OD1      -19.6710   24.1030   47.4040 O.co2 285  ASP285     -0.2456
    114  OD2      -17.6240   23.4520   47.7870 O.co2 285  ASP285     -0.2456
    115  N        -24.8920   28.4340   36.1770 N.3   315  HIS315     -0.1241
    116  CA       -23.5010   28.1610   35.8800 C.3   315  HIS315      0.1621
    117  C        -23.3580   26.9320   34.9680 C.2   315  HIS315      0.2264
    118  O        -24.3040   26.1690   34.7350 O.2   315  HIS315     -0.2867
    119  CB       -22.7040   27.9340   37.1800 C.3   315  HIS315      0.0745
    120  CG       -22.3660   29.1620   37.9370 C.ar  315  HIS315      0.0817
    121  ND1      -23.2270   30.0640   38.4880 N.ar  315  HIS315     -0.2268
    122  CD2      -21.1340   29.6050   38.2700 C.ar  315  HIS315      0.1154
    123  CE1      -22.5450   31.0100   39.1170 C.ar  315  HIS315      0.1986
    124  NE2      -21.2760   30.7330   39.0140 N.ar  315  HIS315     -0.2212
    125  N        -22.1750   24.0440   35.5040 N.3   317  ASN317     -0.1240
    126  CA       -22.4920   22.7470   36.0740 C.3   317  ASN317      0.1653
    127  C        -23.9900   22.5410   36.2920 C.2   317  ASN317      0.2266
    128  O        -24.3370   21.6890   37.1060 O.2   317  ASN317     -0.2867
    129  CB       -21.7440   22.5150   37.3910 C.3   317  ASN317      0.1155
    130  CG       -22.3350   23.3980   38.4910 C.2   317  ASN317      0.2627
    131  OD1      -22.7860   24.4970   38.2120 O.2   317  ASN317     -0.2716
    132  ND2      -22.2650   22.9120   39.7210 N.am  317  ASN317     -0.0877
@<TRIPOS>BOND
     1     1     2    1
     2   118   117    2
     3   117   116    1
     4    31    33   ar
     5    31    29   ar
     6    33    34   ar
     7     2     3    1
     8     2     5    1
     9   125   126    1
    10   116   115    1
    11   116   119    1
    12     6     5    1
    13     6     7    1
    14     4     3    2
    15   126   127    1
    16   126   129    1
    17    27    26    2
    18    28    29    1
    19    28    25    1
    20    29    30   ar
    21   127   128    2
    22     8     7    1
    23     8     9    2
    24    34    35    1
    25    34    32   ar
    26    11     9    1
    27     9    10    1
    28    26    25    1
    29   119   120    1
    30   129   130    1
    31    25    24    1
    32    30    32   ar
    33   120   122   ar
    34   120   121   ar
    35    24    14   am
    36    93    91    1
    37   131   130    2
    38   122   124   ar
    39   121   123   ar
    40   130   132   am
    41    12    13    1
    42   124   123   ar
    43    14    13    1
    44    14    15    2
    45    91    90    2
    46    91    92    1
    47    90    89    1
    48    13    16    1
    49    21    22   ar
    50    21    19   ar
    51    23    22    1
    52    22    20   ar
    53    19    17   ar
    54   100    99    1
    55   100   101    1
    56    20    18   ar
    57    17    18   ar
    58    17    16    1
    59    89    88    1
    60    85    84    1
    61    85    86    2
    62    87    88    1
    63    87    84    1
    64    84    83    1
    65    95    96    1
    66    95    94    1
    67    95    98    1
    68    96    97    2
    69    73    72    1
    70   101   102    2
    71   101   103   am
    72    50    49    2
    73    70    72   ar
    74    70    68   ar
    75    72    71   ar
    76   103   104    1
    77    53    51    1
    78    48    49    1
    79    48    51    1
    80    48    47    1
    81    49    54   am
    82    57    56    2
    83    51    52    1
    84    68    67   ar
    85   106   105    2
    86   110   109    2
    87    71    69   ar
    88   104   105    1
    89   105   107   am
    90    54    55    1
    91    56    55    1
    92    55    58    1
    93   109   108    1
    94    67    69   ar
    95    67    66    1
    96   107   108    1
    97   108   111    1
    98    82    80   am
    99    66    63    1
   100    59    60    1
   101    59    58    1
   102    59    61    1
   103    79    80    1
   104    79    78    1
   105    63    62    1
   106    63    64    1
   107    80    81    2
   108   111   112    1
   109    75    76    1
   110    75    78    1
   111    75    74    1
   112    76    77    2
   113    64    65    2
   114   112   113   ar
   115   112   114   ar
   116    46    44    1
   117    43    44    2
   118    43    42    1
   119    41    42    1
   120    41    40    1
   121    44    45    1
   122    37    40    1
   123    37    38    1
   124    37    36    1
   125    38    39    2
