@<TRIPOS>MOLECULE
tmp/4y9zY00.pdb
 153 147 0 0 0
SMALL
GASTEIGER

@<TRIPOS>ATOM
      1  N         56.3930 -152.7130    8.6740 N.3     1  THR1       -0.1218
      2  CA        56.7660 -153.3150    7.3810 C.3     1  THR1        0.1862
      3  C         56.2200 -152.6510    6.1280 C.2     1  THR1        0.2287
      4  O         55.1720 -152.0560    6.1370 O.2     1  THR1       -0.2866
      5  CB        56.2690 -154.7480    7.3680 C.3     1  THR1        0.1770
      6  OG1       56.9560 -155.3940    8.3930 O.3     1  THR1       -0.2211
      7  CG2       56.5700 -155.4800    6.0900 C.3     1  THR1        0.0375
      8  N         62.9470 -153.8710    8.3660 N.3    19  ARG19      -0.1231
      9  CA        62.8680 -153.2000    9.6640 C.3    19  ARG19       0.1694
     10  C         61.9010 -153.8780   10.6350 C.2    19  ARG19       0.2592
     11  O         60.8130 -154.3040   10.2490 O.2    19  ARG19      -0.2718
     12  CB        62.4690 -151.7330    9.4940 C.3    19  ARG19       0.0321
     13  CG        62.4260 -150.9750   10.8140 C.3    19  ARG19       0.0489
     14  CD        62.2390 -149.4810   10.6240 C.3    19  ARG19       0.2205
     15  NE        63.4180 -148.8430   10.0410 N.pl3  19  ARG19      -0.0865
     16  CZ        63.6330 -147.5290   10.0100 C.cat  19  ARG19       0.5346
     17  NH1       62.7560 -146.6800   10.5380 N.pl3  19  ARG19       0.1354
     18  NH2       64.7410 -147.0570    9.4520 N.pl3  19  ARG19       0.1354
     19  N         62.3150 -153.9670   11.8960 N.am   20  ALA20      -0.1966
     20  CA        61.4450 -154.4130   12.9800 C.3    20  ALA20       0.1728
     21  C         61.3350 -153.2970   14.0080 C.2    20  ALA20       0.2617
     22  O         62.3320 -152.6550   14.3460 O.2    20  ALA20      -0.2715
     23  CB        61.9910 -155.6720   13.6290 C.3    20  ALA20       0.0334
     24  N         60.1220 -153.0740   14.5040 N.am   21  THR21      -0.1937
     25  CA        59.8660 -152.0020   15.4610 C.3    21  THR21       0.2028
     26  C         59.0790 -152.4920   16.6700 C.2    21  THR21       0.2642
     27  O         58.2750 -153.4190   16.5720 O.2    21  THR21      -0.2714
     28  CB        59.0820 -150.8450   14.8090 C.3    21  THR21       0.1808
     29  OG1       57.8410 -151.3360   14.2810 O.3    21  THR21      -0.2208
     30  CG2       59.9000 -150.2070   13.6890 C.3    21  THR21       0.0379
     31  N         59.3350 -151.8600   17.8090 N.am   22  ALA22      -0.1977
     32  CA        58.5360 -152.0430   19.0110 C.3    22  ALA22       0.1597
     33  C         58.0920 -150.6550   19.4440 C.2    22  ALA22       0.2287
     34  O         58.8270 -149.9430   20.1290 O.2    22  ALA22      -0.2864
     35  CB        59.3490 -152.7140   20.1010 C.3    22  ALA22       0.0319
     36  N         60.5520 -147.5890   18.9140 N.3    25  TRP25      -0.1241
     37  CA        61.8970 -148.1480   18.9940 C.3    25  TRP25       0.1605
     38  C         62.1760 -148.9840   17.7530 C.2    25  TRP25       0.2264
     39  O         61.4260 -149.9120   17.4440 O.2    25  TRP25      -0.2867
     40  CB        62.0390 -149.0060   20.2580 C.3    25  TRP25       0.0550
     41  CG        63.2440 -149.8930   20.2860 C.ar   25  TRP25       0.0003
     42  CD1       63.2620 -151.2530   20.1830 C.ar   25  TRP25       0.0946
     43  CD2       64.6050 -149.4830   20.4370 C.ar   25  TRP25       0.0152
     44  NE1       64.5510 -151.7160   20.2590 N.ar   25  TRP25      -0.2442
     45  CE2       65.3960 -150.6500   20.4140 C.ar   25  TRP25       0.0810
     46  CE3       65.2330 -148.2420   20.5870 C.ar   25  TRP25       0.0012
     47  CZ2       66.7840 -150.6130   20.5360 C.ar   25  TRP25       0.0191
     48  CZ3       66.6100 -148.2070   20.7040 C.ar   25  TRP25       0.0001
     49  CH2       67.3710 -149.3860   20.6780 C.ar   25  TRP25       0.0015
     50  N         63.9140 -151.8000   16.4590 N.3    27  ALA27      -0.1231
     51  CA        64.5100 -152.9760   17.0820 C.3    27  ALA27       0.1694
     52  C         65.5810 -153.5920   16.1980 C.2    27  ALA27       0.2592
     53  O         66.6630 -153.9280   16.6740 O.2    27  ALA27      -0.2718
     54  CB        63.4370 -153.9980   17.4010 C.3    27  ALA27       0.0304
     55  N         65.2800 -153.7340   14.9140 N.am   28  SER28      -0.1952
     56  CA        66.2180 -154.3260   13.9710 C.3    28  SER28       0.1924
     57  C         66.1220 -153.6410   12.6150 C.2    28  SER28       0.2314
     58  O         65.0660 -153.1320   12.2400 O.2    28  SER28      -0.2863
     59  CB        65.9410 -155.8260   13.8280 C.3    28  SER28       0.2116
     60  OG        66.8460 -156.4370   12.9220 O.3    28  SER28      -0.2180
     61  N         66.1070 -157.6380    9.4680 N.3    31  VAL31      -0.1231
     62  CA        65.1700 -158.7630    9.5400 C.3    31  VAL31       0.1692
     63  C         64.9210 -159.3720    8.1630 C.2    31  VAL31       0.2592
     64  O         64.6950 -158.6510    7.1900 O.2    31  VAL31      -0.2718
     65  CB        63.8180 -158.3360   10.1550 C.3    31  VAL31       0.0266
     66  CG1       62.7450 -159.3970    9.9380 C.3    31  VAL31       0.0020
     67  CG2       63.9820 -158.0630   11.6380 C.3    31  VAL31       0.0020
     68  N         64.9580 -160.7020    8.0990 N.am   32  LYS32      -0.1966
     69  CA        64.6110 -161.4350    6.8840 C.3    32  LYS32       0.1728
     70  C         63.0980 -161.6190    6.8190 C.2    32  LYS32       0.2616
     71  O         62.5300 -162.4070    7.5780 O.2    32  LYS32      -0.2715
     72  CB        65.3050 -162.8020    6.8430 C.3    32  LYS32       0.0311
     73  CG        66.6960 -162.7880    6.2170 C.3    32  LYS32       0.0038
     74  CD        67.0340 -164.1240    5.5640 C.3    32  LYS32       0.0206
     75  CE        66.3380 -164.2890    4.2180 C.3    32  LYS32       0.1093
     76  NZ        66.4800 -165.6640    3.6610 N.3    32  LYS32      -0.1314
     77  N         62.4530 -160.8860    5.9130 N.am   33  LYS33      -0.1977
     78  CA        60.9950 -160.9190    5.7790 C.3    33  LYS33       0.1596
     79  C         60.4990 -161.8090    4.6410 C.2    33  LYS33       0.2287
     80  O         59.2910 -161.9720    4.4670 O.2    33  LYS33      -0.2864
     81  CB        60.4510 -159.5010    5.6140 C.3    33  LYS33       0.0298
     82  CG        60.5160 -158.7070    6.9020 C.3    33  LYS33       0.0038
     83  CD        60.0210 -157.2890    6.7170 C.3    33  LYS33       0.0206
     84  CE        60.4890 -156.4130    7.8620 C.3    33  LYS33       0.1093
     85  NZ        59.8230 -155.0890    7.8380 N.3    33  LYS33      -0.1314
     86  N         56.5070 -161.7230    4.9460 N.3    45  MET45      -0.1230
     87  CA        56.0800 -161.5260    6.3330 C.3    45  MET45       0.1702
     88  C         55.7500 -160.0690    6.6400 C.2    45  MET45       0.2592
     89  O         56.5440 -159.1690    6.3660 O.2    45  MET45      -0.2718
     90  CB        57.1800 -161.9870    7.2840 C.3    45  MET45       0.0401
     91  CG        57.5860 -163.4390    7.1090 C.3    45  MET45       0.0596
     92  SD        58.8940 -163.8880    8.2600 S.3    45  MET45      -0.1393
     93  CE        59.2490 -165.5550    7.7190 C.3    45  MET45       0.0692
     94  N         54.5720 -159.8490    7.2140 N.am   46  ALA46      -0.1966
     95  CA        54.1820 -158.5380    7.7270 C.3    46  ALA46       0.1728
     96  C         53.2150 -158.7200    8.8880 C.2    46  ALA46       0.2617
     97  O         52.4050 -159.6450    8.8860 O.2    46  ALA46      -0.2715
     98  CB        53.5470 -157.6970    6.6320 C.3    46  ALA46       0.0334
     99  N         53.3040 -157.8280    9.8710 N.am   47  GLY47      -0.1940
    100  CA        52.5160 -157.9340   11.0980 C.3    47  GLY47       0.2014
    101  C         53.4010 -158.3830   12.2430 C.2    47  GLY47       0.2639
    102  O         54.5190 -157.8950   12.3950 O.2    47  GLY47      -0.2714
    103  N         52.9070 -159.3200   13.0440 N.am   48  GLY48      -0.1939
    104  CA        53.6760 -159.8580   14.1600 C.3    48  GLY48       0.2014
    105  C         54.8560 -160.6720   13.6650 C.2    48  GLY48       0.2639
    106  O         54.6860 -161.6120   12.8860 O.2    48  GLY48      -0.2714
    107  N         56.0520 -160.3040   14.1220 N.am   49  ALA49      -0.1963
    108  CA        57.2890 -160.9600   13.6950 C.3    49  ALA49       0.1728
    109  C         57.2900 -162.4470   14.0290 C.2    49  ALA49       0.2616
    110  O         57.5750 -163.2760   13.1700 O.2    49  ALA49      -0.2715
    111  CB        58.4920 -160.2780   14.3270 C.3    49  ALA49       0.0334
    112  N         56.9580 -162.7770   15.2740 N.am   50  ALA50      -0.1977
    113  CA        56.9390 -164.1670   15.7230 C.3    50  ALA50       0.1597
    114  C         55.8440 -164.9530   15.0180 C.2    50  ALA50       0.2287
    115  O         56.0870 -166.0490   14.5190 O.2    50  ALA50      -0.2864
    116  CB        56.7500 -164.2360   17.2290 C.3    50  ALA50       0.0319
    117  N         54.3920 -164.4580   12.1110 N.3    52  CYS52      -0.1221
    118  CA        54.8000 -164.7060   10.7280 C.3    52  CYS52       0.1808
    119  C         55.9290 -165.7270   10.6420 C.2    52  CYS52       0.2601
    120  O         55.8230 -166.7160    9.9200 O.2    52  CYS52      -0.2717
    121  CB        55.2320 -163.4050   10.0500 C.3    52  CYS52       0.0970
    122  SG        53.8450 -162.3740    9.5360 S.3    52  CYS52      -0.0800
    123  N         57.0000 -165.4840   11.3930 N.am   53  GLN53      -0.1979
    124  CA        58.1770 -166.3510   11.3700 C.3    53  GLN53       0.1601
    125  C         57.8070 -167.7840   11.7560 C.2    53  GLN53       0.2287
    126  O         58.0970 -168.7220   11.0220 O.2    53  GLN53      -0.2864
    127  CB        59.2610 -165.8140   12.3070 C.3    53  GLN53       0.0394
    128  CG        60.6770 -166.0660   11.8360 C.3    53  GLN53       0.0908
    129  CD        61.7010 -165.5210   12.8100 C.2    53  GLN53       0.2608
    130  OE1       61.8280 -166.0180   13.9300 O.2    53  GLN53      -0.2717
    131  NE2       62.4340 -164.4910   12.3960 N.am   53  GLN53      -0.0878
    132  N         51.5410 -154.2880    4.6220 N.3   130  GLY130     -0.1210
    133  CA        52.2900 -153.6870    5.7160 C.3   130  GLY130      0.1956
    134  C         51.9000 -152.2400    5.9550 C.2   130  GLY130      0.2612
    135  O         51.0770 -151.6790    5.2320 O.2   130  GLY130     -0.2717
    136  N         52.5100 -151.6340    6.9710 N.am  131  SER131     -0.1952
    137  CA        52.2430 -150.2400    7.3350 C.3   131  SER131      0.1924
    138  C         52.6800 -149.2410    6.2640 C.2   131  SER131      0.2314
    139  O         52.2530 -148.0870    6.2830 O.2   131  SER131     -0.2863
    140  CB        52.9470 -149.8990    8.6480 C.3   131  SER131      0.2116
    141  OG        54.3510 -150.0360    8.5120 O.3   131  SER131     -0.2180
    142  N         57.9520 -146.6750   10.0200 N.3   170  TYR170     -0.1241
    143  CA        58.1050 -148.0510   10.4830 C.3   170  TYR170      0.1605
    144  C         58.6020 -148.9970    9.3870 C.2   170  TYR170      0.2264
    145  O         58.6550 -150.2070    9.5870 O.2   170  TYR170     -0.2867
    146  CB        56.7840 -148.5370   11.0840 C.3   170  TYR170      0.0534
    147  CG        56.3000 -147.6270   12.1910 C.ar  170  TYR170     -0.0201
    148  CD1       56.9840 -147.5520   13.4000 C.ar  170  TYR170     -0.0009
    149  CD2       55.1780 -146.8210   12.0230 C.ar  170  TYR170     -0.0009
    150  CE1       56.5570 -146.7130   14.4140 C.ar  170  TYR170      0.0417
    151  CE2       54.7450 -145.9790   13.0350 C.ar  170  TYR170      0.0417
    152  CZ        55.4380 -145.9290   14.2280 C.ar  170  TYR170      0.1957
    153  OH        55.0160 -145.0970   15.2400 O.3   170  TYR170     -0.2866
@<TRIPOS>BOND
     1    76    75    1
     2    75    74    1
     3    80    79    2
     4   132   133    1
     5    79    78    1
     6    86    87    1
     7   135   134    2
     8    74    73    1
     9    81    78    1
    10    81    82    1
    11   133   134    1
    12    78    77    1
    13    77    70   am
    14   134   136   am
    15     7     5    1
    16     3     4    2
    17     3     2    1
    18    73    72    1
    19   138   139    2
    20   138   137    1
    21    87    88    1
    22    87    90    1
    23    89    88    2
    24    98    95    1
    25    88    94   am
    26    83    82    1
    27    83    84    1
    28    70    69    1
    29    70    71    2
    30    72    69    1
    31    69    68    1
    32   136   137    1
    33    91    90    1
    34    91    92    1
    35    64    63    2
    36    94    95    1
    37   137   140    1
    38     5     2    1
    39     5     6    1
    40     2     1    1
    41    93    92    1
    42    95    96    1
    43    85    84    1
    44    68    63   am
    45    63    62    1
    46     8     9    1
    47   141   140    1
    48    97    96    2
    49    96    99   am
    50   144   145    2
    51   144   143    1
    52    18    16    1
    53    61    62    1
    54    12     9    1
    55    12    13    1
    56   122   121    1
    57    62    65    1
    58     9    10    1
    59    99   100    1
    60   120   119    2
    61    66    65    1
    62    16    15    2
    63    16    17    1
    64   142   143    1
    65    15    14    1
    66   121   118    1
    67    65    67    1
    68    11    10    2
    69   143   146    1
    70    14    13    1
    71    10    19   am
    72   119   118    1
    73   119   123   am
    74   118   117    1
    75   126   125    2
    76   146   147    1
    77   100   101    1
    78   124   123    1
    79   124   125    1
    80   124   127    1
    81   128   127    1
    82   128   129    1
    83    19    20    1
    84   149   147   ar
    85   149   151   ar
    86   147   148   ar
    87    58    57    2
    88   101   102    2
    89   101   103   am
    90   131   129   am
    91    57    56    1
    92   129   130    2
    93   106   105    2
    94    60    59    1
    95    20    23    1
    96    20    21    1
    97   151   152   ar
    98   103   104    1
    99   110   109    2
   100   148   150   ar
   101   105   107   am
   102   105   104    1
   103    30    28    1
   104   108   109    1
   105   108   107    1
   106   108   111    1
   107    59    56    1
   108    56    55    1
   109    21    22    2
   110    21    24   am
   111   109   112   am
   112   152   150   ar
   113   152   153    1
   114    29    28    1
   115    24    25    1
   116   115   114    2
   117    28    25    1
   118    55    52   am
   119   114   113    1
   120   112   113    1
   121    25    26    1
   122   113   116    1
   123    52    53    2
   124    52    51    1
   125    50    51    1
   126    27    26    2
   127    26    31   am
   128    51    54    1
   129    39    38    2
   130    38    37    1
   131    31    32    1
   132    36    37    1
   133    37    40    1
   134    32    33    1
   135    32    35    1
   136    33    34    2
   137    42    44   ar
   138    42    41   ar
   139    40    41    1
   140    44    45   ar
   141    41    43   ar
   142    45    43   ar
   143    45    47   ar
   144    43    46   ar
   145    47    49   ar
   146    46    48   ar
   147    49    48   ar
