@<TRIPOS>MOLECULE
tmp/4ya2V00.pdb
 134 126 0 0 0
SMALL
GASTEIGER

@<TRIPOS>ATOM
      1  N          4.7750 -160.1710   43.0730 N.3     1  THR1       -0.1218
      2  CA         4.1910 -161.0120   44.1810 C.3     1  THR1        0.1862
      3  C          4.1880 -160.6290   45.6790 C.2     1  THR1        0.2287
      4  O          5.2050 -160.2600   46.2480 O.2     1  THR1       -0.2866
      5  CB         4.8800 -162.3620   44.0710 C.3     1  THR1        0.1770
      6  OG1        4.7550 -162.7860   42.7110 O.3     1  THR1       -0.2211
      7  CG2        4.2410 -163.4260   44.9610 C.3     1  THR1        0.0375
      8  N         -1.3000 -161.9280   40.7370 N.3    19  ARG19      -0.1231
      9  CA        -0.8110 -161.0430   39.6790 C.3    19  ARG19       0.1694
     10  C          0.5440 -161.5000   39.1520 C.2    19  ARG19       0.2593
     11  O          1.4240 -161.8790   39.9240 O.2    19  ARG19      -0.2718
     12  CB        -0.7010 -159.6000   40.1760 C.3    19  ARG19       0.0321
     13  CG        -0.0670 -158.6520   39.1660 C.3    19  ARG19       0.0489
     14  CD        -0.0570 -157.2190   39.6650 C.3    19  ARG19       0.2205
     15  NE        -1.3920 -156.6290   39.6710 N.pl3  19  ARG19      -0.0865
     16  CZ        -1.6670 -155.3890   40.0690 C.cat  19  ARG19       0.5346
     17  NH1       -0.7000 -154.5850   40.5000 N.pl3  19  ARG19       0.1354
     18  NH2       -2.9190 -154.9500   40.0380 N.pl3  19  ARG19       0.1354
     19  N          0.7000 -161.4420   37.8330 N.am   20  SER20      -0.1938
     20  CA         1.9710 -161.7180   37.1710 C.3    20  SER20       0.2055
     21  C          2.3190 -160.5170   36.3040 C.2    20  SER20       0.2644
     22  O          1.4490 -159.9810   35.6170 O.2    20  SER20      -0.2714
     23  CB         1.8520 -162.9720   36.3080 C.3    20  SER20       0.2130
     24  OG         3.0800 -163.2810   35.6720 O.3    20  SER20      -0.2179
     25  N          3.5810 -160.0930   36.3340 N.am   21  THR21      -0.1936
     26  CA         3.9890 -158.8700   35.6390 C.3    21  THR21       0.2028
     27  C          5.1600 -159.0570   34.6780 C.2    21  THR21       0.2642
     28  O          6.0000 -159.9360   34.8600 O.2    21  THR21      -0.2714
     29  CB         4.3910 -157.7620   36.6340 C.3    21  THR21       0.1808
     30  OG1        5.5400 -158.1780   37.3850 O.3    21  THR21      -0.2208
     31  CG2        3.2410 -157.4390   37.5830 C.3    21  THR21       0.0379
     32  N          5.1870 -158.2090   33.6520 N.am   22  GLN22      -0.1976
     33  CA         6.3520 -158.0280   32.7910 C.3    22  GLN22       0.1601
     34  C          6.6630 -156.5360   32.7990 C.2    22  GLN22       0.2287
     35  O          6.1210 -155.7740   31.9960 O.2    22  GLN22      -0.2864
     36  CB         6.0640 -158.5240   31.3700 C.3    22  GLN22       0.0394
     37  CG         7.2210 -158.3660   30.3890 C.3    22  GLN22       0.0908
     38  CD         8.4360 -159.2020   30.7550 C.2    22  GLN22       0.2608
     39  OE1        9.4880 -158.6660   31.1000 O.2    22  GLN22      -0.2717
     40  NE2        8.2960 -160.5210   30.6810 N.am   22  GLN22      -0.0878
     41  N          0.7200 -159.2240   32.9840 N.3    27  ALA27      -0.1231
     42  CA         0.6200 -160.2860   31.9830 C.3    27  ALA27       0.1694
     43  C         -0.5200 -161.2590   32.2810 C.2    27  ALA27       0.2592
     44  O         -1.2250 -161.6910   31.3670 O.2    27  ALA27      -0.2718
     45  CB         1.9340 -161.0380   31.8860 C.3    27  ALA27       0.0304
     46  N         -0.6850 -161.6030   33.5570 N.am   28  ASP28      -0.1974
     47  CA        -1.7150 -162.5470   33.9940 C.3    28  ASP28       0.1709
     48  C         -2.3830 -162.0190   35.2600 C.2    28  ASP28       0.2293
     49  O         -1.7120 -161.7480   36.2570 O.2    28  ASP28      -0.2864
     50  CB        -1.0920 -163.9260   34.2530 C.3    28  ASP28       0.1436
     51  CG        -2.1290 -165.0400   34.3760 C.2    28  ASP28       0.3671
     52  OD1       -1.7550 -166.2140   34.1610 O.co2  28  ASP28      -0.2456
     53  OD2       -3.3050 -164.7600   34.6950 O.co2  28  ASP28      -0.2456
     54  N         -3.0320 -165.8080   37.9010 N.3    31  CYS31      -0.1221
     55  CA        -2.0750 -166.9130   37.8660 C.3    31  CYS31       0.1808
     56  C         -1.9870 -167.5760   39.2390 C.2    31  CYS31       0.2601
     57  O         -2.1760 -166.9230   40.2660 O.2    31  CYS31      -0.2717
     58  CB        -0.6950 -166.4350   37.4020 C.3    31  CYS31       0.0970
     59  SG         0.2840 -165.5770   38.6530 S.3    31  CYS31      -0.0800
     60  N         -1.7010 -168.8760   39.2430 N.am   32  ALA32      -0.1965
     61  CA        -1.6800 -169.6720   40.4700 C.3    32  ALA32       0.1728
     62  C         -0.2670 -169.7530   41.0200 C.2    32  ALA32       0.2616
     63  O          0.6250 -170.3040   40.3720 O.2    32  ALA32      -0.2715
     64  CB        -2.2140 -171.0680   40.1990 C.3    32  ALA32       0.0334
     65  N         -0.0710 -169.2100   42.2170 N.am   33  LYS33      -0.1977
     66  CA         1.2540 -169.1570   42.8370 C.3    33  LYS33       0.1596
     67  C          1.4210 -170.1890   43.9520 C.2    33  LYS33       0.2287
     68  O          2.5080 -170.3220   44.5170 O.2    33  LYS33      -0.2864
     69  CB         1.5200 -167.7500   43.3620 C.3    33  LYS33       0.0298
     70  CG         1.3800 -166.6890   42.2840 C.3    33  LYS33       0.0038
     71  CD         1.8030 -165.3240   42.7830 C.3    33  LYS33       0.0206
     72  CE         1.3050 -164.2240   41.8640 C.3    33  LYS33       0.1093
     73  NZ         1.7530 -162.8990   42.3580 N.3    33  LYS33      -0.1314
     74  N          1.7470 -173.9740   44.6540 N.3    35  HIS35      -0.1241
     75  CA         2.1540 -175.1550   43.9060 C.3    35  HIS35       0.1621
     76  C          2.1180 -176.3850   44.7890 C.2    35  HIS35       0.2264
     77  O          2.6390 -176.3680   45.9030 O.2    35  HIS35      -0.2867
     78  CB         3.5730 -174.9820   43.3760 C.3    35  HIS35       0.0745
     79  CG         3.7820 -173.7170   42.6050 C.ar   35  HIS35       0.0817
     80  ND1        3.4150 -173.5810   41.2840 N.ar   35  HIS35      -0.2268
     81  CD2        4.3300 -172.5340   42.9680 C.ar   35  HIS35       0.1154
     82  CE1        3.7220 -172.3660   40.8680 C.ar   35  HIS35       0.1986
     83  NE2        4.2780 -171.7100   41.8710 N.ar   35  HIS35      -0.2212
     84  N          5.1480 -169.4480   45.8230 N.3    45  GLY45      -0.1210
     85  CA         6.3440 -169.0000   45.1100 C.3    45  GLY45       0.1956
     86  C          6.3090 -167.5530   44.6570 C.2    45  GLY45       0.2612
     87  O          5.2790 -167.0550   44.2020 O.2    45  GLY45      -0.2717
     88  N          7.4520 -166.8860   44.7940 N.am   46  ALA46      -0.1965
     89  CA         7.6680 -165.5400   44.2740 C.3    46  ALA46       0.1728
     90  C          8.9600 -165.5380   43.4740 C.2    46  ALA46       0.2617
     91  O          9.7790 -166.4480   43.6060 O.2    46  ALA46      -0.2715
     92  CB         7.7650 -164.5420   45.4130 C.3    46  ALA46       0.0334
     93  N          9.1480 -164.5110   42.6520 N.am   47  GLY47      -0.1940
     94  CA        10.3550 -164.3890   41.8370 C.3    47  GLY47       0.2014
     95  C         10.0680 -164.5850   40.3620 C.2    47  GLY47       0.2640
     96  O          9.0280 -164.1580   39.8650 O.2    47  GLY47      -0.2714
     97  N         11.0010 -165.2290   39.6660 N.am   48  THR48      -0.1936
     98  CA        10.8410 -165.5520   38.2510 C.3    48  THR48       0.2028
     99  C          9.8270 -166.6880   38.1090 C.2    48  THR48       0.2642
    100  O         10.0530 -167.7960   38.5950 O.2    48  THR48      -0.2714
    101  CB        12.1900 -165.9620   37.6240 C.3    48  THR48       0.1808
    102  OG1       13.1710 -164.9510   37.8970 O.3    48  THR48      -0.2208
    103  CG2       12.0650 -166.1530   36.1170 C.3    48  THR48       0.0379
    104  N          8.7130 -166.4000   37.4400 N.am   49  ALA49      -0.1963
    105  CA         7.5610 -167.3090   37.3930 C.3    49  ALA49       0.1728
    106  C          7.8930 -168.7010   36.8520 C.2    49  ALA49       0.2616
    107  O          7.4400 -169.7070   37.3990 O.2    49  ALA49      -0.2715
    108  CB         6.4390 -166.6850   36.5770 C.3    49  ALA49       0.0334
    109  N          8.6740 -168.7500   35.7770 N.am   50  ALA50      -0.1977
    110  CA         9.1130 -170.0220   35.1980 C.3    50  ALA50       0.1597
    111  C          9.9560 -170.8310   36.1790 C.2    50  ALA50       0.2287
    112  O          9.8040 -172.0500   36.2720 O.2    50  ALA50      -0.2864
    113  CB         9.9070 -169.7750   33.9320 C.3    50  ALA50       0.0319
    114  N         10.0600 -170.6540   39.6110 N.3    52  THR52      -0.1218
    115  CA         9.2700 -171.1820   40.7260 C.3    52  THR52       0.1862
    116  C          8.4760 -172.4030   40.2790 C.2    52  THR52       0.2287
    117  O          8.3840 -173.3810   41.0120 O.2    52  THR52      -0.2866
    118  CB         8.2920 -170.1490   41.3230 C.3    52  THR52       0.1770
    119  OG1        7.3810 -169.6940   40.3150 O.3    52  THR52      -0.2211
    120  CG2        9.0450 -168.9690   41.9150 C.3    52  THR52       0.0375
    121  N          8.2830 -161.9020   48.6000 N.3   128  GLY128     -0.1210
    122  CA         7.8890 -161.1850   47.3890 C.3   128  GLY128      0.1956
    123  C          7.9060 -159.6750   47.5510 C.2   128  GLY128      0.2612
    124  O          8.1890 -159.1600   48.6310 O.2   128  GLY128     -0.2717
    125  N          7.5970 -158.9680   46.4650 N.am  129  SER129     -0.1952
    126  CA         7.5890 -157.5020   46.4580 C.3   129  SER129      0.1924
    127  C          6.6580 -156.9270   47.5210 C.2   129  SER129      0.2314
    128  O          6.9770 -155.9150   48.1480 O.2   129  SER129     -0.2863
    129  CB         7.1860 -156.9710   45.0790 C.3   129  SER129      0.2116
    130  OG         5.9840 -157.5700   44.6280 O.3   129  SER129     -0.2180
    131  N          3.3360 -154.3880   42.6410 N.3   168  GLY168     -0.1225
    132  CA         3.7340 -155.7070   42.1610 C.3   168  GLY168      0.1811
    133  C          2.7230 -156.8090   42.4410 C.2   168  GLY168      0.2280
    134  O          2.8400 -157.8980   41.8900 O.2   168  GLY168     -0.2866
@<TRIPOS>BOND
     1    37    38    1
     2    37    36    1
     3    40    38   am
     4    38    39    2
     5    44    43    2
     6    36    33    1
     7    45    42    1
     8    42    43    1
     9    42    41    1
    10    35    34    2
    11    43    46   am
    12    33    34    1
    13    33    32    1
    14    46    47    1
    15    32    27   am
    16   113   110    1
    17    47    50    1
    18    47    48    1
    19    52    51   ar
    20    50    51    1
    21    51    53   ar
    22    27    28    2
    23    27    26    1
    24   110   109    1
    25   110   111    1
    26    48    49    2
    27    22    21    2
    28    26    25    1
    29    26    29    1
    30    24    23    1
    31   109   106   am
    32   103   101    1
    33   111   112    2
    34    21    25   am
    35    21    20    1
    36    23    20    1
    37   108   105    1
    38    29    30    1
    39    29    31    1
    40   106   105    1
    41   106   107    2
    42    20    19    1
    43   105   104    1
    44    58    55    1
    45    58    59    1
    46   104    99   am
    47   101   102    1
    48   101    98    1
    49    19    10   am
    50    55    54    1
    51    55    56    1
    52    99    98    1
    53    99   100    2
    54    98    97    1
    55    10     9    1
    56    10    11    2
    57    13    14    1
    58    13    12    1
    59    56    60   am
    60    56    57    2
    61    60    61    1
    62   114   115    1
    63    14    15    1
    64    97    95   am
    65    15    16    2
    66     9    12    1
    67     9     8    1
    68    96    95    2
    69    18    16    1
    70    16    17    1
    71    64    61    1
    72   116   115    1
    73   116   117    2
    74   119   118    1
    75    95    94    1
    76    63    62    2
    77    61    62    1
    78   115   118    1
    79    82    80   ar
    80    82    83   ar
    81    62    65   am
    82    80    79   ar
    83   118   120    1
    84    94    93    1
    85    72    73    1
    86    72    71    1
    87    83    81   ar
    88   134   133    2
    89   132   133    1
    90   132   131    1
    91    65    66    1
    92    70    71    1
    93    70    69    1
    94    79    81   ar
    95    79    78    1
    96    93    90   am
    97     6     5    1
    98    66    69    1
    99    66    67    1
   100     1     2    1
   101    78    75    1
   102    90    91    2
   103    90    89    1
   104    75    74    1
   105    75    76    1
   106    67    68    2
   107     5     2    1
   108     5     7    1
   109     2     3    1
   110    87    86    2
   111    89    88    1
   112    89    92    1
   113   130   129    1
   114    86    88   am
   115    86    85    1
   116    76    77    2
   117   129   126    1
   118    85    84    1
   119     3     4    2
   120   126   125    1
   121   126   127    1
   122   125   123   am
   123   122   123    1
   124   122   121    1
   125   127   128    2
   126   123   124    2
