@<TRIPOS>MOLECULE
tmp/4ya8A00.pdb
 213 199 0 0 0
SMALL
GASTEIGER

@<TRIPOS>ATOM
      1  N        -49.7300  -20.9890  -12.6720 N.3    11  PHE11      -0.1241
      2  CA       -50.3330  -20.9640  -11.3480 C.3    11  PHE11       0.1605
      3  C        -50.5300  -22.3900  -10.8430 C.2    11  PHE11       0.2264
      4  O        -51.5190  -23.0540  -11.1830 O.2    11  PHE11      -0.2867
      5  CB       -51.6640  -20.2130  -11.3800 C.3    11  PHE11       0.0534
      6  CG       -52.2980  -20.0350  -10.0290 C.ar   11  PHE11      -0.0203
      7  CD1      -53.4190  -20.7680   -9.6710 C.ar   11  PHE11      -0.0042
      8  CD2      -51.7720  -19.1360   -9.1170 C.ar   11  PHE11      -0.0042
      9  CE1      -54.0060  -20.6020   -8.4330 C.ar   11  PHE11      -0.0003
     10  CE2      -52.3550  -18.9650   -7.8760 C.ar   11  PHE11      -0.0003
     11  CZ       -53.4720  -19.7000   -7.5340 C.ar   11  PHE11      -0.0000
     12  N        -51.9740  -25.8830  -12.3250 N.3    14  ILE14      -0.1231
     13  CA       -53.3820  -26.0720  -12.6460 C.3    14  ILE14       0.1692
     14  C        -53.8830  -24.9680  -13.5680 C.2    14  ILE14       0.2591
     15  O        -54.7490  -25.2030  -14.4060 O.2    14  ILE14      -0.2718
     16  CB       -54.2660  -26.1280  -11.3750 C.3    14  ILE14       0.0266
     17  CG1      -54.2300  -24.8020  -10.6110 C.3    14  ILE14       0.0019
     18  CG2      -53.8380  -27.2850  -10.4850 C.3    14  ILE14       0.0020
     19  CD1      -55.2000  -24.7420   -9.4500 C.3    14  ILE14       0.0001
     20  N        -53.3340  -23.7660  -13.4280 N.am   15  MET15      -0.1979
     21  CA       -53.7670  -22.6720  -14.2860 C.3    15  MET15       0.1605
     22  C        -52.5760  -21.9270  -14.8560 C.2    15  MET15       0.2287
     23  O        -51.4290  -22.3000  -14.6190 O.2    15  MET15      -0.2864
     24  CB       -54.6730  -21.7030  -13.5210 C.3    15  MET15       0.0413
     25  CG       -55.9280  -22.3380  -12.9420 C.3    15  MET15       0.0598
     26  SD       -57.0580  -21.1180  -12.2440 S.3    15  MET15      -0.1393
     27  CE       -57.5910  -20.2790  -13.7370 C.3    15  MET15       0.0692
     28  N        -57.1590  -14.2800  -17.7260 N.3    32  ILE32      -0.1245
     29  CA       -57.2200  -15.6510  -18.1820 C.3    32  ILE32       0.1561
     30  C        -57.3340  -15.5940  -19.6920 C.2    32  ILE32       0.2260
     31  O        -58.3060  -15.0630  -20.2250 O.2    32  ILE32      -0.2867
     32  CB       -58.4070  -16.4140  -17.5720 C.3    32  ILE32       0.0252
     33  CG1      -58.1480  -16.6710  -16.0880 C.3    32  ILE32       0.0019
     34  CG2      -58.6300  -17.7230  -18.3010 C.3    32  ILE32       0.0019
     35  CD1      -59.2500  -17.4340  -15.3940 C.3    32  ILE32       0.0001
     36  N        -58.3160  -17.0880  -22.8310 N.3    34  ASP34      -0.1239
     37  CA       -59.3190  -18.1310  -22.9930 C.3    34  ASP34       0.1674
     38  C        -59.7360  -18.3390  -24.4400 C.2    34  ASP34       0.2266
     39  O        -60.3470  -17.4670  -25.0570 O.2    34  ASP34      -0.2867
     40  CB       -60.5500  -17.7920  -22.1500 C.3    34  ASP34       0.1410
     41  CG       -61.6300  -18.8540  -22.2330 C.2    34  ASP34       0.3668
     42  OD1      -62.8170  -18.5170  -22.0230 O.co2  34  ASP34      -0.2456
     43  OD2      -61.2960  -20.0240  -22.5090 O.co2  34  ASP34      -0.2456
     44  N        -61.8900  -20.4380  -25.1490 N.3    36  GLY36      -0.1210
     45  CA       -63.2300  -20.9770  -24.9890 C.3    36  GLY36       0.1956
     46  C        -64.3150  -19.9160  -24.9350 C.2    36  GLY36       0.2612
     47  O        -65.5020  -20.2340  -24.9090 O.2    36  GLY36      -0.2717
     48  N        -63.9110  -18.6510  -24.8990 N.am   37  SER37      -0.1952
     49  CA       -64.8610  -17.5470  -24.9700 C.3    37  SER37       0.1924
     50  C        -64.2840  -16.5060  -25.9090 C.2    37  SER37       0.2314
     51  O        -63.1350  -16.6280  -26.3370 O.2    37  SER37      -0.2863
     52  CB       -65.1470  -16.9420  -23.5940 C.3    37  SER37       0.2116
     53  OG       -63.9740  -16.4240  -22.9900 O.3    37  SER37      -0.2180
     54  N        -70.7540  -17.3480  -17.6930 N.3    77  TYR77      -0.1227
     55  CA       -69.8160  -18.4400  -17.8970 C.3    77  TYR77       0.1736
     56  C        -70.3560  -19.6830  -17.2130 C.2    77  TYR77       0.2595
     57  O        -71.3620  -19.6230  -16.5070 O.2    77  TYR77      -0.2718
     58  CB       -68.4280  -18.0900  -17.3490 C.3    77  TYR77       0.0548
     59  CG       -67.7050  -16.9970  -18.1060 C.ar   77  TYR77      -0.0200
     60  CD1      -66.7340  -17.3100  -19.0470 C.ar   77  TYR77      -0.0009
     61  CD2      -67.9860  -15.6560  -17.8780 C.ar   77  TYR77      -0.0009
     62  CE1      -66.0680  -16.3220  -19.7410 C.ar   77  TYR77       0.0417
     63  CE2      -67.3230  -14.6570  -18.5700 C.ar   77  TYR77       0.0417
     64  CZ       -66.3650  -14.9960  -19.5010 C.ar   77  TYR77       0.1957
     65  OH       -65.6980  -14.0130  -20.2000 O.3    77  TYR77      -0.2866
     66  N        -69.7020  -20.8160  -17.4320 N.am   78  VAL78      -0.1966
     67  CA       -70.1000  -22.0400  -16.7520 C.3    78  VAL78       0.1727
     68  C        -69.8260  -21.9030  -15.2550 C.2    78  VAL78       0.2616
     69  O        -70.6520  -22.2800  -14.4270 O.2    78  VAL78      -0.2715
     70  CB       -69.3620  -23.2660  -17.3140 C.3    78  VAL78       0.0290
     71  CG1      -69.8310  -24.5350  -16.6150 C.3    78  VAL78       0.0023
     72  CG2      -69.5800  -23.3680  -18.8180 C.3    78  VAL78       0.0023
     73  N        -68.6680  -21.3340  -14.9210 N.am   79  SER79      -0.1950
     74  CA       -68.2400  -21.1760  -13.5310 C.3    79  SER79       0.1924
     75  C        -69.0910  -20.1610  -12.7640 C.2    79  SER79       0.2314
     76  O        -69.3940  -20.3540  -11.5860 O.2    79  SER79      -0.2863
     77  CB       -66.7670  -20.7630  -13.4710 C.3    79  SER79       0.2116
     78  OG       -66.3520  -20.5520  -12.1310 O.3    79  SER79      -0.2180
     79  N        -69.6700  -14.3460   -9.8130 N.3   111  PHE111     -0.1241
     80  CA       -68.3950  -14.9700  -10.1280 C.3   111  PHE111      0.1605
     81  C        -67.6660  -15.4220   -8.8640 C.2   111  PHE111      0.2264
     82  O        -66.5420  -15.9180   -8.9270 O.2   111  PHE111     -0.2867
     83  CB       -67.5280  -13.9990  -10.9160 C.3   111  PHE111      0.0534
     84  CG       -66.6960  -14.6550  -11.9680 C.ar  111  PHE111     -0.0203
     85  CD1      -67.2960  -15.2510  -13.0620 C.ar  111  PHE111     -0.0042
     86  CD2      -65.3180  -14.6690  -11.8710 C.ar  111  PHE111     -0.0042
     87  CE1      -66.5390  -15.8520  -14.0360 C.ar  111  PHE111     -0.0003
     88  CE2      -64.5560  -15.2710  -12.8440 C.ar  111  PHE111     -0.0003
     89  CZ       -65.1670  -15.8600  -13.9270 C.ar  111  PHE111     -0.0000
     90  N        -65.0720  -18.0550   -6.6690 N.3   114  THR114     -0.1218
     91  CA       -63.9590  -18.3640   -7.5610 C.3   114  THR114      0.1862
     92  C        -63.1330  -17.1180   -7.8690 C.2   114  THR114      0.2287
     93  O        -61.9060  -17.1790   -7.9490 O.2   114  THR114     -0.2866
     94  CB       -64.4540  -18.9880   -8.8780 C.3   114  THR114      0.1770
     95  OG1      -65.0990  -17.9860   -9.6730 O.3   114  THR114     -0.2211
     96  CG2      -65.4300  -20.1240   -8.6000 C.3   114  THR114      0.0375
     97  N        -59.1790  -16.6710   -6.7120 N.3   118  SER118     -0.1217
     98  CA       -58.1470  -16.6700   -7.7380 C.3   118  SER118      0.1889
     99  C        -57.4460  -15.3200   -7.8190 C.2   118  SER118      0.2288
    100  O        -57.8890  -14.3400   -7.2160 O.2   118  SER118     -0.2866
    101  CB       -58.7410  -17.0410   -9.0920 C.3   118  SER118      0.2089
    102  OG       -59.3690  -18.3080   -9.0350 O.3   118  SER118     -0.2183
    103  N        -56.4470  -13.7670  -10.8260 N.3   120  PHE120     -0.1241
    104  CA       -56.6650  -13.0350  -12.0710 C.3   120  PHE120      0.1605
    105  C        -57.6570  -11.8950  -11.8700 C.2   120  PHE120      0.2264
    106  O        -58.4770  -11.9280  -10.9530 O.2   120  PHE120     -0.2867
    107  CB       -57.1550  -13.9690  -13.1860 C.3   120  PHE120      0.0534
    108  CG       -58.5650  -14.4640  -13.0010 C.ar  120  PHE120     -0.0203
    109  CD1      -58.8290  -15.5710  -12.2100 C.ar  120  PHE120     -0.0042
    110  CD2      -59.6250  -13.8310  -13.6310 C.ar  120  PHE120     -0.0042
    111  CE1      -60.1200  -16.0320  -12.0450 C.ar  120  PHE120     -0.0003
    112  CE2      -60.9200  -14.2870  -13.4660 C.ar  120  PHE120     -0.0003
    113  CZ       -61.1660  -15.3900  -12.6710 C.ar  120  PHE120     -0.0000
    114  N        -60.9570  -11.7180  -17.8470 N.3   123  ILE123     -0.1245
    115  CA       -60.8430  -12.7570  -18.8630 C.3   123  ILE123      0.1561
    116  C        -60.6600  -12.1380  -20.2440 C.2   123  ILE123      0.2260
    117  O        -61.3190  -11.1570  -20.5840 O.2   123  ILE123     -0.2867
    118  CB       -62.0850  -13.6750  -18.8690 C.3   123  ILE123      0.0252
    119  CG1      -62.2230  -14.3990  -17.5330 C.3   123  ILE123      0.0019
    120  CG2      -61.9980  -14.6970  -19.9800 C.3   123  ILE123      0.0019
    121  CD1      -63.4390  -15.2840  -17.4550 C.3   123  ILE123      0.0001
    122  N        -66.1750  -22.2780  -31.7020 N.3   192  TYR192     -0.1241
    123  CA       -65.0560  -22.6160  -30.8350 C.3   192  TYR192      0.1605
    124  C        -63.8790  -23.0110  -31.7070 C.2   192  TYR192      0.2264
    125  O        -64.0090  -23.1240  -32.9260 O.2   192  TYR192     -0.2867
    126  CB       -65.4010  -23.7620  -29.8780 C.3   192  TYR192      0.0534
    127  CG       -66.5270  -23.4750  -28.9120 C.ar  192  TYR192     -0.0201
    128  CD1      -67.8290  -23.8610  -29.2030 C.ar  192  TYR192     -0.0009
    129  CD2      -66.2890  -22.8260  -27.7070 C.ar  192  TYR192     -0.0009
    130  CE1      -68.8660  -23.6030  -28.3240 C.ar  192  TYR192      0.0417
    131  CE2      -67.3210  -22.5660  -26.8190 C.ar  192  TYR192      0.0417
    132  CZ       -68.6080  -22.9560  -27.1350 C.ar  192  TYR192      0.1957
    133  OH       -69.6440  -22.7050  -26.2650 O.3   192  TYR192     -0.2866
    134  N        -62.8810  -29.7990  -28.6610 N.3   212  ILE212     -0.1245
    135  CA       -62.7210  -28.3610  -28.4730 C.3   212  ILE212      0.1561
    136  C        -61.4330  -28.0320  -27.7270 C.2   212  ILE212      0.2260
    137  O        -61.2430  -28.4820  -26.6060 O.2   212  ILE212     -0.2867
    138  CB       -63.8990  -27.7640  -27.6890 C.3   212  ILE212      0.0252
    139  CG1      -65.2160  -28.0200  -28.4210 C.3   212  ILE212      0.0019
    140  CG2      -63.6820  -26.2780  -27.4590 C.3   212  ILE212      0.0019
    141  CD1      -66.4230  -27.4440  -27.7170 C.3   212  ILE212      0.0001
    142  N        -59.6370  -25.8160  -25.4590 N.3   214  ASP214     -0.1239
    143  CA       -60.0840  -24.7970  -24.5060 C.3   214  ASP214      0.1674
    144  C        -59.0420  -24.4810  -23.4330 C.2   214  ASP214      0.2266
    145  O        -58.8170  -25.2790  -22.5270 O.2   214  ASP214     -0.2867
    146  CB       -61.3860  -25.2490  -23.8320 C.3   214  ASP214      0.1410
    147  CG       -61.9960  -24.1700  -22.9620 C.2   214  ASP214      0.3668
    148  OD1      -61.6300  -22.9880  -23.1300 O.co2 214  ASP214     -0.2456
    149  OD2      -62.8370  -24.5040  -22.1030 O.co2 214  ASP214     -0.2456
    150  N        -59.3320  -22.2000  -21.2550 N.3   216  GLY216     -0.1210
    151  CA       -60.0290  -21.6930  -20.0860 C.3   216  GLY216      0.1956
    152  C        -60.5470  -22.7970  -19.1860 C.2   216  GLY216      0.2613
    153  O        -61.2120  -22.5350  -18.1850 O.2   216  GLY216     -0.2717
    154  N        -60.2350  -24.0360  -19.5500 N.am  217  THR217     -0.1938
    155  CA       -60.6160  -25.2080  -18.7700 C.3   217  THR217      0.2028
    156  C        -59.3820  -25.9920  -18.3300 C.2   217  THR217      0.2643
    157  O        -58.5720  -26.4010  -19.1560 O.2   217  THR217     -0.2714
    158  CB       -61.5510  -26.1350  -19.5740 C.3   217  THR217      0.1808
    159  OG1      -62.7560  -25.4300  -19.9060 O.3   217  THR217     -0.2208
    160  CG2      -61.9000  -27.3850  -18.7700 C.3   217  THR217      0.0379
    161  N        -59.2250  -26.1790  -17.0240 N.am  218  SER218     -0.1935
    162  CA       -58.0540  -26.8760  -16.5050 C.3   218  SER218      0.2055
    163  C        -58.3090  -28.3700  -16.3340 C.2   218  SER218      0.2642
    164  O        -57.8410  -28.9800  -15.3720 O.2   218  SER218     -0.2714
    165  CB       -57.6070  -26.2770  -15.1740 C.3   218  SER218      0.2130
    166  OG       -56.4400  -26.9270  -14.7030 O.3   218  SER218     -0.2179
    167  N        -59.0580  -28.9530  -17.2620 N.am  219  ALA219     -0.1977
    168  CA       -59.3350  -30.3810  -17.2190 C.3   219  ALA219      0.1597
    169  C        -59.5670  -30.9330  -18.6160 C.2   219  ALA219      0.2287
    170  O        -59.6640  -30.1820  -19.5850 O.2   219  ALA219     -0.2864
    171  CB       -60.5430  -30.6580  -16.3360 C.3   219  ALA219      0.0319
    172  N        -62.4280  -32.9090  -20.4550 N.3   221  THR221     -0.1218
    173  CA       -63.7680  -33.4610  -20.3460 C.3   221  THR221      0.1862
    174  C        -64.0130  -34.4650  -21.4650 C.2   221  THR221      0.2287
    175  O        -63.4430  -34.3620  -22.5510 O.2   221  THR221     -0.2866
    176  CB       -64.8600  -32.3740  -20.3670 C.3   221  THR221      0.1770
    177  OG1      -65.2630  -32.1010  -21.7130 O.3   221  THR221     -0.2211
    178  CG2      -64.3710  -31.1060  -19.6840 C.3   221  THR221      0.0375
    179  N        -63.2990  -34.9690  -16.5860 N.3   290  ILE290     -0.1245
    180  CA       -64.6780  -34.7160  -16.1730 C.3   290  ILE290      0.1561
    181  C        -65.6760  -35.2820  -17.1750 C.2   290  ILE290      0.2260
    182  O        -65.5440  -35.0780  -18.3750 O.2   290  ILE290     -0.2867
    183  CB       -64.9450  -33.2040  -16.0030 C.3   290  ILE290      0.0252
    184  CG1      -63.9160  -32.5780  -15.0580 C.3   290  ILE290      0.0019
    185  CG2      -66.3580  -32.9570  -15.5020 C.3   290  ILE290      0.0019
    186  CD1      -63.9060  -33.1840  -13.6630 C.3   290  ILE290      0.0001
    187  N        -68.8010  -35.1220  -19.2220 N.3   292  LEU292     -0.1245
    188  CA       -69.6790  -34.0550  -19.6940 C.3   292  LEU292      0.1561
    189  C        -70.3500  -34.4230  -21.0120 C.2   292  LEU292      0.2260
    190  O        -69.6770  -34.7540  -21.9890 O.2   292  LEU292     -0.2867
    191  CB       -68.8940  -32.7530  -19.8530 C.3   292  LEU292      0.0270
    192  CG       -69.5880  -31.4770  -19.3720 C.3   292  LEU292      0.0019
    193  CD1      -69.9700  -31.6060  -17.9080 C.3   292  LEU292      0.0001
    194  CD2      -68.6950  -30.2660  -19.5920 C.3   292  LEU292      0.0001
    195  N        -72.8190  -33.5240  -24.2730 N.3   294  PHE294     -0.1241
    196  CA       -73.3760  -32.4940  -25.1330 C.3   294  PHE294      0.1605
    197  C        -74.2180  -33.1640  -26.2140 C.2   294  PHE294      0.2264
    198  O        -74.1150  -34.3760  -26.4020 O.2   294  PHE294     -0.2867
    199  CB       -72.2540  -31.6670  -25.7440 C.3   294  PHE294      0.0534
    200  CG       -71.4260  -30.9420  -24.7330 C.ar  294  PHE294     -0.0203
    201  CD1      -71.8760  -29.7630  -24.1660 C.ar  294  PHE294     -0.0042
    202  CD2      -70.1930  -31.4410  -24.3480 C.ar  294  PHE294     -0.0042
    203  CE1      -71.1100  -29.0910  -23.2330 C.ar  294  PHE294     -0.0003
    204  CE2      -69.4210  -30.7740  -23.4170 C.ar  294  PHE294     -0.0003
    205  CZ       -69.8800  -29.5960  -22.8580 C.ar  294  PHE294     -0.0000
    206  N        -63.3520  -32.1370  -24.5020 N.3   300  ILE300     -0.1245
    207  CA       -62.7640  -30.8250  -24.2960 C.3   300  ILE300      0.1561
    208  C        -61.3060  -30.9660  -23.9010 C.2   300  ILE300      0.2260
    209  O        -60.9800  -31.5190  -22.8540 O.2   300  ILE300     -0.2867
    210  CB       -63.5190  -30.0150  -23.2330 C.3   300  ILE300      0.0252
    211  CG1      -64.9110  -29.6520  -23.7500 C.3   300  ILE300      0.0019
    212  CG2      -62.7450  -28.7570  -22.8770 C.3   300  ILE300      0.0019
    213  CD1      -65.6830  -28.7470  -22.8410 C.3   300  ILE300      0.0001
@<TRIPOS>BOND
     1   125   124    2
     2   124   123    1
     3   122   123    1
     4   123   126    1
     5   126   127    1
     6   128   127   ar
     7   128   130   ar
     8   127   129   ar
     9   134   135    1
    10   135   136    1
    11   135   138    1
    12   139   141    1
    13   139   138    1
    14   130   132   ar
    15   136   137    2
    16   129   131   ar
    17   138   140    1
    18   132   131   ar
    19   132   133    1
    20   198   197    2
    21    51    50    2
    22   197   196    1
    23    50    49    1
    24   199   196    1
    25   199   200    1
    26   142   143    1
    27    44    45    1
    28   196   195    1
    29    39    38    2
    30    45    46    1
    31    49    48    1
    32    49    52    1
    33    46    47    2
    34    46    48   am
    35   200   202   ar
    36   200   201   ar
    37   143   146    1
    38   143   144    1
    39   206   207    1
    40    38    37    1
    41   202   204   ar
    42   207   208    1
    43   207   210    1
    44   201   203   ar
    45   208   209    2
    46   146   147    1
    47   211   210    1
    48   211   213    1
    49    52    53    1
    50   144   145    2
    51   204   205   ar
    52   210   212    1
    53   203   205   ar
    54   148   147   ar
    55    37    36    1
    56    37    40    1
    57   147   149   ar
    58   175   174    2
    59    43    41   ar
    60    41    40    1
    61    41    42   ar
    62   190   189    2
    63   177   176    1
    64   174   173    1
    65   150   151    1
    66   189   188    1
    67   117   116    2
    68   172   173    1
    69   176   173    1
    70   176   178    1
    71   116   115    1
    72    31    30    2
    73    65    64    1
    74   151   152    1
    75   120   118    1
    76   159   158    1
    77   191   188    1
    78   191   192    1
    79    62    64   ar
    80    62    60   ar
    81   188   187    1
    82    30    29    1
    83   194   192    1
    84   170   169    2
    85   158   160    1
    86   158   155    1
    87   154   152   am
    88   154   155    1
    89    64    63   ar
    90   192   193    1
    91   152   153    2
    92   157   156    2
    93    60    59   ar
    94   118   115    1
    95   118   119    1
    96   115   114    1
    97    72    70    1
    98   155   156    1
    99   169   168    1
   100    63    61   ar
   101   182   181    2
   102   156   161   am
   103    34    32    1
   104    29    28    1
   105    29    32    1
   106    59    61   ar
   107    59    58    1
   108    55    54    1
   109    55    58    1
   110    55    56    1
   111    32    33    1
   112   119   121    1
   113    66    56   am
   114    66    67    1
   115    70    67    1
   116    70    71    1
   117   167   168    1
   118   167   163   am
   119   168   171    1
   120    56    57    2
   121   181   180    1
   122   161   162    1
   123    67    68    1
   124   179   180    1
   125   162   163    1
   126   162   165    1
   127   163   164    2
   128   180   183    1
   129    33    35    1
   130   183   185    1
   131   183   184    1
   132    68    73   am
   133    68    69    2
   134   165   166    1
   135   184   186    1
   136    73    74    1
   137    22    23    2
   138    22    21    1
   139    15    14    2
   140    21    24    1
   141    21    20    1
   142    87    89   ar
   143    87    85   ar
   144    89    88   ar
   145    27    26    1
   146   110   112   ar
   147   110   108   ar
   148    14    20   am
   149    14    13    1
   150    74    77    1
   151    74    75    1
   152    24    25    1
   153    77    78    1
   154   112   113   ar
   155   107   108    1
   156   107   104    1
   157    85    84   ar
   158   108   109   ar
   159    25    26    1
   160    88    86   ar
   161    75    76    2
   162     1     2    1
   163   113   111   ar
   164    13    12    1
   165    13    16    1
   166   109   111   ar
   167   104   105    1
   168   104   103    1
   169    84    86   ar
   170    84    83    1
   171   105   106    2
   172     5     2    1
   173     5     6    1
   174    16    17    1
   175    16    18    1
   176     2     3    1
   177     4     3    2
   178    83    80    1
   179    17    19    1
   180    80    79    1
   181    80    81    1
   182     6     7   ar
   183     6     8   ar
   184    95    94    1
   185     7     9   ar
   186     8    10   ar
   187   101   102    1
   188   101    98    1
   189    82    81    2
   190    94    96    1
   191    94    91    1
   192     9    11   ar
   193    93    92    2
   194    10    11   ar
   195    92    91    1
   196    99    98    1
   197    99   100    2
   198    98    97    1
   199    91    90    1
