@<TRIPOS>MOLECULE
tmp/4ya9V00.pdb
 119 110 0 0 0
SMALL
GASTEIGER

@<TRIPOS>ATOM
      1  N          4.6450 -159.9230   43.5210 N.3     1  THR1       -0.1218
      2  CA         4.2190 -160.8050   44.6630 C.3     1  THR1        0.1862
      3  C          4.2500 -160.3840   46.1510 C.2     1  THR1        0.2287
      4  O          5.2900 -160.0470   46.7020 O.2     1  THR1       -0.2866
      5  CB         4.9440 -162.1240   44.5570 C.3     1  THR1        0.1770
      6  OG1        4.8670 -162.5420   43.2080 O.3     1  THR1       -0.2211
      7  CG2        4.2450 -163.1900   45.4010 C.3     1  THR1        0.0375
      8  N         -1.2520 -161.5170   41.1640 N.3    19  ARG19      -0.1231
      9  CA        -0.7610 -160.6200   40.1100 C.3    19  ARG19       0.1694
     10  C          0.5850 -161.0910   39.5710 C.2    19  ARG19       0.2593
     11  O          1.4740 -161.4540   40.3390 O.2    19  ARG19      -0.2718
     12  CB        -0.6210 -159.1850   40.6310 C.3    19  ARG19       0.0321
     13  CG        -0.0390 -158.2140   39.6060 C.3    19  ARG19       0.0489
     14  CD        -0.0360 -156.7790   40.1040 C.3    19  ARG19       0.2205
     15  NE        -1.3800 -156.2060   40.1560 N.pl3  19  ARG19      -0.0865
     16  CZ        -1.6530 -154.9390   40.4640 C.cat  19  ARG19       0.5346
     17  NH1       -0.6770 -154.0810   40.7530 N.pl3  19  ARG19       0.1354
     18  NH2       -2.9160 -154.5240   40.4850 N.pl3  19  ARG19       0.1354
     19  N          0.7300 -161.0670   38.2500 N.am   20  SER20      -0.1938
     20  CA         2.0010 -161.3680   37.5980 C.3    20  SER20       0.2055
     21  C          2.3660 -160.2070   36.6800 C.2    20  SER20       0.2644
     22  O          1.5600 -159.8070   35.8380 O.2    20  SER20      -0.2714
     23  CB         1.8920 -162.6650   36.7980 C.3    20  SER20       0.2130
     24  OG         3.1660 -163.2480   36.5980 O.3    20  SER20      -0.2179
     25  N          3.5700 -159.6650   36.8410 N.am   21  THR21      -0.1936
     26  CA         3.9620 -158.4440   36.1330 C.3    21  THR21       0.2028
     27  C          5.1030 -158.6490   35.1420 C.2    21  THR21       0.2642
     28  O          5.9230 -159.5500   35.2950 O.2    21  THR21      -0.2714
     29  CB         4.4000 -157.3390   37.1150 C.3    21  THR21       0.1808
     30  OG1        5.4950 -157.8100   37.9130 O.3    21  THR21      -0.2208
     31  CG2        3.2410 -156.9230   38.0190 C.3    21  THR21       0.0379
     32  N          5.1210 -157.8010   34.1180 N.am   22  GLN22      -0.1976
     33  CA         6.2700 -157.6360   33.2290 C.3    22  GLN22       0.1601
     34  C          6.5990 -156.1470   33.2030 C.2    22  GLN22       0.2287
     35  O          6.0150 -155.3850   32.4310 O.2    22  GLN22      -0.2864
     36  CB         5.9480 -158.1420   31.8200 C.3    22  GLN22       0.0394
     37  CG         7.0430 -157.8940   30.7880 C.3    22  GLN22       0.0908
     38  CD         8.2490 -158.7900   30.9780 C.2    22  GLN22       0.2608
     39  OE1        9.3260 -158.3310   31.3540 O.2    22  GLN22      -0.2717
     40  NE2        8.0740 -160.0800   30.7140 N.am   22  GLN22      -0.0878
     41  N          0.7800 -158.7780   33.4350 N.3    27  ALA27      -0.1231
     42  CA         0.7110 -159.8430   32.4330 C.3    27  ALA27       0.1694
     43  C         -0.4170 -160.8320   32.7310 C.2    27  ALA27       0.2592
     44  O         -1.1500 -161.2310   31.8260 O.2    27  ALA27      -0.2718
     45  CB         2.0420 -160.5740   32.3530 C.3    27  ALA27       0.0304
     46  N         -0.5380 -161.2290   33.9970 N.am   28  ASP28      -0.1974
     47  CA        -1.5780 -162.1570   34.4360 C.3    28  ASP28       0.1709
     48  C         -2.2910 -161.5780   35.6510 C.2    28  ASP28       0.2293
     49  O         -1.6620 -161.2750   36.6660 O.2    28  ASP28      -0.2864
     50  CB        -0.9710 -163.5210   34.7840 C.3    28  ASP28       0.1436
     51  CG        -2.0100 -164.6330   34.8550 C.2    28  ASP28       0.3671
     52  OD1       -1.6180 -165.8110   34.7240 O.co2  28  ASP28      -0.2456
     53  OD2       -3.2100 -164.3420   35.0460 O.co2  28  ASP28      -0.2456
     54  N         -3.0000 -165.3700   38.3420 N.3    31  CYS31      -0.1235
     55  CA        -2.0550 -166.4860   38.2940 C.3    31  CYS31       0.1677
     56  C         -2.0090 -167.2050   39.6410 C.2    31  CYS31       0.2270
     57  O         -2.3310 -166.6210   40.6730 O.2    31  CYS31      -0.2867
     58  CB        -0.6560 -166.0000   37.8870 C.3    31  CYS31       0.0956
     59  SG         0.4360 -165.4900   39.2400 S.3    31  CYS31      -0.0801
     60  N          0.0300 -168.7950   42.5590 N.3    33  LYS33      -0.1245
     61  CA         1.3390 -168.7710   43.2100 C.3    33  LYS33       0.1561
     62  C          1.4570 -169.8040   44.3330 C.2    33  LYS33       0.2260
     63  O          2.5100 -169.9220   44.9640 O.2    33  LYS33      -0.2867
     64  CB         1.6220 -167.3680   43.7500 C.3    33  LYS33       0.0271
     65  CG         1.3650 -166.2720   42.7270 C.3    33  LYS33       0.0035
     66  CD         1.8250 -164.9160   43.2210 C.3    33  LYS33       0.0206
     67  CE         1.3230 -163.7990   42.3240 C.3    33  LYS33       0.1093
     68  NZ         1.9180 -162.4960   42.7120 N.3    33  LYS33      -0.1314
     69  N          5.1450 -169.1220   46.2190 N.3    45  GLY45      -0.1210
     70  CA         6.3380 -168.7070   45.4800 C.3    45  GLY45       0.1956
     71  C          6.3120 -167.2770   44.9760 C.2    45  GLY45       0.2612
     72  O          5.3390 -166.8420   44.3560 O.2    45  GLY45      -0.2717
     73  N          7.3900 -166.5500   45.2600 N.am   46  ALA46      -0.1965
     74  CA         7.6210 -165.2150   44.7150 C.3    46  ALA46       0.1728
     75  C          8.9370 -165.2140   43.9490 C.2    46  ALA46       0.2617
     76  O          9.7920 -166.0710   44.1700 O.2    46  ALA46      -0.2715
     77  CB         7.6730 -164.1920   45.8350 C.3    46  ALA46       0.0334
     78  N          9.1000 -164.2430   43.0560 N.am   47  GLY47      -0.1940
     79  CA        10.3270 -164.1100   42.2760 C.3    47  GLY47       0.2014
     80  C         10.0750 -164.2880   40.7940 C.2    47  GLY47       0.2640
     81  O          9.0360 -163.8780   40.2830 O.2    47  GLY47      -0.2714
     82  N         11.0310 -164.8980   40.1030 N.am   48  THR48      -0.1936
     83  CA        10.8670 -165.2240   38.6920 C.3    48  THR48       0.2028
     84  C          9.8210 -166.3340   38.5520 C.2    48  THR48       0.2642
     85  O          9.9790 -167.4300   39.0980 O.2    48  THR48      -0.2714
     86  CB        12.1970 -165.6620   38.0610 C.3    48  THR48       0.1808
     87  OG1       13.1970 -164.6720   38.3360 O.3    48  THR48      -0.2208
     88  CG2       12.0590 -165.8380   36.5530 C.3    48  THR48       0.0379
     89  N          8.7580 -166.0300   37.8130 N.am   49  ALA49      -0.1963
     90  CA         7.5660 -166.8770   37.7420 C.3    49  ALA49       0.1728
     91  C          7.8480 -168.2920   37.2500 C.2    49  ALA49       0.2616
     92  O          7.3930 -169.2630   37.8520 O.2    49  ALA49      -0.2715
     93  CB         6.5250 -166.2210   36.8500 C.3    49  ALA49       0.0334
     94  N          8.5890 -168.4030   36.1530 N.am   50  ALA50      -0.1977
     95  CA         8.9400 -169.7100   35.5970 C.3    50  ALA50       0.1597
     96  C          9.8190 -170.5180   36.5530 C.2    50  ALA50       0.2287
     97  O          9.7090 -171.7450   36.6090 O.2    50  ALA50      -0.2864
     98  CB         9.6300 -169.5510   34.2500 C.3    50  ALA50       0.0319
     99  N          9.9140 -170.3800   40.0060 N.3    52  THR52      -0.1218
    100  CA         9.1490 -170.8870   41.1430 C.3    52  THR52       0.1862
    101  C          8.2800 -172.0690   40.7330 C.2    52  THR52       0.2287
    102  O          8.0680 -172.9810   41.5250 O.2    52  THR52      -0.2866
    103  CB         8.2480 -169.8090   41.7770 C.3    52  THR52       0.1770
    104  OG1        7.3180 -169.3180   40.8020 O.3    52  THR52      -0.2211
    105  CG2        9.0860 -168.6540   42.3260 C.3    52  THR52       0.0375
    106  N          8.4320 -161.6250   49.1010 N.3   128  GLY128     -0.1210
    107  CA         8.0410 -160.9070   47.8880 C.3   128  GLY128      0.1956
    108  C          8.0710 -159.3970   48.0420 C.2   128  GLY128      0.2612
    109  O          8.4110 -158.8800   49.1010 O.2   128  GLY128     -0.2717
    110  N          7.7080 -158.6900   46.9750 N.am  129  SER129     -0.1952
    111  CA         7.7620 -157.2260   46.9560 C.3   129  SER129      0.1924
    112  C          6.8010 -156.5930   47.9600 C.2   129  SER129      0.2314
    113  O          7.0660 -155.5030   48.4670 O.2   129  SER129     -0.2863
    114  CB         7.4790 -156.6860   45.5490 C.3   129  SER129      0.2116
    115  OG         6.2290 -157.1360   45.0620 O.3   129  SER129     -0.2180
    116  N          3.4540 -154.0990   43.0600 N.3   168  GLY168     -0.1225
    117  CA         3.8360 -155.4300   42.5980 C.3   168  GLY168      0.1811
    118  C          2.8030 -156.5080   42.8750 C.2   168  GLY168      0.2280
    119  O          2.8970 -157.5960   42.3220 O.2   168  GLY168     -0.2866
@<TRIPOS>BOND
     1    40    38   am
     2    37    38    1
     3    37    36    1
     4    38    39    2
     5    36    33    1
     6    44    43    2
     7    45    42    1
     8    35    34    2
     9    42    43    1
    10    42    41    1
    11    43    46   am
    12    34    33    1
    13    33    32    1
    14    46    47    1
    15    32    27   am
    16    98    95    1
    17    47    50    1
    18    47    48    1
    19    52    51   ar
    20    50    51    1
    21    51    53   ar
    22    27    28    2
    23    27    26    1
    24    95    94    1
    25    95    96    1
    26    48    49    2
    27    22    21    2
    28    26    25    1
    29    26    29    1
    30    94    91   am
    31    88    86    1
    32    96    97    2
    33    24    23    1
    34    21    25   am
    35    21    20    1
    36    23    20    1
    37    93    90    1
    38    29    30    1
    39    29    31    1
    40    91    90    1
    41    91    92    2
    42    20    19    1
    43    90    89    1
    44    89    84   am
    45    58    55    1
    46    58    59    1
    47    86    87    1
    48    86    83    1
    49    19    10   am
    50    55    54    1
    51    55    56    1
    52    84    83    1
    53    84    85    2
    54    83    82    1
    55    10     9    1
    56    10    11    2
    57    13    14    1
    58    13    12    1
    59    56    57    2
    60    99   100    1
    61    82    80   am
    62    14    15    1
    63     9    12    1
    64     9     8    1
    65    15    16    2
    66    81    80    2
    67    16    18    1
    68    16    17    1
    69   101   100    1
    70   101   102    2
    71    80    79    1
    72   104   103    1
    73   100   103    1
    74   103   105    1
    75    79    78    1
    76   119   118    2
    77    67    68    1
    78    67    66    1
    79    60    61    1
    80   117   118    1
    81   117   116    1
    82    65    66    1
    83    65    64    1
    84    78    75   am
    85     6     5    1
    86    61    64    1
    87    61    62    1
    88     1     2    1
    89    75    76    2
    90    75    74    1
    91    62    63    2
    92    72    71    2
    93     5     2    1
    94     5     7    1
    95     2     3    1
    96    74    73    1
    97    74    77    1
    98    71    73   am
    99    71    70    1
   100   115   114    1
   101    70    69    1
   102   114   111    1
   103     3     4    2
   104   111   110    1
   105   111   112    1
   106   110   108   am
   107   107   108    1
   108   107   106    1
   109   112   113    2
   110   108   109    2
