@<TRIPOS>MOLECULE
tmp/4ya9Y00.pdb
 121 113 0 0 0
SMALL
GASTEIGER

@<TRIPOS>ATOM
      1  N         56.9620 -152.9960    8.7170 N.3     1  THR1       -0.1218
      2  CA        57.0070 -153.5950    7.3350 C.3     1  THR1        0.1862
      3  C         56.3750 -152.9800    6.0740 C.2     1  THR1        0.2287
      4  O         55.3050 -152.4470    6.1230 O.2     1  THR1       -0.2866
      5  CB        56.4060 -154.9630    7.4100 C.3     1  THR1        0.1770
      6  OG1       57.1380 -155.5920    8.4000 O.3     1  THR1       -0.2211
      7  CG2       56.4840 -155.8230    6.1580 C.3     1  THR1        0.0375
      8  N         63.1080 -154.1050    8.2070 N.3    19  ARG19      -0.1231
      9  CA        63.0330 -153.4440    9.5110 C.3    19  ARG19       0.1694
     10  C         62.0770 -154.1580   10.4620 C.2    19  ARG19       0.2592
     11  O         61.0150 -154.6140   10.0500 O.2    19  ARG19      -0.2718
     12  CB        62.6020 -151.9840    9.3590 C.3    19  ARG19       0.0321
     13  CG        62.5510 -151.2330   10.6850 C.3    19  ARG19       0.0489
     14  CD        62.3820 -149.7330   10.5060 C.3    19  ARG19       0.2205
     15  NE        63.5610 -149.1100    9.9040 N.pl3  19  ARG19      -0.0865
     16  CZ        63.7840 -147.7990    9.8490 C.cat  19  ARG19       0.5346
     17  NH1       62.9160 -146.9330   10.3640 N.pl3  19  ARG19       0.1354
     18  NH2       64.8920 -147.3470    9.2750 N.pl3  19  ARG19       0.1354
     19  N         62.4750 -154.2560   11.7290 N.am   20  ALA20      -0.1966
     20  CA        61.5900 -154.7060   12.8000 C.3    20  ALA20       0.1728
     21  C         61.4950 -153.6010   13.8400 C.2    20  ALA20       0.2617
     22  O         62.4950 -152.9600   14.1610 O.2    20  ALA20      -0.2715
     23  CB        62.1120 -155.9820   13.4350 C.3    20  ALA20       0.0334
     24  N         60.2930 -153.3840   14.3650 N.am   21  THR21      -0.1937
     25  CA        60.0560 -152.3120   15.3280 C.3    21  THR21       0.2028
     26  C         59.3180 -152.8090   16.5600 C.2    21  THR21       0.2642
     27  O         58.5270 -153.7460   16.4820 O.2    21  THR21      -0.2714
     28  CB        59.2310 -151.1720   14.7000 C.3    21  THR21       0.1808
     29  OG1       57.9790 -151.6870   14.2270 O.3    21  THR21      -0.2208
     30  CG2       59.9960 -150.5310   13.5450 C.3    21  THR21       0.0379
     31  N         59.6040 -152.1780   17.6960 N.am   22  ALA22      -0.1977
     32  CA        58.8160 -152.3360   18.9150 C.3    22  ALA22       0.1597
     33  C         58.3470 -150.9460   19.3240 C.2    22  ALA22       0.2287
     34  O         59.0470 -150.2310   20.0400 O.2    22  ALA22      -0.2864
     35  CB        59.6480 -152.9690   20.0180 C.3    22  ALA22       0.0319
     36  N         64.0580 -152.0950   16.3550 N.3    27  ALA27      -0.1231
     37  CA        64.6420 -153.2890   16.9610 C.3    27  ALA27       0.1694
     38  C         65.7070 -153.9080   16.0750 C.2    27  ALA27       0.2592
     39  O         66.7690 -154.2980   16.5590 O.2    27  ALA27      -0.2718
     40  CB        63.5600 -154.3110   17.2570 C.3    27  ALA27       0.0304
     41  N         65.4190 -154.0070   14.7820 N.am   28  SER28      -0.1952
     42  CA        66.3710 -154.5680   13.8280 C.3    28  SER28       0.1924
     43  C         66.2730 -153.8820   12.4710 C.2    28  SER28       0.2314
     44  O         65.2380 -153.3130   12.1250 O.2    28  SER28      -0.2863
     45  CB        66.1330 -156.0700   13.6660 C.3    28  SER28       0.2116
     46  OG        67.0690 -156.6390   12.7640 O.3    28  SER28      -0.2180
     47  N         66.1950 -157.9650    9.2640 N.3    31  VAL31      -0.1245
     48  CA        65.2600 -159.0850    9.3670 C.3    31  VAL31       0.1561
     49  C         64.9920 -159.6930    7.9940 C.2    31  VAL31       0.2260
     50  O         64.7950 -158.9710    7.0180 O.2    31  VAL31      -0.2867
     51  CB        63.9270 -158.6420   10.0130 C.3    31  VAL31       0.0252
     52  CG1       62.8440 -159.7010    9.8450 C.3    31  VAL31       0.0019
     53  CG2       64.1400 -158.3490   11.4860 C.3    31  VAL31       0.0019
     54  N         62.4470 -161.1870    5.7740 N.3    33  LYS33      -0.1245
     55  CA        60.9920 -161.2120    5.6460 C.3    33  LYS33       0.1561
     56  C         60.5010 -162.0690    4.4770 C.2    33  LYS33       0.2260
     57  O         59.2940 -162.1950    4.2620 O.2    33  LYS33      -0.2867
     58  CB        60.4590 -159.7880    5.5190 C.3    33  LYS33       0.0271
     59  CG        60.6470 -158.9810    6.7870 C.3    33  LYS33       0.0035
     60  CD        60.1040 -157.5750    6.6380 C.3    33  LYS33       0.0206
     61  CE        60.6110 -156.6770    7.7520 C.3    33  LYS33       0.1093
     62  NZ        59.8880 -155.3810    7.7690 N.3    33  LYS33      -0.1314
     63  N         56.5580 -161.9520    4.7930 N.3    45  MET45      -0.1230
     64  CA        56.1580 -161.7470    6.1840 C.3    45  MET45       0.1702
     65  C         55.8400 -160.2890    6.4910 C.2    45  MET45       0.2592
     66  O         56.6380 -159.3950    6.2120 O.2    45  MET45      -0.2718
     67  CB        57.2720 -162.2090    7.1190 C.3    45  MET45       0.0401
     68  CG        57.6620 -163.6650    6.9510 C.3    45  MET45       0.0596
     69  SD        58.9410 -164.1410    8.1250 S.3    45  MET45      -0.1393
     70  CE        59.2990 -165.7950    7.5470 C.3    45  MET45       0.0692
     71  N         54.6680 -160.0630    7.0750 N.am   46  ALA46      -0.1966
     72  CA        54.2910 -158.7490    7.5910 C.3    46  ALA46       0.1728
     73  C         53.3350 -158.9200    8.7650 C.2    46  ALA46       0.2617
     74  O         52.4940 -159.8170    8.7600 O.2    46  ALA46      -0.2715
     75  CB        53.6530 -157.9020    6.5030 C.3    46  ALA46       0.0334
     76  N         53.4680 -158.0560    9.7650 N.am   47  GLY47      -0.1940
     77  CA        52.6830 -158.1600   10.9930 C.3    47  GLY47       0.2014
     78  C         53.5510 -158.6180   12.1470 C.2    47  GLY47       0.2639
     79  O         54.6920 -158.1790   12.2820 O.2    47  GLY47      -0.2714
     80  N         53.0120 -159.5000   12.9830 N.am   48  GLY48      -0.1939
     81  CA        53.7690 -160.0720   14.0920 C.3    48  GLY48       0.2014
     82  C         54.9320 -160.9060   13.5840 C.2    48  GLY48       0.2639
     83  O         54.7390 -161.8580   12.8220 O.2    48  GLY48      -0.2714
     84  N         56.1410 -160.5370   14.0040 N.am   49  ALA49      -0.1963
     85  CA        57.3630 -161.1920   13.5440 C.3    49  ALA49       0.1728
     86  C         57.3680 -162.6750   13.8880 C.2    49  ALA49       0.2616
     87  O         57.6170 -163.5110   13.0240 O.2    49  ALA49      -0.2715
     88  CB        58.5830 -160.5110   14.1420 C.3    49  ALA49       0.0334
     89  N         57.0800 -162.9920   15.1480 N.am   50  ALA50      -0.1977
     90  CA        57.0420 -164.3810   15.6080 C.3    50  ALA50       0.1597
     91  C         55.9670 -165.1760   14.8760 C.2    50  ALA50       0.2287
     92  O         56.2420 -166.2480   14.3390 O.2    50  ALA50      -0.2864
     93  CB        56.8080 -164.4390   17.1100 C.3    50  ALA50       0.0319
     94  N         54.4470 -164.7040   11.9760 N.3    52  CYS52      -0.1235
     95  CA        54.8420 -164.9410   10.5870 C.3    52  CYS52       0.1677
     96  C         55.9550 -165.9740   10.4860 C.2    52  CYS52       0.2270
     97  O         55.8460 -166.9420    9.7400 O.2    52  CYS52      -0.2867
     98  CB        55.3080 -163.6420    9.9300 C.3    52  CYS52       0.0956
     99  SG        53.9630 -162.5430    9.4620 S.3    52  CYS52      -0.0801
    100  N         51.6300 -154.4880    4.4670 N.3   130  GLY130     -0.1210
    101  CA        52.3890 -153.9060    5.5690 C.3   130  GLY130      0.1956
    102  C         52.0410 -152.4500    5.8040 C.2   130  GLY130      0.2612
    103  O         51.2400 -151.8680    5.0720 O.2   130  GLY130     -0.2717
    104  N         52.6690 -151.8610    6.8210 N.am  131  SER131     -0.1952
    105  CA        52.4250 -150.4690    7.2050 C.3   131  SER131      0.1924
    106  C         52.8190 -149.4610    6.1240 C.2   131  SER131      0.2314
    107  O         52.3340 -148.3300    6.1290 O.2   131  SER131     -0.2863
    108  CB        53.1790 -150.1410    8.4930 C.3   131  SER131      0.2116
    109  OG        54.5780 -150.2840    8.3100 O.3   131  SER131     -0.2180
    110  N         58.0840 -146.8760    9.8850 N.3   170  TYR170     -0.1241
    111  CA        58.2130 -148.2670   10.3210 C.3   170  TYR170      0.1605
    112  C         58.6460 -149.2100    9.1960 C.2   170  TYR170      0.2264
    113  O         58.4910 -150.4230    9.3070 O.2   170  TYR170     -0.2867
    114  CB        56.8990 -148.7390   10.9460 C.3   170  TYR170      0.0534
    115  CG        56.4340 -147.8290   12.0590 C.ar  170  TYR170     -0.0201
    116  CD1       57.1670 -147.7120   13.2350 C.ar  170  TYR170     -0.0009
    117  CD2       55.2760 -147.0730   11.9330 C.ar  170  TYR170     -0.0009
    118  CE1       56.7560 -146.8740   14.2550 C.ar  170  TYR170      0.0417
    119  CE2       54.8580 -146.2330   12.9510 C.ar  170  TYR170      0.0417
    120  CZ        55.6020 -146.1380   14.1070 C.ar  170  TYR170      0.1957
    121  OH        55.1930 -145.3060   15.1200 O.3   170  TYR170     -0.2866
@<TRIPOS>BOND
     1    57    56    2
     2   100   101    1
     3    56    55    1
     4    63    64    1
     5   103   102    2
     6    58    55    1
     7    58    59    1
     8   101   102    1
     9    55    54    1
    10   102   104   am
    11     3     4    2
    12     3     2    1
    13   106   107    2
    14   106   105    1
    15     7     5    1
    16    64    65    1
    17    64    67    1
    18    66    65    2
    19    65    71   am
    20    75    72    1
    21    60    59    1
    22    60    61    1
    23   104   105    1
    24    68    67    1
    25    68    69    1
    26    50    49    2
    27    71    72    1
    28   105   108    1
    29     2     5    1
    30     2     1    1
    31     5     6    1
    32    70    69    1
    33    72    73    1
    34    61    62    1
    35    49    48    1
    36     8     9    1
    37   109   108    1
    38    74    73    2
    39    73    76   am
    40   112   113    2
    41   112   111    1
    42    47    48    1
    43    18    16    1
    44    12     9    1
    45    12    13    1
    46    48    51    1
    47    99    98    1
    48     9    10    1
    49    97    96    2
    50    76    77    1
    51    52    51    1
    52    16    15    2
    53    16    17    1
    54   110   111    1
    55    15    14    1
    56    98    95    1
    57    51    53    1
    58    11    10    2
    59   111   114    1
    60    10    19   am
    61    96    95    1
    62    14    13    1
    63    95    94    1
    64   114   115    1
    65    77    78    1
    66    19    20    1
    67   117   115   ar
    68   117   119   ar
    69   115   116   ar
    70    44    43    2
    71    78    79    2
    72    78    80   am
    73    43    42    1
    74    46    45    1
    75    20    23    1
    76    20    21    1
    77    83    82    2
    78   119   120   ar
    79    80    81    1
    80    87    86    2
    81   116   118   ar
    82    85    86    1
    83    85    84    1
    84    85    88    1
    85    30    28    1
    86    82    84   am
    87    82    81    1
    88    45    42    1
    89    42    41    1
    90    21    22    2
    91    21    24   am
    92    86    89   am
    93   120   118   ar
    94   120   121    1
    95    29    28    1
    96    92    91    2
    97    24    25    1
    98    28    25    1
    99    41    38   am
   100    91    90    1
   101    89    90    1
   102    25    26    1
   103    90    93    1
   104    38    39    2
   105    38    37    1
   106    36    37    1
   107    27    26    2
   108    26    31   am
   109    37    40    1
   110    31    32    1
   111    32    33    1
   112    32    35    1
   113    33    34    2
