@<TRIPOS>MOLECULE
tmp/4yacA00.pdb
 147 142 0 0 0
SMALL
GASTEIGER

@<TRIPOS>ATOM
      1  N         -7.6640  -36.7070   14.6780 N.3    13  GLY13      -0.1225
      2  CA        -6.4140  -37.1280   14.0830 C.3    13  GLY13       0.1811
      3  C         -5.2970  -37.2240   15.1030 C.2    13  GLY13       0.2280
      4  O         -4.1280  -37.3320   14.7360 O.2    13  GLY13      -0.2866
      5  N         -1.4920  -39.1710   15.5010 N.3    16  SER16      -0.1202
      6  CA        -0.2760  -38.9680   14.7150 C.3    16  SER16       0.2020
      7  C         -0.0720  -37.5210   14.2850 C.2    16  SER16       0.2619
      8  O         -0.9930  -36.7110   14.3390 O.2    16  SER16      -0.2717
      9  CB        -0.3140  -39.8640   13.4700 C.3    16  SER16       0.2103
     10  OG         0.9120  -39.8200   12.7650 O.3    16  SER16      -0.2182
     11  N          1.1510  -37.2100   13.8690 N.am   17  GLY17      -0.1942
     12  CA         1.4490  -35.9780   13.1550 C.3    17  GLY17       0.2014
     13  C          1.0990  -34.6920   13.8780 C.2    17  GLY17       0.2639
     14  O          1.2920  -34.5710   15.0890 O.2    17  GLY17      -0.2714
     15  N          0.5870  -33.7260   13.1180 N.am   18  VAL18      -0.1963
     16  CA         0.2620  -32.4000   13.6470 C.3    18  VAL18       0.1727
     17  C         -0.6990  -32.4750   14.8240 C.2    18  VAL18       0.2616
     18  O         -0.5020  -31.8010   15.8350 O.2    18  VAL18      -0.2715
     19  CB        -0.3530  -31.5000   12.5460 C.3    18  VAL18       0.0290
     20  CG1       -0.9350  -30.2170   13.1360 C.3    18  VAL18       0.0023
     21  CG2        0.6950  -31.1580   11.5090 C.3    18  VAL18       0.0023
     22  N         -1.7400  -33.2900   14.6930 N.am   19  ALA19      -0.1977
     23  CA        -2.7600  -33.3680   15.7360 C.3    19  ALA19       0.1597
     24  C         -2.1970  -33.9520   17.0310 C.2    19  ALA19       0.2287
     25  O         -2.5430  -33.4990   18.1190 O.2    19  ALA19      -0.2864
     26  CB        -3.9340  -34.1870   15.2630 C.3    19  ALA19       0.0319
     27  N         -8.9780  -38.4760   19.1420 N.3    37  ALA37      -0.1231
     28  CA        -9.9020  -39.2220   18.3040 C.3    37  ALA37       0.1694
     29  C         -9.2420  -39.5180   16.9710 C.2    37  ALA37       0.2592
     30  O         -8.8120  -38.6050   16.2760 O.2    37  ALA37      -0.2718
     31  CB       -11.1850  -38.4440   18.0990 C.3    37  ALA37       0.0304
     32  N         -9.1620  -40.7950   16.6230 N.am   38  ASP38      -0.1960
     33  CA        -8.4320  -41.2230   15.4370 C.3    38  ASP38       0.1840
     34  C         -9.0610  -42.4760   14.8490 C.2    38  ASP38       0.2622
     35  O         -9.5900  -43.3050   15.5770 O.2    38  ASP38      -0.2715
     36  CB        -6.9690  -41.4830   15.7910 C.3    38  ASP38       0.1450
     37  CG        -6.0500  -41.3520   14.6020 C.2    38  ASP38       0.3671
     38  OD1       -5.9910  -42.2940   13.7810 O.co2  38  ASP38      -0.2456
     39  OD2       -5.3810  -40.3060   14.4970 O.co2  38  ASP38      -0.2456
     40  N         -9.0060  -42.6190   13.5310 N.am   39  ILE39      -0.1963
     41  CA        -9.5870  -43.7880   12.8870 C.3    39  ILE39       0.1727
     42  C         -8.7040  -45.0220   13.0710 C.2    39  ILE39       0.2616
     43  O         -9.2070  -46.1420   13.1110 O.2    39  ILE39      -0.2715
     44  CB        -9.8260  -43.5370   11.3860 C.3    39  ILE39       0.0290
     45  CG1      -10.7980  -44.5770   10.8270 C.3    39  ILE39       0.0022
     46  CG2       -8.5060  -43.5290   10.6140 C.3    39  ILE39       0.0023
     47  CD1      -11.2780  -44.2670    9.4000 C.3    39  ILE39       0.0001
     48  N         -7.3960  -44.8190   13.2060 N.am   40  ARG40      -0.1977
     49  CA        -6.4660  -45.9400   13.3070 C.3    40  ARG40       0.1597
     50  C         -6.1560  -46.3380   14.7440 C.2    40  ARG40       0.2287
     51  O         -5.6160  -45.5500   15.5190 O.2    40  ARG40      -0.2864
     52  CB        -5.1650  -45.6120   12.5830 C.3    40  ARG40       0.0334
     53  CG        -5.2760  -45.7970   11.0770 C.3    40  ARG40       0.0492
     54  CD        -3.9620  -45.5670   10.3740 C.3    40  ARG40       0.2205
     55  NE        -2.9390  -46.5300   10.7670 N.pl3  40  ARG40      -0.0865
     56  CZ        -1.7440  -46.6230   10.1900 C.cat  40  ARG40       0.5346
     57  NH1       -1.4190  -45.8160    9.1880 N.pl3  40  ARG40       0.1354
     58  NH2       -0.8720  -47.5260   10.6140 N.pl3  40  ARG40       0.1354
     59  N         -2.3870  -46.2010   15.7360 N.3    43  HIS43      -0.1241
     60  CA        -1.8890  -44.8580   16.0370 C.3    43  HIS43       0.1621
     61  C         -2.2740  -44.4390   17.4580 C.2    43  HIS43       0.2264
     62  O         -1.4630  -43.8680   18.1820 O.2    43  HIS43      -0.2867
     63  CB        -2.4170  -43.8440   15.0220 C.3    43  HIS43       0.0745
     64  CG        -1.7620  -43.9420   13.6770 C.ar   43  HIS43       0.0817
     65  ND1       -2.1260  -43.1440   12.6160 N.ar   43  HIS43      -0.2268
     66  CD2       -0.7640  -44.7390   13.2280 C.ar   43  HIS43       0.1154
     67  CE1       -1.3820  -43.4500   11.5650 C.ar   43  HIS43       0.1986
     68  NE2       -0.5480  -44.4110   11.9090 N.ar   43  HIS43      -0.2212
     69  N        -12.3440  -43.4180   16.1300 N.3    63  LEU63      -0.1231
     70  CA       -13.4410  -42.7330   15.4590 C.3    63  LEU63       0.1693
     71  C        -13.1010  -42.4050   14.0140 C.2    63  LEU63       0.2592
     72  O        -12.0520  -41.8290   13.7360 O.2    63  LEU63      -0.2718
     73  CB       -13.7870  -41.4380   16.2010 C.3    63  LEU63       0.0284
     74  CG       -14.7380  -40.4770   15.4820 C.3    63  LEU63       0.0019
     75  CD1      -16.1160  -41.0970   15.3190 C.3    63  LEU63       0.0001
     76  CD2      -14.8220  -39.1550   16.2220 C.3    63  LEU63       0.0001
     77  N        -14.0030  -42.7860   13.1100 N.am   64  ASP64      -0.1960
     78  CA       -14.0180  -42.2960   11.7360 C.3    64  ASP64       0.1840
     79  C        -14.8570  -41.0210   11.7110 C.2    64  ASP64       0.2622
     80  O        -16.0670  -41.0660   11.9110 O.2    64  ASP64      -0.2715
     81  CB       -14.5950  -43.3560   10.7880 C.3    64  ASP64       0.1450
     82  CG       -14.5740  -42.9260    9.3260 C.2    64  ASP64       0.3671
     83  OD1      -14.2770  -41.7480    9.0360 O.co2  64  ASP64      -0.2456
     84  OD2      -14.8760  -43.7750    8.4600 O.co2  64  ASP64      -0.2456
     85  N        -14.2080  -39.8860   11.4760 N.am   65  LEU65      -0.1963
     86  CA       -14.8660  -38.5850   11.5630 C.3    65  LEU65       0.1728
     87  C        -15.9640  -38.4090   10.5240 C.2    65  LEU65       0.2616
     88  O        -16.8110  -37.5200   10.6610 O.2    65  LEU65      -0.2715
     89  CB       -13.8380  -37.4650   11.4060 C.3    65  LEU65       0.0311
     90  CG       -12.6710  -37.5170   12.3880 C.3    65  LEU65       0.0022
     91  CD1      -11.5450  -36.6330   11.9100 C.3    65  LEU65       0.0001
     92  CD2      -13.1170  -37.1300   13.7900 C.3    65  LEU65       0.0001
     93  N        -15.9420  -39.2380    9.4820 N.am   66  THR66      -0.1951
     94  CA       -16.9550  -39.1610    8.4320 C.3    66  THR66       0.1897
     95  C        -18.2450  -39.8680    8.8470 C.2    66  THR66       0.2313
     96  O        -19.2550  -39.7800    8.1510 O.2    66  THR66      -0.2863
     97  CB       -16.4390  -39.7690    7.1000 C.3    66  THR66       0.1794
     98  OG1      -16.3190  -41.1940    7.2200 O.3    66  THR66      -0.2208
     99  CG2      -15.0900  -39.1660    6.7250 C.3    66  THR66       0.0378
    100  N         -7.5650  -33.4700   11.9310 N.3    92  ALA92      -0.1231
    101  CA        -7.4110  -34.6100   11.0290 C.3    92  ALA92       0.1694
    102  C         -7.5320  -34.1520    9.5860 C.2    92  ALA92       0.2593
    103  O         -8.3410  -33.2880    9.2610 O.2    92  ALA92      -0.2718
    104  CB        -8.4450  -35.6800   11.3290 C.3    92  ALA92       0.0304
    105  N         -6.7030  -34.7190    8.7240 N.am   93  GLY93      -0.1942
    106  CA        -6.7750  -34.4190    7.3090 C.3    93  GLY93       0.2014
    107  C         -5.9840  -35.4290    6.5160 C.2    93  GLY93       0.2638
    108  O         -5.0690  -36.0600    7.0450 O.2    93  GLY93      -0.2714
    109  N         -6.3420  -35.5810    5.2450 N.am   94  VAL94      -0.1977
    110  CA        -5.6250  -36.4660    4.3360 C.3    94  VAL94       0.1596
    111  C         -5.2760  -35.7260    3.0560 C.2    94  VAL94       0.2287
    112  O         -5.8100  -34.6490    2.7880 O.2    94  VAL94      -0.2864
    113  CB        -6.4530  -37.7150    3.9840 C.3    94  VAL94       0.0276
    114  CG1       -6.7870  -38.4990    5.2420 C.3    94  VAL94       0.0022
    115  CG2       -7.7310  -37.3250    3.2430 C.3    94  VAL94       0.0022
    116  N        -13.0760  -39.2230   -1.0890 N.3   110  TRP110     -0.1241
    117  CA       -12.2750  -39.5320    0.0950 C.3   110  TRP110      0.1605
    118  C        -11.7520  -38.2580    0.7580 C.2   110  TRP110      0.2264
    119  O        -11.9550  -38.0470    1.9510 O.2   110  TRP110     -0.2867
    120  CB       -11.1160  -40.4590   -0.2760 C.3   110  TRP110      0.0550
    121  CG       -10.1040  -40.6380    0.8070 C.ar  110  TRP110      0.0003
    122  CD1      -10.3450  -40.9120    2.1270 C.ar  110  TRP110      0.0946
    123  CD2       -8.6850  -40.5720    0.6650 C.ar  110  TRP110      0.0152
    124  NE1       -9.1600  -41.0130    2.8120 N.ar  110  TRP110     -0.2442
    125  CE2       -8.1240  -40.8100    1.9340 C.ar  110  TRP110      0.0810
    126  CE3       -7.8270  -40.3330   -0.4140 C.ar  110  TRP110      0.0012
    127  CZ2       -6.7540  -40.8140    2.1540 C.ar  110  TRP110      0.0191
    128  CZ3       -6.4660  -40.3370   -0.1910 C.ar  110  TRP110      0.0001
    129  CH2       -5.9430  -40.5800    1.0810 C.ar  110  TRP110      0.0015
    130  N        -13.1790  -36.5610    4.4620 N.3   114  VAL114     -0.1245
    131  CA       -12.3670  -36.3700    5.6690 C.3   114  VAL114      0.1561
    132  C        -12.0740  -34.8970    5.9250 C.2   114  VAL114      0.2260
    133  O        -12.2580  -34.4110    7.0380 O.2   114  VAL114     -0.2867
    134  CB       -11.0230  -37.1230    5.5880 C.3   114  VAL114      0.0252
    135  CG1      -10.1980  -36.8960    6.8590 C.3   114  VAL114      0.0019
    136  CG2      -11.2560  -38.6030    5.3770 C.3   114  VAL114      0.0019
    137  N          9.6890  -27.4700   10.6500 N.3   204  PHE204     -0.1241
    138  CA         8.4310  -27.8040   11.3040 C.3   204  PHE204      0.1605
    139  C          8.6000  -28.9100   12.3360 C.2   204  PHE204      0.2264
    140  O          9.1530  -29.9680   12.0380 O.2   204  PHE204     -0.2867
    141  CB         7.3860  -28.2420   10.2770 C.3   204  PHE204      0.0534
    142  CG         6.2650  -29.0470   10.8700 C.ar  204  PHE204     -0.0203
    143  CD1        6.2510  -30.4280   10.7630 C.ar  204  PHE204     -0.0042
    144  CD2        5.2350  -28.4240   11.5510 C.ar  204  PHE204     -0.0042
    145  CE1        5.2230  -31.1700   11.3140 C.ar  204  PHE204     -0.0003
    146  CE2        4.2070  -29.1620   12.1040 C.ar  204  PHE204     -0.0003
    147  CZ         4.2020  -30.5350   11.9860 C.ar  204  PHE204     -0.0000
@<TRIPOS>BOND
     1   116   117    1
     2   126   128   ar
     3   126   123   ar
     4   120   117    1
     5   120   121    1
     6   128   129   ar
     7   117   118    1
     8   123   121   ar
     9   123   125   ar
    10   118   119    2
    11   121   122   ar
    12   129   127   ar
    13   125   127   ar
    14   125   124   ar
    15   122   124   ar
    16   112   111    2
    17   111   110    1
    18   115   113    1
    19   113   110    1
    20   113   114    1
    21   110   109    1
    22   130   131    1
    23   109   107   am
    24   136   134    1
    25   134   131    1
    26   134   135    1
    27   131   132    1
    28   132   133    2
    29   107   108    2
    30   107   106    1
    31    99    97    1
    32    97    98    1
    33    97    94    1
    34   106   105    1
    35    96    95    2
    36    94    95    1
    37    94    93    1
    38    84    82   ar
    39   105   102   am
    40    83    82   ar
    41    57    56    1
    42   103   102    2
    43    82    81    1
    44    47    45    1
    45    93    87   am
    46   102   101    1
    47    56    58    1
    48    56    55    2
    49   141   142    1
    50   141   138    1
    51    54    55    1
    52    54    53    1
    53    87    88    2
    54    87    86    1
    55    46    44    1
    56   137   138    1
    57   143   142   ar
    58   143   145   ar
    59    81    78    1
    60    45    44    1
    61   142   144   ar
    62   101   104    1
    63   101   100    1
    64    53    52    1
    65   138   139    1
    66   145   147   ar
    67    44    41    1
    68    89    86    1
    69    89    90    1
    70    85    86    1
    71    85    79   am
    72    21    19    1
    73   144   146   ar
    74    67    68   ar
    75    67    65   ar
    76    79    78    1
    77    79    80    2
    78    78    77    1
    79    68    66   ar
    80    91    90    1
    81   147   146   ar
    82   140   139    2
    83    90    92    1
    84    19    20    1
    85    19    16    1
    86    52    49    1
    87    65    64   ar
    88    10     9    1
    89    41    42    1
    90    41    40    1
    91    42    43    2
    92    42    48   am
    93    77    71   am
    94    15    16    1
    95    15    13   am
    96    12    11    1
    97    12    13    1
    98    48    49    1
    99    66    64   ar
   100    49    50    1
   101     9     6    1
   102    40    34   am
   103    16    17    1
   104    64    63    1
   105    72    71    2
   106    38    37   ar
   107    11     7   am
   108    13    14    2
   109    71    70    1
   110     2     1    1
   111     2     3    1
   112     7     8    2
   113     7     6    1
   114    39    37   ar
   115    37    36    1
   116    22    17   am
   117    22    23    1
   118     6     5    1
   119     4     3    2
   120    50    51    2
   121    17    18    2
   122    34    33    1
   123    34    35    2
   124    63    60    1
   125    26    23    1
   126    75    74    1
   127    33    36    1
   128    33    32    1
   129    70    69    1
   130    70    73    1
   131    74    73    1
   132    74    76    1
   133    23    24    1
   134    59    60    1
   135    60    61    1
   136    30    29    2
   137    32    29   am
   138    29    28    1
   139    24    25    2
   140    61    62    2
   141    31    28    1
   142    28    27    1
