@<TRIPOS>MOLECULE
tmp/4yahA00.pdb
 144 139 0 0 0
SMALL
GASTEIGER

@<TRIPOS>ATOM
      1  N          7.2820   26.8890   -3.6380 N.3    14  GLU14      -0.1245
      2  CA         8.3330   26.6780   -4.6410 C.3    14  GLU14       0.1567
      3  C          7.7710   26.9510   -6.0370 C.2    14  GLU14       0.2260
      4  O          8.4630   27.4980   -6.8960 O.2    14  GLU14      -0.2867
      5  CB         8.9340   25.2690   -4.5580 C.3    14  GLU14       0.0388
      6  CG         9.7960   25.0840   -3.2890 C.3    14  GLU14       0.1160
      7  CD        10.5610   23.7720   -3.2190 C.2    14  GLU14       0.3649
      8  OE1       10.9900   23.3960   -2.1040 O.co2  14  GLU14      -0.2457
      9  OE2       10.7580   23.1140   -4.2520 O.co2  14  GLU14      -0.2457
     10  N          8.3860   13.8110   -4.4830 N.3    41  TYR41      -0.1241
     11  CA         9.7920   13.9060   -4.8130 C.3    41  TYR41       0.1605
     12  C         10.2720   12.7930   -5.7460 C.2    41  TYR41       0.2264
     13  O         11.4580   12.7360   -6.0800 O.2    41  TYR41      -0.2867
     14  CB        10.6080   13.8640   -3.5270 C.3    41  TYR41       0.0534
     15  CG        10.6370   15.1310   -2.6900 C.ar   41  TYR41      -0.0201
     16  CD1       10.3470   16.3690   -3.2270 C.ar   41  TYR41      -0.0009
     17  CD2       11.0380   15.0760   -1.3670 C.ar   41  TYR41      -0.0009
     18  CE1       10.4500   17.5140   -2.4710 C.ar   41  TYR41       0.0417
     19  CE2       11.1390   16.2090   -0.6040 C.ar   41  TYR41       0.0417
     20  CZ        10.8550   17.4130   -1.1440 C.ar   41  TYR41       0.1957
     21  OH        10.9700   18.5220   -0.3450 O.3    41  TYR41      -0.2866
     22  N         13.8290   21.0090   -7.8950 N.3    58  PHE58      -0.1227
     23  CA        13.2150   20.6080   -6.6300 C.3    58  PHE58       0.1736
     24  C         14.0940   19.8450   -5.6470 C.2    58  PHE58       0.2595
     25  O         13.6490   19.5910   -4.5310 O.2    58  PHE58      -0.2718
     26  CB        11.9810   19.7310   -6.9120 C.3    58  PHE58       0.0547
     27  CG        12.3130   18.2780   -7.1480 C.ar   58  PHE58      -0.0202
     28  CD1       12.1840   17.3550   -6.1280 C.ar   58  PHE58      -0.0042
     29  CD2       12.7890   17.8400   -8.3820 C.ar   58  PHE58      -0.0042
     30  CE1       12.5030   16.0280   -6.3250 C.ar   58  PHE58      -0.0003
     31  CE2       13.1060   16.5110   -8.5810 C.ar   58  PHE58      -0.0003
     32  CZ        12.9610   15.6060   -7.5600 C.ar   58  PHE58      -0.0000
     33  N         15.2980   19.4420   -6.0490 N.am   59  GLN59      -0.1965
     34  CA        16.0950   18.5190   -5.2370 C.3    59  GLN59       0.1733
     35  C         17.5010   19.0420   -4.9530 C.2    59  GLN59       0.2616
     36  O         18.0300   19.8690   -5.6880 O.2    59  GLN59      -0.2715
     37  CB        16.1720   17.1480   -5.9330 C.3    59  GLN59       0.0408
     38  CG        17.0940   17.1140   -7.1430 C.3    59  GLN59       0.0908
     39  CD        16.7860   15.9630   -8.0850 C.2    59  GLN59       0.2608
     40  OE1       16.9070   14.7820   -7.7190 O.2    59  GLN59      -0.2717
     41  NE2       16.4110   16.2980   -9.3150 N.am   59  GLN59      -0.0878
     42  N         18.0920   18.5800   -3.8490 N.am   60  HIS60      -0.1973
     43  CA        19.4800   18.8870   -3.5530 C.3    60  HIS60       0.1656
     44  C         20.3760   17.7560   -4.0740 C.2    60  HIS60       0.2291
     45  O         19.8670   16.7310   -4.5440 O.2    60  HIS60      -0.2864
     46  CB        19.6980   19.1450   -2.0320 C.3    60  HIS60       0.0771
     47  CG        19.0800   18.1360   -1.1080 C.ar   60  HIS60       0.0820
     48  ND1       19.4020   16.7930   -1.1200 N.ar   60  HIS60      -0.2267
     49  CD2       18.1800   18.2950   -0.1060 C.ar   60  HIS60       0.1154
     50  CE1       18.7070   16.1700   -0.1850 C.ar   60  HIS60       0.1986
     51  NE2       17.9640   17.0610    0.4510 N.ar   60  HIS60      -0.2212
     52  N         20.2210   14.0870   -2.6710 N.3    63  TYR63      -0.1241
     53  CA        19.0230   13.4240   -3.1620 C.3    63  TYR63       0.1605
     54  C         19.2320   12.9490   -4.5980 C.2    63  TYR63       0.2264
     55  O         18.8990   11.8130   -4.9400 O.2    63  TYR63      -0.2867
     56  CB        17.8240   14.3500   -3.1010 C.3    63  TYR63       0.0534
     57  CG        16.5380   13.6380   -3.4280 C.ar   63  TYR63      -0.0201
     58  CD1       15.8180   12.9950   -2.4260 C.ar   63  TYR63      -0.0009
     59  CD2       16.0500   13.5820   -4.7300 C.ar   63  TYR63      -0.0009
     60  CE1       14.6280   12.3320   -2.7020 C.ar   63  TYR63       0.0417
     61  CE2       14.8680   12.9220   -5.0130 C.ar   63  TYR63       0.0417
     62  CZ        14.1650   12.2910   -3.9890 C.ar   63  TYR63       0.1957
     63  OH        12.9880   11.6150   -4.2310 O.3    63  TYR63      -0.2866
     64  N         17.3710   25.5290    1.6780 N.3    84  TYR84      -0.1241
     65  CA        16.1490   25.6640    2.4730 C.3    84  TYR84       0.1605
     66  C         16.3870   24.9850    3.8130 C.2    84  TYR84       0.2264
     67  O         16.0890   23.8020    3.9650 O.2    84  TYR84      -0.2867
     68  CB        14.9670   25.0220    1.7610 C.3    84  TYR84       0.0534
     69  CG        14.5380   25.6880    0.4810 C.ar   84  TYR84      -0.0201
     70  CD1       13.9210   26.9290    0.4960 C.ar   84  TYR84      -0.0009
     71  CD2       14.7080   25.0510   -0.7340 C.ar   84  TYR84      -0.0009
     72  CE1       13.4920   27.5290   -0.6800 C.ar   84  TYR84       0.0417
     73  CE2       14.2790   25.6410   -1.9200 C.ar   84  TYR84       0.0417
     74  CZ        13.6790   26.8830   -1.8770 C.ar   84  TYR84       0.1957
     75  OH        13.2450   27.4800   -3.0250 O.3    84  TYR84      -0.2866
     76  N         16.2030   23.1380    7.0100 N.3    86  ILE86      -0.1245
     77  CA        15.0440   22.3750    7.4280 C.3    86  ILE86       0.1561
     78  C         14.8080   22.5610    8.9260 C.2    86  ILE86       0.2260
     79  O         15.7440   22.7910    9.6910 O.2    86  ILE86      -0.2867
     80  CB        15.2100   20.8890    7.0780 C.3    86  ILE86       0.0252
     81  CG1       13.8560   20.1920    7.0420 C.3    86  ILE86       0.0019
     82  CG2       16.2180   20.2080    7.9990 C.3    86  ILE86       0.0019
     83  CD1       13.9340   18.7980    6.4220 C.3    86  ILE86       0.0001
     84  N         17.0810   12.6460    3.0640 N.3   113  ASN113     -0.1240
     85  CA        16.3860   13.5970    3.9370 C.3   113  ASN113      0.1653
     86  C         16.1270   12.9640    5.2890 C.2   113  ASN113      0.2266
     87  O         16.0790   13.6670    6.2970 O.2   113  ASN113     -0.2867
     88  CB        15.1180   14.1160    3.2730 C.3   113  ASN113      0.1155
     89  CG        15.4350   15.1120    2.1680 C.2   113  ASN113      0.2627
     90  OD1       15.9050   16.2230    2.4240 O.2   113  ASN113     -0.2716
     91  ND2       15.2140   14.7020    0.9340 N.am  113  ASN113     -0.0877
     92  N         19.4990   13.4810    6.9240 N.3   116  ARG116     -0.1245
     93  CA        19.5260   14.8890    7.2610 C.3   116  ARG116      0.1563
     94  C         18.7410   15.2150    8.5360 C.2   116  ARG116      0.2260
     95  O         19.1860   16.0060    9.3700 O.2   116  ARG116     -0.2867
     96  CB        18.9610   15.6580    6.0820 C.3   116  ARG116      0.0307
     97  CG        18.8430   17.1340    6.2680 C.3   116  ARG116      0.0489
     98  CD        18.1490   17.7270    5.0770 C.3   116  ARG116      0.2205
     99  NE        18.2260   19.1780    5.0610 N.pl3 116  ARG116     -0.0865
    100  CZ        17.6490   19.9450    4.1480 C.cat 116  ARG116      0.5346
    101  NH1       16.9040   19.4030    3.1810 N.pl3 116  ARG116      0.1354
    102  NH2       17.7960   21.2570    4.2100 N.pl3 116  ARG116      0.1354
    103  N         10.4400   19.2210    5.3270 N.3   174  ASN174     -0.1225
    104  CA        11.0030   20.0580    4.2850 C.3   174  ASN174      0.1785
    105  C         10.1930   21.3280    4.1220 C.2   174  ASN174      0.2598
    106  O          8.9760   21.3010    4.1020 O.2   174  ASN174     -0.2718
    107  CB        11.0400   19.3310    2.9360 C.3   174  ASN174      0.1169
    108  CG        11.7820   18.0160    2.9970 C.2   174  ASN174      0.2627
    109  OD1       11.1980   16.9740    3.3010 O.2   174  ASN174     -0.2716
    110  ND2       13.0770   18.0490    2.6880 N.am  174  ASN174     -0.0877
    111  N         10.8780   22.4410    3.9440 N.am  175  THR175     -0.1939
    112  CA        10.1940   23.7080    3.7880 C.3   175  THR175      0.2028
    113  C          9.2500   23.7100    2.5890 C.2   175  THR175      0.2642
    114  O          8.2520   24.4210    2.6210 O.2   175  THR175     -0.2714
    115  CB        11.2130   24.8310    3.6920 C.3   175  THR175      0.1808
    116  OG1       12.0580   24.7590    4.8440 O.3   175  THR175     -0.2208
    117  CG2       10.5400   26.1850    3.6590 C.3   175  THR175      0.0379
    118  N          9.5530   22.8840    1.5780 N.am  176  THR176     -0.1950
    119  CA         8.6500   22.6090    0.4400 C.3   176  THR176      0.1897
    120  C          7.2050   22.4050    0.8970 C.2   176  THR176      0.2313
    121  O          6.2720   23.0350    0.4110 O.2   176  THR176     -0.2863
    122  CB         9.0480   21.3210   -0.3090 C.3   176  THR176      0.1794
    123  OG1       10.4460   21.3310   -0.6230 O.3   176  THR176     -0.2208
    124  CG2        8.2390   21.1660   -1.5850 C.3   176  THR176      0.0378
    125  N         22.8750   21.0440    1.3010 N.3   199  TYR199     -0.1241
    126  CA        21.5580   20.7830    0.7110 C.3   199  TYR199      0.1605
    127  C         21.0330   21.8820   -0.2130 C.2   199  TYR199      0.2264
    128  O         19.8280   22.0290   -0.3830 O.2   199  TYR199     -0.2867
    129  CB        20.5520   20.5050    1.8490 C.3   199  TYR199      0.0534
    130  CG        20.9760   19.3290    2.7010 C.ar  199  TYR199     -0.0201
    131  CD1       20.9800   18.0410    2.1890 C.ar  199  TYR199     -0.0009
    132  CD2       21.3860   19.5050    4.0120 C.ar  199  TYR199     -0.0009
    133  CE1       21.3900   16.9730    2.9440 C.ar  199  TYR199      0.0417
    134  CE2       21.7950   18.4410    4.7790 C.ar  199  TYR199      0.0417
    135  CZ        21.7840   17.1820    4.2540 C.ar  199  TYR199      0.1957
    136  OH        22.1910   16.1250    5.0310 O.3   199  TYR199     -0.2866
    137  N         19.5040   23.3510   -3.2970 N.3   201  ASN201     -0.1240
    138  CA        18.6660   22.7320   -4.3150 C.3   201  ASN201      0.1653
    139  C         19.2420   23.0480   -5.7040 C.2   201  ASN201      0.2266
    140  O         20.0680   23.9510   -5.8530 O.2   201  ASN201     -0.2867
    141  CB        17.2110   23.2160   -4.1950 C.3   201  ASN201      0.1155
    142  CG        16.4570   22.5650   -3.0420 C.2   201  ASN201      0.2627
    143  OD1       15.2360   22.4470   -3.0930 O.2   201  ASN201     -0.2716
    144  ND2       17.1770   22.1740   -1.9800 N.am  201  ASN201     -0.0877
@<TRIPOS>BOND
     1    41    39   am
     2    31    29   ar
     3    31    32   ar
     4    29    27   ar
     5    39    40    2
     6    39    38    1
     7    22    23    1
     8    32    30   ar
     9    27    26    1
    10    27    28   ar
    11    38    37    1
    12    26    23    1
    13     4     3    2
    14    23    24    1
    15    30    28   ar
    16    13    12    2
    17    33    24   am
    18    33    34    1
    19     3     2    1
    20    37    34    1
    21   140   139    2
    22    12    11    1
    23   139   138    1
    24    36    35    2
    25    24    25    2
    26    34    35    1
    27    61    59   ar
    28    61    62   ar
    29    35    42   am
    30    55    54    2
    31    11    10    1
    32    11    14    1
    33    59    57   ar
    34     2     5    1
    35     2     1    1
    36    54    53    1
    37     5     6    1
    38    45    44    2
    39   138   141    1
    40   138   137    1
    41     9     7   ar
    42    63    62    1
    43   141   142    1
    44    44    43    1
    45    62    60   ar
    46    42    43    1
    47    43    46    1
    48    14    15    1
    49    57    56    1
    50    57    58   ar
    51     6     7    1
    52    16    15   ar
    53    16    18   ar
    54     7     8   ar
    55    53    56    1
    56    53    52    1
    57   143   142    2
    58   142   144   am
    59    75    74    1
    60    60    58   ar
    61    15    17   ar
    62    18    20   ar
    63    46    47    1
    64    73    74   ar
    65    73    71   ar
    66    74    72   ar
    67   124   122    1
    68    17    19   ar
    69    20    19   ar
    70    20    21    1
    71    48    47   ar
    72    48    50   ar
    73    47    49   ar
    74    71    69   ar
    75    72    70   ar
    76   123   122    1
    77   128   127    2
    78   122   119    1
    79   127   126    1
    80    50    51   ar
    81    49    51   ar
    82   121   120    2
    83   119   120    1
    84   119   118    1
    85    69    70   ar
    86    69    68    1
    87   126   125    1
    88   126   129    1
    89    91    89   am
    90   118   113   am
    91    64    65    1
    92    68    65    1
    93   129   130    1
    94    89    90    2
    95    89    88    1
    96   131   130   ar
    97   131   133   ar
    98    65    66    1
    99   113   114    2
   100   113   112    1
   101   110   108   am
   102   130   132   ar
   103   107   108    1
   104   107   104    1
   105   133   135   ar
   106   108   109    2
   107    84    85    1
   108   101   100    1
   109    88    85    1
   110   117   115    1
   111   115   112    1
   112   115   116    1
   113   112   111    1
   114    66    67    2
   115    85    86    1
   116   111   105   am
   117   132   134   ar
   118   106   105    2
   119   105   104    1
   120   100   102    1
   121   100    99    2
   122   135   134   ar
   123   135   136    1
   124   104   103    1
   125    99    98    1
   126    98    97    1
   127    86    87    2
   128    96    97    1
   129    96    93    1
   130    83    81    1
   131    92    93    1
   132    76    77    1
   133    81    80    1
   134    80    77    1
   135    80    82    1
   136    93    94    1
   137    77    78    1
   138    94    95    2
   139    78    79    2
