@<TRIPOS>MOLECULE
tmp/4yaiB01.pdb
 149 143 0 0 0
SMALL
GASTEIGER

@<TRIPOS>ATOM
      1  N         16.5730   68.4990   18.3900 N.3    95  ASP95      -0.1239
      2  CA        17.3220   69.5550   17.7070 C.3    95  ASP95       0.1674
      3  C         18.2920   70.2410   18.6790 C.2    95  ASP95       0.2266
      4  O         17.8700   71.0500   19.5120 O.2    95  ASP95      -0.2867
      5  CB        16.3600   70.5810   17.1090 C.3    95  ASP95       0.1410
      6  CG        17.0700   71.6290   16.2770 C.2    95  ASP95       0.3668
      7  OD1       18.3160   71.6400   16.2650 O.co2  95  ASP95      -0.2456
      8  OD2       16.3800   72.4490   15.6370 O.co2  95  ASP95      -0.2456
      9  N         17.9350   62.4510    8.4060 N.3   144  SER144     -0.1202
     10  CA        17.4610   63.7610    7.9420 C.3   144  SER144      0.2020
     11  C         18.1580   64.0890    6.6390 C.2   144  SER144      0.2619
     12  O         19.2630   63.6120    6.3980 O.2   144  SER144     -0.2717
     13  CB        17.7390   64.8650    8.9580 C.3   144  SER144      0.2103
     14  OG        17.3920   66.1300    8.4140 O.3   144  SER144     -0.2182
     15  N         17.5310   64.8980    5.7930 N.am  145  LEU145     -0.1965
     16  CA        18.2440   65.4140    4.6330 C.3   145  LEU145      0.1728
     17  C         19.3770   66.3430    5.0980 C.2   145  LEU145      0.2616
     18  O         20.3210   66.6050    4.3500 O.2   145  LEU145     -0.2715
     19  CB        17.2860   66.1390    3.6780 C.3   145  LEU145      0.0311
     20  CG        16.3680   65.2170    2.8750 C.3   145  LEU145      0.0022
     21  CD1       15.2220   65.9950    2.2330 C.3   145  LEU145      0.0001
     22  CD2       17.1370   64.4460    1.8110 C.3   145  LEU145      0.0001
     23  N         19.2910   66.8310    6.3340 N.am  146  ALA146     -0.1977
     24  CA        20.3750   67.6150    6.9240 C.3   146  ALA146      0.1597
     25  C         21.6510   66.7800    7.1110 C.2   146  ALA146      0.2287
     26  O         22.7290   67.3190    7.3570 O.2   146  ALA146     -0.2864
     27  CB        19.9340   68.2090    8.2520 C.3   146  ALA146      0.0319
     28  N         22.7330   67.1040    2.6450 N.3   149  THR149     -0.1218
     29  CA        22.9660   68.3830    1.9980 C.3   149  THR149      0.1862
     30  C         23.8690   69.2470    2.9030 C.2   149  THR149      0.2287
     31  O         23.8070   69.1330    4.1240 O.2   149  THR149     -0.2866
     32  CB        21.6150   69.0990    1.6760 C.3   149  THR149      0.1770
     33  OG1       21.8230   70.1200    0.6890 O.3   149  THR149     -0.2211
     34  CG2       20.9820   69.7060    2.9270 C.3   149  THR149      0.0375
     35  N         25.2410   71.7750    5.4130 N.3   151  MET151     -0.1245
     36  CA        24.5910   72.5330    6.4690 C.3   151  MET151      0.1570
     37  C         25.5700   73.5350    7.0910 C.2   151  MET151      0.2261
     38  O         26.7850   73.3300    7.0550 O.2   151  MET151     -0.2867
     39  CB        24.0480   71.5920    7.5530 C.3   151  MET151      0.0387
     40  CG        23.0060   70.6060    7.0700 C.3   151  MET151      0.0595
     41  SD        21.4590   71.3970    6.6040 S.3   151  MET151     -0.1393
     42  CE        20.8090   71.8280    8.2030 C.3   151  MET151      0.0692
     43  N         24.0330   74.2160   12.8140 N.3   155  MET155     -0.1245
     44  CA        23.4510   72.8770   12.8870 C.3   155  MET155      0.1570
     45  C         24.5010   71.7670   12.8340 C.2   155  MET155      0.2261
     46  O         24.2110   70.6360   12.4370 O.2   155  MET155     -0.2867
     47  CB        22.4340   72.7100   11.7670 C.3   155  MET155      0.0387
     48  CG        21.3240   73.7060   11.9630 C.3   155  MET155      0.0595
     49  SD        19.9590   73.6000   10.8430 S.3   155  MET155     -0.1393
     50  CE        19.7150   75.3710   10.6100 C.3   155  MET155      0.0692
     51  N         23.6630   68.4410   14.9290 N.3   158  TYR158     -0.1241
     52  CA        22.5850   67.7180   14.2730 C.3   158  TYR158      0.1605
     53  C         23.0460   67.0350   12.9910 C.2   158  TYR158      0.2264
     54  O         22.8250   65.8490   12.7970 O.2   158  TYR158     -0.2867
     55  CB        21.4500   68.6810   13.9610 C.3   158  TYR158      0.0534
     56  CG        20.1570   68.0390   13.5180 C.ar  158  TYR158     -0.0201
     57  CD1       19.2590   67.5220   14.4430 C.ar  158  TYR158     -0.0009
     58  CD2       19.8200   67.9720   12.1770 C.ar  158  TYR158     -0.0009
     59  CE1       18.0660   66.9550   14.0410 C.ar  158  TYR158      0.0417
     60  CE2       18.6360   67.4080   11.7720 C.ar  158  TYR158      0.0417
     61  CZ        17.7570   66.8970   12.7060 C.ar  158  TYR158      0.1957
     62  OH        16.5600   66.3350   12.3040 O.3   158  TYR158     -0.2866
     63  N         13.9970   62.8990    6.0820 N.3   188  PRO188     -0.2102
     64  CA        12.9520   63.8810    5.7910 C.3   188  PRO188      0.1504
     65  C         13.4570   65.2880    5.5580 C.2   188  PRO188      0.2576
     66  O         14.5320   65.6740    6.0400 O.2   188  PRO188     -0.2718
     67  CB        12.0750   63.8500    7.0530 C.3   188  PRO188      0.0282
     68  CG        12.5280   62.6720    7.8470 C.3   188  PRO188      0.0208
     69  CD        13.9680   62.4850    7.4910 C.3   188  PRO188      0.0893
     70  N         12.6600   66.0290    4.7880 N.am  189  GLY189     -0.1943
     71  CA        12.6600   67.4760    4.7780 C.3   189  GLY189      0.1998
     72  C         11.6980   67.9330    5.8640 C.2   189  GLY189      0.2481
     73  O         11.4180   67.1760    6.7910 O.2   189  GLY189     -0.2729
     74  N         11.1700   69.1610    5.7510 N.am  190  PRO190     -0.2715
     75  CA        10.3100   69.7030    6.8130 C.3   190  PRO190      0.1536
     76  C          8.9700   68.9800    6.9800 C.2   190  PRO190      0.2598
     77  O          8.1560   68.9570    6.0590 O.2   190  PRO190     -0.2715
     78  CB        10.0810   71.1540    6.3710 C.3   190  PRO190      0.0310
     79  CG        10.3260   71.1620    4.9080 C.3   190  PRO190      0.0237
     80  CD        11.3820   70.1290    4.6620 C.3   190  PRO190      0.0939
     81  N          8.7660   68.4090    8.1630 N.am  191  ILE191     -0.1978
     82  CA         7.5380   67.7160    8.5300 C.3   191  ILE191      0.1596
     83  C          6.9180   68.3950    9.7480 C.2   191  ILE191      0.2287
     84  O          7.6280   68.7720   10.6790 O.2   191  ILE191     -0.2864
     85  CB         7.7930   66.2320    8.8800 C.3   191  ILE191      0.0276
     86  CG1        8.8160   65.5960    7.9340 C.3   191  ILE191      0.0022
     87  CG2        6.4770   65.4570    8.8970 C.3   191  ILE191      0.0022
     88  CD1        8.4190   65.5970    6.4650 C.3   191  ILE191      0.0001
     89  N          5.5940   68.7230   13.2310 N.3   193  SER193     -0.1217
     90  CA         5.9050   67.9290   14.4160 C.3   193  SER193      0.1889
     91  C          6.0940   68.8280   15.6250 C.2   193  SER193      0.2288
     92  O          5.8210   70.0250   15.5610 O.2   193  SER193     -0.2866
     93  CB         7.1670   67.0860   14.1900 C.3   193  SER193      0.2089
     94  OG         8.3410   67.8770   14.3030 O.3   193  SER193     -0.2183
     95  N          9.1340   68.9030   17.3470 N.3   195  ILE195     -0.1245
     96  CA        10.5740   68.8830   17.6040 C.3   195  ILE195      0.1561
     97  C         11.0350   70.2390   18.1410 C.2   195  ILE195      0.2260
     98  O         12.1110   70.3470   18.7310 O.2   195  ILE195     -0.2867
     99  CB        11.3780   68.5050   16.3380 C.3   195  ILE195      0.0252
    100  CG1       12.8350   68.1920   16.7020 C.3   195  ILE195      0.0019
    101  CG2       11.2910   69.6080   15.2840 C.3   195  ILE195      0.0019
    102  CD1       13.5560   67.3580   15.6700 C.3   195  ILE195      0.0001
    103  N         13.5890   78.3470   20.0230 N.3   219  LEU219     -0.1245
    104  CA        13.0660   77.2360   19.2440 C.3   219  LEU219      0.1561
    105  C         11.6560   76.8840   19.7050 C.2   219  LEU219      0.2260
    106  O         10.7880   76.6010   18.8890 O.2   219  LEU219     -0.2867
    107  CB        13.9780   76.0160   19.3580 C.3   219  LEU219      0.0270
    108  CG        13.4810   74.7680   18.6290 C.3   219  LEU219      0.0019
    109  CD1       13.3440   75.0150   17.1300 C.3   219  LEU219      0.0001
    110  CD2       14.4110   73.5970   18.8960 C.3   219  LEU219      0.0001
    111  N          8.8610   78.6190   17.8980 N.3   222  ARG222     -0.1245
    112  CA         8.7860   78.5390   16.4430 C.3   222  ARG222      0.1563
    113  C          7.4360   77.9950   15.9890 C.2   222  ARG222      0.2260
    114  O          6.9600   76.9810   16.5020 O.2   222  ARG222     -0.2867
    115  CB         9.9070   77.6580   15.8890 C.3   222  ARG222      0.0307
    116  CG         9.9970   77.6670   14.3660 C.3   222  ARG222      0.0489
    117  CD        11.0500   76.6870   13.8690 C.3   222  ARG222      0.2205
    118  NE        10.6920   75.3030   14.1720 N.pl3 222  ARG222     -0.0865
    119  CZ        11.5300   74.2740   14.0820 C.cat 222  ARG222      0.5346
    120  NH1       12.7880   74.4650   13.7060 N.pl3 222  ARG222      0.1354
    121  NH2       11.1150   73.0480   14.3780 N.pl3 222  ARG222      0.1354
    122  N          4.4520   72.5010    5.5740 N.3   228  TRP228     -0.1241
    123  CA         5.2750   71.3480    5.9100 C.3   228  TRP228      0.1605
    124  C          4.4350   70.0870    5.7290 C.2   228  TRP228      0.2264
    125  O          3.2030   70.1320    5.7510 O.2   228  TRP228     -0.2867
    126  CB         5.8230   71.4450    7.3360 C.3   228  TRP228      0.0550
    127  CG         6.8040   72.5690    7.5280 C.ar  228  TRP228      0.0003
    128  CD1        7.3060   73.3950    6.5640 C.ar  228  TRP228      0.0946
    129  CD2        7.3980   72.9880    8.7610 C.ar  228  TRP228      0.0152
    130  NE1        8.1730   74.3030    7.1210 N.ar  228  TRP228     -0.2442
    131  CE2        8.2470   74.0740    8.4700 C.ar  228  TRP228      0.0810
    132  CE3        7.2930   72.5510   10.0850 C.ar  228  TRP228      0.0012
    133  CZ2        8.9850   74.7300    9.4520 C.ar  228  TRP228      0.0191
    134  CZ3        8.0270   73.2040   11.0600 C.ar  228  TRP228      0.0001
    135  CH2        8.8630   74.2790   10.7380 C.ar  228  TRP228      0.0015
    136  N         16.3280   69.6630   -2.0090 N.3   255  TRP255     -0.1241
    137  CA        17.7740   69.7340   -1.8310 C.3   255  TRP255      0.1605
    138  C         18.5040   68.8280   -2.8280 C.2   255  TRP255      0.2264
    139  O         19.6590   68.4750   -2.6260 O.2   255  TRP255     -0.2867
    140  CB        18.1410   69.3880   -0.3780 C.3   255  TRP255      0.0550
    141  CG        17.6750   70.4690    0.5620 C.ar  255  TRP255      0.0003
    142  CD1       18.3590   71.5950    0.9180 C.ar  255  TRP255      0.0946
    143  CD2       16.4140   70.5380    1.2320 C.ar  255  TRP255      0.0152
    144  NE1       17.5980   72.3640    1.7710 N.ar  255  TRP255     -0.2442
    145  CE2       16.3990   71.7350    1.9780 C.ar  255  TRP255      0.0810
    146  CE3       15.2900   69.7080    1.2690 C.ar  255  TRP255      0.0012
    147  CZ2       15.3110   72.1140    2.7610 C.ar  255  TRP255      0.0191
    148  CZ3       14.2080   70.0890    2.0440 C.ar  255  TRP255      0.0001
    149  CH2       14.2270   71.2800    2.7790 C.ar  255  TRP255      0.0015
@<TRIPOS>BOND
     1   138   139    2
     2   138   137    1
     3   136   137    1
     4   137   140    1
     5   140   141    1
     6   141   142   ar
     7   141   143   ar
     8    33    32    1
     9   142   144   ar
    10   143   146   ar
    11   143   145   ar
    12   146   148   ar
    13    32    29    1
    14    32    34    1
    15   144   145   ar
    16    22    20    1
    17   145   147   ar
    18    29    28    1
    19    29    30    1
    20   148   149   ar
    21    21    20    1
    22   147   149   ar
    23    20    19    1
    24    30    31    2
    25    19    16    1
    26    18    17    2
    27    16    17    1
    28    16    15    1
    29    80    79    1
    30    80    74    1
    31    71    70    1
    32    71    72    1
    33    70    65   am
    34    79    78    1
    35    17    23   am
    36    35    36    1
    37    65    64    1
    38    65    66    2
    39   122   123    1
    40   124   125    2
    41   124   123    1
    42    74    72   am
    43    74    75    1
    44    64    63    1
    45    64    67    1
    46    15    11   am
    47    72    73    2
    48   123   126    1
    49    77    76    2
    50    63    69    1
    51    23    24    1
    52    78    75    1
    53    12    11    2
    54    88    86    1
    55    36    37    1
    56    36    39    1
    57   128   130   ar
    58   128   127   ar
    59    41    40    1
    60    41    42    1
    61    11    10    1
    62    75    76    1
    63    24    25    1
    64    24    27    1
    65    76    81   am
    66    67    68    1
    67    38    37    2
    68    40    39    1
    69    25    26    2
    70   130   131   ar
    71   126   127    1
    72    69    68    1
    73   127   129   ar
    74    86    85    1
    75    10     9    1
    76    10    13    1
    77    81    82    1
    78    14    13    1
    79   131   129   ar
    80   131   133   ar
    81    82    85    1
    82    82    83    1
    83   129   132   ar
    84    85    87    1
    85   133   135   ar
    86    83    84    2
    87   132   134   ar
    88    50    49    1
    89   135   134   ar
    90    49    48    1
    91    47    48    1
    92    47    44    1
    93    60    58   ar
    94    60    61   ar
    95    58    56   ar
    96    62    61    1
    97    46    45    2
    98    61    59   ar
    99    54    53    2
   100    43    44    1
   101    45    44    1
   102    53    52    1
   103    89    90    1
   104    56    55    1
   105    56    57   ar
   106   120   119    1
   107   117   118    1
   108   117   116    1
   109    55    52    1
   110    59    57   ar
   111   119   118    2
   112   119   121    1
   113    93    94    1
   114    93    90    1
   115    52    51    1
   116   116   115    1
   117    90    91    1
   118   101    99    1
   119    92    91    2
   120     8     6   ar
   121   102   100    1
   122   115   112    1
   123   113   112    1
   124   113   114    2
   125     7     6   ar
   126     6     5    1
   127    99   100    1
   128    99    96    1
   129   112   111    1
   130     5     2    1
   131   109   108    1
   132    95    96    1
   133    96    97    1
   134     2     1    1
   135     2     3    1
   136    97    98    2
   137   108   110    1
   138   108   107    1
   139     3     4    2
   140   106   105    2
   141   104   107    1
   142   104   105    1
   143   104   103    1
