@<TRIPOS>MOLECULE
tmp/4yayA00.pdb
 228 223 0 0 0
SMALL
GASTEIGER

@<TRIPOS>ATOM
      1  N        -24.3300   22.2420   40.4970 N.3   125  ILE125     -0.1245
      2  CA       -23.2010   21.4770   41.0470 C.3   125  ILE125      0.1561
      3  C        -21.8990   22.3540   41.0780 C.2   125  ILE125      0.2260
      4  O        -21.3220   22.4310   42.1670 O.2   125  ILE125     -0.2867
      5  CB       -22.9930   20.1200   40.2990 C.3   125  ILE125      0.0252
      6  CG1      -24.2850   19.2430   40.2960 C.3   125  ILE125      0.0019
      7  CG2      -21.7810   19.3390   40.8140 C.3   125  ILE125      0.0019
      8  CD1      -24.8960   18.7990   41.7080 C.3   125  ILE125      0.0001
      9  N        -19.9450   23.2930   44.5630 N.3   129  TYR129     -0.1241
     10  CA       -18.5630   22.8130   44.6900 C.3   129  TYR129      0.1605
     11  C        -17.5990   23.9530   45.0050 C.2   129  TYR129      0.2264
     12  O        -16.5650   23.7170   45.6310 O.2   129  TYR129     -0.2867
     13  CB       -18.1190   22.0890   43.4150 C.3   129  TYR129      0.0534
     14  CG       -18.5530   20.6400   43.3190 C.ar  129  TYR129     -0.0201
     15  CD1      -19.4850   20.1080   44.2070 C.ar  129  TYR129     -0.0009
     16  CD2      -18.0510   19.8080   42.3240 C.ar  129  TYR129     -0.0009
     17  CE1      -19.8960   18.7810   44.1160 C.ar  129  TYR129      0.0417
     18  CE2      -18.4440   18.4730   42.2310 C.ar  129  TYR129      0.0417
     19  CZ       -19.3670   17.9630   43.1310 C.ar  129  TYR129      0.1957
     20  OH       -19.7720   16.6520   43.0420 O.3   129  TYR129     -0.2866
     21  N         -8.7520   15.8490   49.3420 N.3   171  PHE171     -0.1241
     22  CA        -9.9050   15.7290   48.4500 C.3   171  PHE171      0.1605
     23  C        -10.3280   17.1050   47.9440 C.2   171  PHE171      0.2264
     24  O        -10.5990   17.2520   46.7520 O.2   171  PHE171     -0.2867
     25  CB       -11.0880   15.0260   49.1460 C.3   171  PHE171      0.0534
     26  CG       -12.4160   15.2180   48.4460 C.ar  171  PHE171     -0.0203
     27  CD1      -12.7380   14.4780   47.3150 C.ar  171  PHE171     -0.0042
     28  CD2      -13.3300   16.1590   48.9010 C.ar  171  PHE171     -0.0042
     29  CE1      -13.9520   14.6790   46.6510 C.ar  171  PHE171     -0.0003
     30  CE2      -14.5420   16.3600   48.2360 C.ar  171  PHE171     -0.0003
     31  CZ       -14.8400   15.6260   47.1110 C.ar  171  PHE171     -0.0000
     32  N        -11.2540   19.2640   44.0950 N.3   175  LEU175     -0.1245
     33  CA       -12.6430   19.6520   43.8490 C.3   175  LEU175      0.1561
     34  C        -12.8210   20.6580   42.6750 C.2   175  LEU175      0.2260
     35  O        -13.7340   20.3970   41.8850 O.2   175  LEU175     -0.2867
     36  CB       -13.2990   20.2200   45.1120 C.3   175  LEU175      0.0270
     37  CG       -14.8270   20.3290   45.1240 C.3   175  LEU175      0.0019
     38  CD1      -15.5000   18.9970   44.7770 C.3   175  LEU175      0.0001
     39  CD2      -15.2960   20.7610   46.4770 C.3   175  LEU175      0.0001
     40  N        -13.3040   18.8380   39.2560 N.3   178  TRP178     -0.1241
     41  CA       -14.6120   18.1920   39.0640 C.3   178  TRP178      0.1605
     42  C        -15.7280   19.2260   38.9120 C.2   178  TRP178      0.2264
     43  O        -16.7580   18.9170   38.3140 O.2   178  TRP178     -0.2867
     44  CB       -14.9450   17.2160   40.2170 C.3   178  TRP178      0.0550
     45  CG       -13.9960   16.0570   40.2910 C.ar  178  TRP178      0.0003
     46  CD1      -13.0150   15.8600   41.2200 C.ar  178  TRP178      0.0946
     47  CD2      -13.8390   15.0160   39.3140 C.ar  178  TRP178      0.0152
     48  NE1      -12.2750   14.7450   40.8990 N.ar  178  TRP178     -0.2442
     49  CE2      -12.7660   14.2020   39.7370 C.ar  178  TRP178      0.0810
     50  CE3      -14.5090   14.6860   38.1210 C.ar  178  TRP178      0.0012
     51  CZ2      -12.3530   13.0740   39.0150 C.ar  178  TRP178      0.0191
     52  CZ3      -14.0890   13.5790   37.4020 C.ar  178  TRP178      0.0001
     53  CH2      -13.0100   12.8000   37.8370 C.ar  178  TRP178      0.0015
     54  N        -15.4710   20.4390   35.2010 N.3   181  TYR181     -0.1227
     55  CA       -15.8540   19.2590   34.4160 C.3   181  TYR181      0.1736
     56  C        -17.3760   19.2330   34.2310 C.2   181  TYR181      0.2596
     57  O        -17.8470   19.1260   33.1000 O.2   181  TYR181     -0.2718
     58  CB       -15.3560   17.9670   35.0960 C.3   181  TYR181      0.0548
     59  CG       -15.8040   16.6710   34.4410 C.ar  181  TYR181     -0.0200
     60  CD1      -15.2530   16.2480   33.2350 C.ar  181  TYR181     -0.0009
     61  CD2      -16.7160   15.8280   35.0710 C.ar  181  TYR181     -0.0009
     62  CE1      -15.6320   15.0430   32.6480 C.ar  181  TYR181      0.0417
     63  CE2      -17.1090   14.6240   34.4900 C.ar  181  TYR181      0.0417
     64  CZ       -16.5600   14.2330   33.2800 C.ar  181  TYR181      0.1957
     65  OH       -16.9290   13.0460   32.6970 O.3   181  TYR181     -0.2866
     66  N        -18.1290   19.4250   35.3320 N.am  182  THR182     -0.1953
     67  CA       -19.5930   19.4620   35.3640 C.3   182  THR182      0.1897
     68  C        -20.1250   20.7310   34.6930 C.2   182  THR182      0.2313
     69  O        -21.1650   20.6740   34.0420 O.2   182  THR182     -0.2863
     70  CB       -20.0910   19.3780   36.8100 C.3   182  THR182      0.1794
     71  OG1      -19.2420   18.5100   37.5580 O.3   182  THR182     -0.2208
     72  CG2      -21.5390   18.9140   36.9080 C.3   182  THR182      0.0378
     73  N        -19.7840   17.8520   31.3660 N.3   186  TYR186     -0.1241
     74  CA       -18.9990   16.6120   31.4890 C.3   186  TYR186      0.1605
     75  C        -17.8870   16.5410   30.4010 C.2   186  TYR186      0.2264
     76  O        -17.7050   15.5090   29.7550 O.2   186  TYR186     -0.2867
     77  CB       -19.8810   15.3420   31.4880 C.3   186  TYR186      0.0534
     78  CG       -20.9620   15.3370   32.5510 C.ar  186  TYR186     -0.0201
     79  CD1      -20.6390   15.3080   33.9070 C.ar  186  TYR186     -0.0009
     80  CD2      -22.3090   15.3130   32.2010 C.ar  186  TYR186     -0.0009
     81  CE1      -21.6310   15.3120   34.8870 C.ar  186  TYR186      0.0417
     82  CE2      -23.3090   15.3050   33.1730 C.ar  186  TYR186      0.0417
     83  CZ       -22.9660   15.3090   34.5140 C.ar  186  TYR186      0.1957
     84  OH       -23.9570   15.2850   35.4640 O.3   186  TYR186     -0.2866
     85  N         -9.5660   11.1120   40.1610 N.3   199  SER199     -0.1217
     86  CA       -10.5560   10.0730   40.4430 C.3   199  SER199      0.1889
     87  C        -10.1140    9.2230   41.6400 C.2   199  SER199      0.2288
     88  O        -10.9540    8.7830   42.4300 O.2   199  SER199     -0.2866
     89  CB       -10.7840    9.1910   39.2210 C.3   199  SER199      0.2089
     90  OG       -11.2100    9.9530   38.1020 O.3   199  SER199     -0.2183
     91  N        -10.7920   11.0700   45.0240 N.3   202  VAL202     -0.1231
     92  CA       -12.2050   11.0070   45.4280 C.3   202  VAL202      0.1692
     93  C        -12.4480    9.6500   46.1100 C.2   202  VAL202      0.2592
     94  O        -13.1380    9.5860   47.1240 O.2   202  VAL202     -0.2718
     95  CB       -13.1520   11.2580   44.2150 C.3   202  VAL202      0.0266
     96  CG1      -14.6180   10.9850   44.5550 C.3   202  VAL202      0.0020
     97  CG2      -12.9870   12.6790   43.6780 C.3   202  VAL202      0.0020
     98  N        -11.8480    8.5830   45.5700 N.am  203  SER203     -0.1952
     99  CA       -11.9360    7.2260   46.1060 C.3   203  SER203      0.1924
    100  C        -11.2100    7.1380   47.4630 C.2   203  SER203      0.2314
    101  O        -11.7930    6.6340   48.4280 O.2   203  SER203     -0.2863
    102  CB       -11.3500    6.2300   45.1090 C.3   203  SER203      0.2116
    103  OG       -11.3570    4.9090   45.6230 O.3   203  SER203     -0.2180
    104  N        -12.9270    8.4600   50.7250 N.3   206  LEU206     -0.1231
    105  CA       -13.9240    7.5700   51.3140 C.3   206  LEU206      0.1693
    106  C        -13.2620    6.5150   52.2030 C.2   206  LEU206      0.2592
    107  O        -13.7170    6.3190   53.3270 O.2   206  LEU206     -0.2718
    108  CB       -14.7860    6.8880   50.2250 C.3   206  LEU206      0.0284
    109  CG       -15.6660    5.6930   50.6500 C.3   206  LEU206      0.0019
    110  CD1      -16.7700    6.1000   51.6230 C.3   206  LEU206      0.0001
    111  CD2      -16.2470    4.9950   49.4460 C.3   206  LEU206      0.0001
    112  N        -12.2110    5.8390   51.7090 N.am  207  TYR207     -0.1976
    113  CA       -11.5510    4.7710   52.4550 C.3   207  TYR207      0.1639
    114  C        -10.8310    5.3050   53.7090 C.2   207  TYR207      0.2290
    115  O        -11.1040    4.7980   54.8030 O.2   207  TYR207     -0.2864
    116  CB       -10.5900    3.9910   51.5500 C.3   207  TYR207      0.0560
    117  CG       -11.3300    3.1330   50.5500 C.ar  207  TYR207     -0.0198
    118  CD1      -11.8820    1.9120   50.9250 C.ar  207  TYR207     -0.0009
    119  CD2      -11.5000    3.5500   49.2330 C.ar  207  TYR207     -0.0009
    120  CE1      -12.5740    1.1190   50.0100 C.ar  207  TYR207      0.0417
    121  CE2      -12.1910    2.7650   48.3080 C.ar  207  TYR207      0.0417
    122  CZ       -12.7270    1.5490   48.7020 C.ar  207  TYR207      0.1957
    123  OH       -13.4210    0.7680   47.8090 O.3   207  TYR207     -0.2866
    124  N         -7.6380    0.7700   41.6820 N.3   256  PRO256     -0.2102
    125  CA        -8.4150    0.5880   40.4340 C.3   256  PRO256      0.1504
    126  C         -8.6180    1.8750   39.6320 C.2   256  PRO256      0.2575
    127  O         -8.5180    1.8260   38.4100 O.2   256  PRO256     -0.2718
    128  CB        -9.7750    0.0570   40.9160 C.3   256  PRO256      0.0282
    129  CG        -9.7620    0.1560   42.3980 C.3   256  PRO256      0.0208
    130  CD        -8.3350    0.1260   42.8160 C.3   256  PRO256      0.0893
    131  N         -8.8700    3.0190   40.3170 N.am  257  ALA257     -0.1980
    132  CA        -9.0570    4.3480   39.7180 C.3   257  ALA257      0.1597
    133  C         -7.8130    4.8030   38.9610 C.2   257  ALA257      0.2287
    134  O         -7.9380    5.4760   37.9440 O.2   257  ALA257     -0.2864
    135  CB        -9.3990    5.3640   40.7950 C.3   257  ALA257      0.0319
    136  N         -9.2360    4.1640   35.0360 N.3   261  ARG261     -0.1245
    137  CA        -9.7810    5.4700   34.6420 C.3   261  ARG261      0.1563
    138  C         -8.9560    6.0460   33.5080 C.2   261  ARG261      0.2260
    139  O         -7.7250    6.0320   33.5740 O.2   261  ARG261     -0.2867
    140  CB        -9.8510    6.4710   35.8080 C.3   261  ARG261      0.0307
    141  CG       -11.0610    6.3080   36.7130 C.3   261  ARG261      0.0489
    142  CD       -12.2010    7.2290   36.3230 C.3   261  ARG261      0.2205
    143  NE       -13.3670    6.9980   37.1720 N.pl3 261  ARG261     -0.0865
    144  CZ       -14.2720    7.9180   37.4840 C.cat 261  ARG261      0.5346
    145  NH1      -14.1530    9.1580   37.0260 N.pl3 261  ARG261      0.1354
    146  NH2      -15.3000    7.6080   38.2640 N.pl3 261  ARG261      0.1354
    147  N        -14.0290   11.7990   31.5740 N.3   270  CYS270     -0.1221
    148  CA       -13.1210   11.0940   32.4750 C.3   270  CYS270      0.1808
    149  C        -13.9280    9.9930   33.1520 C.2   270  CYS270      0.2601
    150  O        -14.6640   10.2570   34.1130 O.2   270  CYS270     -0.2717
    151  CB       -12.4810   12.0550   33.4720 C.3   270  CYS270      0.0970
    152  SG       -11.4820   11.2500   34.7460 S.3   270  CYS270     -0.0800
    153  N        -13.8730    8.7800   32.5780 N.am  271  ALA271     -0.1965
    154  CA       -14.6790    7.6610   33.0470 C.3   271  ALA271      0.1728
    155  C        -13.8720    6.3830   33.2790 C.2   271  ALA271      0.2616
    156  O        -12.7210    6.2640   32.8520 O.2   271  ALA271     -0.2715
    157  CB       -15.7880    7.3780   32.0440 C.3   271  ALA271      0.0334
    158  N        -14.5070    5.4340   33.9840 N.am  272  PHE272     -0.1974
    159  CA       -13.9750    4.1230   34.3240 C.3   272  PHE272      0.1639
    160  C        -14.2690    3.1480   33.1880 C.2   272  PHE272      0.2290
    161  O        -15.3840    3.1560   32.6600 O.2   272  PHE272     -0.2864
    162  CB       -14.6210    3.6520   35.6410 C.3   272  PHE272      0.0560
    163  CG       -13.9380    2.4960   36.3270 C.ar  272  PHE272     -0.0200
    164  CD1      -14.2040    1.1840   35.9480 C.ar  272  PHE272     -0.0042
    165  CD2      -13.0560    2.7140   37.3760 C.ar  272  PHE272     -0.0042
    166  CE1      -13.5700    0.1150   36.5810 C.ar  272  PHE272     -0.0003
    167  CE2      -12.4340    1.6430   38.0210 C.ar  272  PHE272     -0.0003
    168  CZ       -12.6980    0.3510   37.6220 C.ar  272  PHE272     -0.0000
    169  N        -16.6910   -4.1350   47.8910 N.3   285  LYS285     -0.1245
    170  CA       -16.5090   -2.7810   48.4360 C.3   285  LYS285      0.1561
    171  C        -17.5440   -2.4460   49.5210 C.2   285  LYS285      0.2260
    172  O        -17.1950   -1.7660   50.4790 O.2   285  LYS285     -0.2867
    173  CB       -16.5720   -1.7180   47.3270 C.3   285  LYS285      0.0271
    174  CG       -15.3680   -1.6860   46.3830 C.3   285  LYS285      0.0035
    175  CD       -15.6140   -0.7480   45.2100 C.3   285  LYS285      0.0206
    176  CE       -15.1570   -1.2900   43.8800 C.3   285  LYS285      0.1093
    177  NZ       -13.8800   -2.0340   43.9780 N.3   285  LYS285     -0.1314
    178  N        -24.1930    9.4820   52.9990 N.3   329  TRP329     -0.1241
    179  CA       -23.7950    8.4870   52.0050 C.3   329  TRP329      0.1605
    180  C        -24.9760    7.5920   51.5800 C.2   329  TRP329      0.2264
    181  O        -24.8770    6.9470   50.5330 O.2   329  TRP329     -0.2867
    182  CB       -22.6380    7.6180   52.5230 C.3   329  TRP329      0.0550
    183  CG       -21.2770    8.1390   52.1750 C.ar  329  TRP329      0.0003
    184  CD1      -20.4650    8.9020   52.9600 C.ar  329  TRP329      0.0946
    185  CD2      -20.5660    7.9300   50.9460 C.ar  329  TRP329      0.0152
    186  NE1      -19.2940    9.1890   52.2960 N.ar  329  TRP329     -0.2442
    187  CE2      -19.3370    8.6200   51.0500 C.ar  329  TRP329      0.0810
    188  CE3      -20.8620    7.2550   49.7500 C.ar  329  TRP329      0.0012
    189  CZ2      -18.4070    8.6560   50.0040 C.ar  329  TRP329      0.0191
    190  CZ3      -19.9340    7.2840   48.7180 C.ar  329  TRP329      0.0001
    191  CH2      -18.7170    7.9630   48.8560 C.ar  329  TRP329      0.0015
    192  N        -26.5840    8.3810   47.9430 N.3   332  HIS332     -0.1241
    193  CA       -25.6780    7.8850   46.9080 C.3   332  HIS332      0.1621
    194  C        -25.6260    6.3530   46.8980 C.2   332  HIS332      0.2264
    195  O        -25.5530    5.7820   45.8100 O.2   332  HIS332     -0.2867
    196  CB       -24.2640    8.4750   47.0540 C.3   332  HIS332      0.0745
    197  CG       -23.4320    8.3370   45.8130 C.ar  332  HIS332      0.0817
    198  ND1      -23.7020    9.0820   44.6780 N.ar  332  HIS332     -0.2268
    199  CD2      -22.3580    7.5490   45.5710 C.ar  332  HIS332      0.1154
    200  CE1      -22.8030    8.7110   43.7800 C.ar  332  HIS332      0.1986
    201  NE2      -21.9720    7.7930   44.2700 N.ar  332  HIS332     -0.2212
    202  N        -25.1980   13.2190   40.4070 N.3   361  PRO361     -0.2116
    203  CA       -24.2970   14.3590   40.7060 C.3   361  PRO361      0.1372
    204  C        -24.6590   15.0900   42.0130 C.2   361  PRO361      0.2244
    205  O        -23.7760   15.6360   42.6770 O.2   361  PRO361     -0.2868
    206  CB       -24.4810   15.2900   39.5010 C.3   361  PRO361      0.0268
    207  CG       -25.8010   14.9320   38.9350 C.3   361  PRO361      0.0207
    208  CD       -25.9440   13.4570   39.1510 C.3   361  PRO361      0.0892
    209  N        -23.6220   12.4980   45.0380 N.3   364  ILE364     -0.1245
    210  CA       -22.1640   12.4030   45.2360 C.3   364  ILE364      0.1561
    211  C        -21.6640   13.7120   45.9130 C.2   364  ILE364      0.2260
    212  O        -20.6370   13.6960   46.5930 O.2   364  ILE364     -0.2867
    213  CB       -21.3900   12.0630   43.9070 C.3   364  ILE364      0.0252
    214  CG1      -19.9640   11.5250   44.1930 C.3   364  ILE364      0.0019
    215  CG2      -21.3880   13.2120   42.8800 C.3   364  ILE364      0.0019
    216  CD1      -19.3380   10.6920   43.0990 C.3   364  ILE364      0.0001
    217  N        -19.9320   13.7850   49.7980 N.3   368  TYR368     -0.1241
    218  CA       -18.6050   14.3930   49.9110 C.3   368  TYR368      0.1605
    219  C        -18.7000   15.8230   50.5460 C.2   368  TYR368      0.2264
    220  O        -17.6730   16.4920   50.7270 O.2   368  TYR368     -0.2867
    221  CB       -17.8900   14.4060   48.5470 C.3   368  TYR368      0.0534
    222  CG       -17.2730   13.0610   48.2270 C.ar  368  TYR368     -0.0201
    223  CD1      -17.9730   12.1050   47.4950 C.ar  368  TYR368     -0.0009
    224  CD2      -16.0290   12.7030   48.7420 C.ar  368  TYR368     -0.0009
    225  CE1      -17.4370   10.8420   47.2520 C.ar  368  TYR368      0.0417
    226  CE2      -15.4820   11.4420   48.5030 C.ar  368  TYR368      0.0417
    227  CZ       -16.1920   10.5130   47.7620 C.ar  368  TYR368      0.1957
    228  OH       -15.6610    9.2710   47.5210 O.3   368  TYR368     -0.2866
@<TRIPOS>BOND
     1    76    75    2
     2    75    74    1
     3    73    74    1
     4    77    74    1
     5    77    78    1
     6   147   148    1
     7   157   154    1
     8    80    78   ar
     9    80    82   ar
    10   148   149    1
    11   148   151    1
    12    78    79   ar
    13   153   154    1
    14   153   149   am
    15    62    60   ar
    16    62    64   ar
    17   161   160    2
    18    65    64    1
    19   156   155    2
    20   154   155    1
    21    57    56    2
    22   149   150    2
    23    82    83   ar
    24   160   159    1
    25    60    59   ar
    26   155   158   am
    27    64    63   ar
    28   151   152    1
    29   138   139    2
    30   138   137    1
    31    79    81   ar
    32   158   159    1
    33    69    68    2
    34    56    55    1
    35    56    66   am
    36   159   162    1
    37    55    58    1
    38    55    54    1
    39    59    61   ar
    40    59    58    1
    41    63    61   ar
    42    83    81   ar
    43    83    84    1
    44   137   136    1
    45   137   140    1
    46    68    67    1
    47    66    67    1
    48    67    70    1
    49   162   163    1
    50   140   141    1
    51   164   163   ar
    52   164   166   ar
    53   142   141    1
    54   142   143    1
    55   163   165   ar
    56   166   168   ar
    57    70    72    1
    58    70    71    1
    59   145   144    1
    60   143   144    2
    61   165   167   ar
    62    52    53   ar
    63    52    50   ar
    64   144   146    1
    65   168   167   ar
    66    53    51   ar
    67   134   133    2
    68    90    89    1
    69    50    47   ar
    70    43    42    2
    71   127   126    2
    72    42    41    1
    73   207   208    1
    74   207   206    1
    75   133   132    1
    76    51    49   ar
    77    41    40    1
    78    41    44    1
    79   208   202    1
    80    89    86    1
    81    47    49   ar
    82    47    45   ar
    83   206   203    1
    84   126   131   am
    85   126   125    1
    86   132   131    1
    87   132   135    1
    88    49    48   ar
    89    85    86    1
    90    44    45    1
    91    45    46   ar
    92     6     5    1
    93     6     8    1
    94     5     7    1
    95     5     2    1
    96   202   203    1
    97   125   128    1
    98   125   124    1
    99    86    87    1
   100     1     2    1
   101   203   204    1
   102    48    46   ar
   103   128   129    1
   104     2     3    1
   105     3     4    2
   106    87    88    2
   107   124   130    1
   108    35    34    2
   109   204   205    2
   110    18    16   ar
   111    18    19   ar
   112    16    14   ar
   113   129   130    1
   114    34    33    1
   115   215   213    1
   116    20    19    1
   117   216   214    1
   118    19    17   ar
   119    14    13    1
   120    14    15   ar
   121    13    10    1
   122    97    95    1
   123   200   201   ar
   124   200   198   ar
   125    33    32    1
   126    33    36    1
   127   176   177    1
   128   176   175    1
   129   213   214    1
   130   213   210    1
   131    17    15   ar
   132    95    96    1
   133    95    92    1
   134   201   199   ar
   135     9    10    1
   136   198   197   ar
   137    10    11    1
   138    38    37    1
   139    11    12    2
   140    91    92    1
   141   209   210    1
   142   102   103    1
   143   102    99    1
   144    36    37    1
   145    37    39    1
   146   175   174    1
   147   210   211    1
   148    92    93    1
   149    98    99    1
   150    98    93   am
   151   199   197   ar
   152   195   194    2
   153   197   196    1
   154   211   212    2
   155    99   100    1
   156    93    94    2
   157   174   173    1
   158    29    31   ar
   159    29    27   ar
   160    24    23    2
   161   194   193    1
   162   193   196    1
   163   193   192    1
   164    31    30   ar
   165   225   223   ar
   166   225   227   ar
   167    27    26   ar
   168   173   170    1
   169   100   101    2
   170   223   222   ar
   171   228   227    1
   172   227   226   ar
   173   123   122    1
   174   169   170    1
   175    23    22    1
   176   222   221    1
   177   222   224   ar
   178    30    28   ar
   179   121   122   ar
   180   121   119   ar
   181   170   171    1
   182    26    28   ar
   183    26    25    1
   184    22    25    1
   185    22    21    1
   186   226   224   ar
   187   221   218    1
   188   122   120   ar
   189   190   191   ar
   190   190   188   ar
   191   191   189   ar
   192   119   117   ar
   193   111   109    1
   194   171   172    2
   195   188   185   ar
   196   217   218    1
   197   218   219    1
   198   189   187   ar
   199   120   118   ar
   200   108   109    1
   201   108   105    1
   202   181   180    2
   203   219   220    2
   204   117   118   ar
   205   117   116    1
   206   109   110    1
   207   104   105    1
   208   185   187   ar
   209   185   183   ar
   210   187   186   ar
   211   105   106    1
   212   116   113    1
   213   180   179    1
   214   112   106   am
   215   112   113    1
   216   179   182    1
   217   179   178    1
   218   183   182    1
   219   183   184   ar
   220   106   107    2
   221   186   184   ar
   222   113   114    1
   223   114   115    2
