@<TRIPOS>MOLECULE
tmp/4yb4B03.pdb
 181 175 0 0 0
SMALL
GASTEIGER

@<TRIPOS>ATOM
      1  N        -17.3170  -63.2070  -45.6660 N.3    12  ILE12      -0.1245
      2  CA       -17.1320  -63.3100  -47.1110 C.3    12  ILE12       0.1561
      3  C        -15.6710  -63.2220  -47.5460 C.2    12  ILE12       0.2260
      4  O        -15.3730  -63.3820  -48.7320 O.2    12  ILE12      -0.2867
      5  CB       -17.9960  -62.3050  -47.9120 C.3    12  ILE12       0.0252
      6  CG1      -17.5850  -60.8380  -47.6480 C.3    12  ILE12       0.0019
      7  CG2      -19.4570  -62.5280  -47.5800 C.3    12  ILE12       0.0019
      8  CD1      -18.1160  -59.8620  -48.6820 C.3    12  ILE12       0.0001
      9  N         -5.7190  -59.1900  -48.2980 N.3    66  PHE66      -0.1241
     10  CA        -6.5160  -59.4980  -47.1140 C.3    66  PHE66       0.1605
     11  C         -7.9810  -59.4070  -47.4730 C.2    66  PHE66       0.2264
     12  O         -8.3930  -58.5420  -48.2490 O.2    66  PHE66      -0.2867
     13  CB        -6.1630  -58.5130  -45.9870 C.3    66  PHE66       0.0534
     14  CG        -7.0420  -58.6010  -44.7760 C.ar   66  PHE66      -0.0203
     15  CD1       -6.9480  -59.6640  -43.9080 C.ar   66  PHE66      -0.0042
     16  CD2       -7.9230  -57.5870  -44.4680 C.ar   66  PHE66      -0.0042
     17  CE1       -7.7420  -59.7300  -42.7700 C.ar   66  PHE66      -0.0003
     18  CE2       -8.7230  -57.6360  -43.3330 C.ar   66  PHE66      -0.0003
     19  CZ        -8.6350  -58.7090  -42.4840 C.ar   66  PHE66      -0.0000
     20  N        -11.2620  -59.6400  -45.0380 N.3    68  ALA68      -0.1231
     21  CA       -11.9460  -58.7660  -44.0850 C.3    68  ALA68       0.1694
     22  C        -12.1180  -59.5410  -42.8040 C.2    68  ALA68       0.2592
     23  O        -11.9720  -60.7490  -42.7930 O.2    68  ALA68      -0.2718
     24  CB       -13.3060  -58.3330  -44.6040 C.3    68  ALA68       0.0304
     25  N        -12.4160  -58.8460  -41.7170 N.am   69  ALA69      -0.1966
     26  CA       -12.5800  -59.4970  -40.4210 C.3    69  ALA69       0.1728
     27  C        -13.6870  -58.8400  -39.6280 C.2    69  ALA69       0.2617
     28  O        -13.8240  -57.6310  -39.6640 O.2    69  ALA69      -0.2715
     29  CB       -11.2830  -59.4360  -39.6410 C.3    69  ALA69       0.0334
     30  N        -14.4550  -59.6380  -38.8940 N.am   70  THR70      -0.1937
     31  CA       -15.4970  -59.1040  -38.0400 C.3    70  THR70       0.2028
     32  C        -14.9060  -58.5910  -36.7290 C.2    70  THR70       0.2642
     33  O        -13.9660  -59.1820  -36.1850 O.2    70  THR70      -0.2714
     34  CB       -16.5580  -60.1520  -37.7540 C.3    70  THR70       0.1808
     35  OG1      -17.0500  -60.6540  -38.9970 O.3    70  THR70      -0.2208
     36  CG2      -17.7100  -59.5490  -36.9590 C.3    70  THR70       0.0379
     37  N        -15.4500  -57.4660  -36.2650 N.am   71  SER71      -0.1949
     38  CA       -15.1210  -56.8680  -34.9700 C.3    71  SER71       0.1924
     39  C        -16.3980  -56.7620  -34.1370 C.2    71  SER71       0.2314
     40  O        -17.4330  -56.3750  -34.6580 O.2    71  SER71      -0.2863
     41  CB       -14.5260  -55.4680  -35.1630 C.3    71  SER71       0.2116
     42  OG       -13.1470  -55.5280  -35.5060 O.3    71  SER71      -0.2180
     43  N         -7.4100  -55.8650  -38.5200 N.3    83  ILE83      -0.1245
     44  CA        -6.8900  -55.0450  -39.5810 C.3    83  ILE83       0.1561
     45  C         -6.3060  -53.7720  -39.0070 C.2    83  ILE83       0.2260
     46  O         -5.2580  -53.3340  -39.4710 O.2    83  ILE83      -0.2867
     47  CB        -7.8700  -54.7390  -40.7340 C.3    83  ILE83       0.0252
     48  CG1       -7.1050  -54.0750  -41.8890 C.3    83  ILE83       0.0019
     49  CG2       -8.9820  -53.7870  -40.3290 C.3    83  ILE83       0.0019
     50  CD1       -6.0200  -54.9280  -42.5200 C.3    83  ILE83       0.0001
     51  N         -2.4370  -52.2480  -39.3540 N.3    87  ARG87      -0.1245
     52  CA        -2.1870  -50.9090  -39.8690 C.3    87  ARG87       0.1563
     53  C         -1.2250  -50.1370  -38.9660 C.2    87  ARG87       0.2260
     54  O         -0.3390  -49.4200  -39.4610 O.2    87  ARG87      -0.2867
     55  CB        -3.4900  -50.1030  -40.0030 C.3    87  ARG87       0.0307
     56  CG        -4.4760  -50.6580  -41.0140 C.3    87  ARG87       0.0489
     57  CD        -5.7900  -49.8760  -41.0250 C.3    87  ARG87       0.2205
     58  NE        -6.6840  -50.3830  -42.0590 N.pl3  87  ARG87      -0.0865
     59  CZ        -7.9920  -50.1360  -42.1490 C.cat  87  ARG87       0.5346
     60  NH1       -8.6160  -49.3680  -41.2550 N.pl3  87  ARG87       0.1354
     61  NH2       -8.6910  -50.6860  -43.1380 N.pl3  87  ARG87       0.1354
     62  N        -16.8690  -45.1610  -47.9970 N.3   231  ASP231     -0.1239
     63  CA       -18.0950  -45.9820  -48.1640 C.3   231  ASP231      0.1674
     64  C        -19.1250  -45.2250  -48.9830 C.2   231  ASP231      0.2266
     65  O        -19.7850  -45.7960  -49.8610 O.2   231  ASP231     -0.2867
     66  CB       -18.7180  -46.4320  -46.8280 C.3   231  ASP231      0.1410
     67  CG       -18.2850  -47.8630  -46.3990 C.2   231  ASP231      0.3668
     68  OD1      -17.1320  -48.2740  -46.7110 O.co2 231  ASP231     -0.2456
     69  OD2      -19.0900  -48.5720  -45.7240 O.co2 231  ASP231     -0.2456
     70  N        -20.2360  -51.5200  -52.5640 N.3   240  LEU240     -0.1231
     71  CA       -19.1100  -52.1610  -51.9090 C.3   240  LEU240      0.1693
     72  C        -18.6460  -53.4790  -52.5460 C.2   240  LEU240      0.2592
     73  O        -17.5380  -53.9490  -52.2430 O.2   240  LEU240     -0.2718
     74  CB       -19.4020  -52.3610  -50.4190 C.3   240  LEU240      0.0284
     75  CG       -19.3180  -51.0860  -49.5630 C.3   240  LEU240      0.0019
     76  CD1      -19.8060  -51.3710  -48.1480 C.3   240  LEU240      0.0001
     77  CD2      -17.9130  -50.5090  -49.5100 C.3   240  LEU240      0.0001
     78  N        -19.4590  -54.0620  -53.4220 N.am  241  GLY241     -0.1957
     79  CA       -19.0130  -55.2110  -54.1700 C.3   241  GLY241      0.1869
     80  C        -17.8770  -54.8750  -55.1220 C.2   241  GLY241      0.2309
     81  O        -17.2300  -55.7770  -55.6270 O.2   241  GLY241     -0.2863
     82  N         -6.8060  -54.8560  -49.7420 N.3   256  GLU256     -0.1231
     83  CA        -8.0420  -55.4140  -49.2380 C.3   256  GLU256      0.1684
     84  C         -9.2330  -54.6290  -49.7790 C.2   256  GLU256      0.2434
     85  O         -9.1140  -53.4480  -50.0540 O.2   256  GLU256     -0.2733
     86  CB        -8.0530  -55.3760  -47.6990 C.3   256  GLU256      0.0402
     87  CG        -7.9050  -53.9720  -47.1340 C.3   256  GLU256      0.1161
     88  CD        -8.4680  -53.7990  -45.7320 C.2   256  GLU256      0.3649
     89  OE1       -9.3290  -54.6230  -45.3210 O.co2 256  GLU256     -0.2457
     90  OE2       -8.0380  -52.8310  -45.0330 O.co2 256  GLU256     -0.2457
     91  N        -10.3980  -55.2850  -49.9000 N.am  257  PRO257     -0.2718
     92  CA       -11.6200  -54.5400  -50.2080 C.3   257  PRO257      0.1535
     93  C        -11.8920  -53.5310  -49.1280 C.2   257  PRO257      0.2598
     94  O        -11.5260  -53.7520  -47.9780 O.2   257  PRO257     -0.2715
     95  CB       -12.7300  -55.6150  -50.1520 C.3   257  PRO257      0.0310
     96  CG       -12.0240  -56.9200  -50.2340 C.3   257  PRO257      0.0237
     97  CD       -10.6860  -56.6950  -49.5930 C.3   257  PRO257      0.0939
     98  N        -12.5350  -52.4450  -49.5050 N.am  258  VAL258     -0.1964
     99  CA       -13.1130  -51.5020  -48.5470 C.3   258  VAL258      0.1727
    100  C        -14.1720  -52.2140  -47.6710 C.2   258  VAL258      0.2616
    101  O        -14.3440  -51.9090  -46.4940 O.2   258  VAL258     -0.2715
    102  CB       -13.7620  -50.3190  -49.3180 C.3   258  VAL258      0.0290
    103  CG1      -14.5510  -49.4220  -48.3840 C.3   258  VAL258      0.0023
    104  CG2      -12.7150  -49.5130  -50.0940 C.3   258  VAL258      0.0023
    105  N        -14.8860  -53.1670  -48.2570 N.am  259  HIS259     -0.1959
    106  CA       -15.9840  -53.8250  -47.5570 C.3   259  HIS259      0.1787
    107  C        -15.4910  -54.7130  -46.4120 C.2   259  HIS259      0.2621
    108  O        -14.3160  -55.0870  -46.3670 O.2   259  HIS259     -0.2715
    109  CB       -16.8410  -54.6130  -48.5290 C.3   259  HIS259      0.0785
    110  CG       -16.2140  -55.8830  -49.0220 C.ar  259  HIS259      0.0821
    111  ND1      -15.9730  -56.1230  -50.3590 N.ar  259  HIS259     -0.2267
    112  CD2      -15.8450  -57.0110  -48.3680 C.ar  259  HIS259      0.1154
    113  CE1      -15.4620  -57.3310  -50.5030 C.ar  259  HIS259      0.1986
    114  NE2      -15.3820  -57.8960  -49.3110 N.ar  259  HIS259     -0.2212
    115  N        -16.3960  -55.0340  -45.4920 N.am  260  GLY260     -0.1940
    116  CA       -16.1050  -55.9150  -44.3860 C.3   260  GLY260      0.2014
    117  C        -16.4530  -57.3590  -44.6240 C.2   260  GLY260      0.2640
    118  O        -16.5070  -57.8250  -45.7670 O.2   260  GLY260     -0.2714
    119  N        -16.7090  -58.0720  -43.5270 N.am  261  SER261     -0.1935
    120  CA       -17.0410  -59.4850  -43.5790 C.3   261  SER261      0.2055
    121  C        -18.4750  -59.7700  -44.0860 C.2   261  SER261      0.2643
    122  O        -18.8500  -60.9310  -44.2530 O.2   261  SER261     -0.2714
    123  CB       -16.8060  -60.1210  -42.2070 C.3   261  SER261      0.2130
    124  OG       -17.5500  -59.4680  -41.2000 O.3   261  SER261     -0.2179
    125  N        -19.2710  -58.7370  -44.3240 N.am  262  ALA262     -0.1963
    126  CA       -20.6280  -58.9200  -44.8620 C.3   262  ALA262      0.1713
    127  C        -21.3510  -60.1610  -44.2950 C.2   262  ALA262      0.2458
    128  O        -21.7490  -61.0790  -45.0290 O.2   262  ALA262     -0.2730
    129  CB       -20.5940  -58.9590  -46.3820 C.3   262  ALA262      0.0333
    130  N        -21.5490  -60.1800  -42.9800 N.am  263  PRO263     -0.2716
    131  CA       -22.1720  -61.3500  -42.3540 C.3   263  PRO263      0.1536
    132  C        -23.6280  -61.5890  -42.7930 C.2   263  PRO263      0.2599
    133  O        -24.1040  -62.7260  -42.7630 O.2   263  PRO263     -0.2715
    134  CB       -22.0680  -61.0480  -40.8600 C.3   263  PRO263      0.0310
    135  CG       -21.9790  -59.5520  -40.7760 C.3   263  PRO263      0.0237
    136  CD       -21.2990  -59.0860  -42.0270 C.3   263  PRO263      0.0939
    137  N        -24.3110  -60.5560  -43.2550 N.am  264  ASP264     -0.1958
    138  CA       -25.6690  -60.7460  -43.7570 C.3   264  ASP264      0.1840
    139  C        -25.7400  -61.6590  -45.0270 C.2   264  ASP264      0.2621
    140  O        -26.7790  -62.2550  -45.3050 O.2   264  ASP264     -0.2715
    141  CB       -26.3610  -59.3870  -43.9690 C.3   264  ASP264      0.1450
    142  CG       -25.6710  -58.5130  -45.0200 C.2   264  ASP264      0.3671
    143  OD1      -24.4820  -58.7690  -45.3560 O.co2 264  ASP264     -0.2456
    144  OD2      -26.3340  -57.5650  -45.5140 O.co2 264  ASP264     -0.2456
    145  N        -24.6390  -61.7670  -45.7820 N.am  265  ILE265     -0.1977
    146  CA       -24.5830  -62.6680  -46.9440 C.3   265  ILE265      0.1596
    147  C        -23.4780  -63.7370  -46.9160 C.2   265  ILE265      0.2287
    148  O        -23.3670  -64.5110  -47.8420 O.2   265  ILE265     -0.2864
    149  CB       -24.4490  -61.8760  -48.2580 C.3   265  ILE265      0.0276
    150  CG1      -23.0850  -61.1670  -48.3270 C.3   265  ILE265      0.0022
    151  CG2      -25.6150  -60.9130  -48.4040 C.3   265  ILE265      0.0022
    152  CD1      -22.8210  -60.4410  -49.6220 C.3   265  ILE265      0.0001
    153  N        -23.0160  -65.7730  -53.0530 N.3   270  ILE270     -0.1231
    154  CA       -23.3230  -64.6680  -53.9800 C.3   270  ILE270      0.1692
    155  C        -22.4750  -63.4000  -53.8550 C.2   270  ILE270      0.2592
    156  O        -22.6510  -62.4790  -54.6510 O.2   270  ILE270     -0.2718
    157  CB       -24.7900  -64.1890  -53.8320 C.3   270  ILE270      0.0266
    158  CG1      -25.1010  -63.8350  -52.3750 C.3   270  ILE270      0.0019
    159  CG2      -25.7360  -65.2380  -54.3620 C.3   270  ILE270      0.0020
    160  CD1      -26.3940  -63.0920  -52.2120 C.3   270  ILE270      0.0001
    161  N        -21.6130  -63.3260  -52.8490 N.am  271  ALA271     -0.1966
    162  CA       -20.7760  -62.1470  -52.6530 C.3   271  ALA271      0.1728
    163  C        -19.9880  -61.7820  -53.9330 C.2   271  ALA271      0.2616
    164  O        -19.4710  -62.6580  -54.6430 O.2   271  ALA271     -0.2715
    165  CB       -19.8290  -62.3840  -51.5070 C.3   271  ALA271      0.0334
    166  N        -19.9280  -60.4880  -54.2250 N.am  272  ASN272     -0.1972
    167  CA       -19.2140  -59.9710  -55.3690 C.3   272  ASN272      0.1688
    168  C        -17.7310  -59.9180  -55.0540 C.2   272  ASN272      0.2292
    169  O        -17.3170  -59.2040  -54.1350 O.2   272  ASN272     -0.2864
    170  CB       -19.7210  -58.5610  -55.6790 C.3   272  ASN272      0.1181
    171  CG       -19.2220  -58.0210  -56.9990 C.2   272  ASN272      0.2629
    172  OD1      -18.2650  -58.5320  -57.5940 O.2   272  ASN272     -0.2716
    173  ND2      -19.8760  -56.9560  -57.4700 N.am  272  ASN272     -0.0877
    174  N        -25.8570  -58.0470  -56.1110 N.3   312  ASP312     -0.1239
    175  CA       -25.6280  -56.6430  -55.7290 C.3   312  ASP312      0.1674
    176  C        -25.6280  -55.7020  -56.9320 C.2   312  ASP312      0.2266
    177  O        -25.7920  -54.4950  -56.7740 O.2   312  ASP312     -0.2867
    178  CB       -24.3290  -56.4780  -54.9290 C.3   312  ASP312      0.1410
    179  CG       -23.1020  -56.9580  -55.6930 C.2   312  ASP312      0.3668
    180  OD1      -23.0780  -58.1680  -56.0300 O.co2 312  ASP312     -0.2456
    181  OD2      -22.1770  -56.1320  -55.9470 O.co2 312  ASP312     -0.2456
@<TRIPOS>BOND
     1   172   171    2
     2   173   171   am
     3   171   170    1
     4   176   177    2
     5   176   175    1
     6   174   175    1
     7   180   179   ar
     8   181   179   ar
     9   175   178    1
    10   179   178    1
    11   170   167    1
    12    81    80    2
    13   167   168    1
    14   167   166    1
    15    80    79    1
    16   168   169    2
    17   156   155    2
    18   164   163    2
    19   159   157    1
    20   166   163   am
    21    79    78    1
    22   154   155    1
    23   154   157    1
    24   154   153    1
    25   163   162    1
    26   155   161   am
    27   157   158    1
    28    78    72   am
    29   161   162    1
    30   162   165    1
    31    70    71    1
    32    72    73    2
    33    72    71    1
    34   158   160    1
    35    71    74    1
    36   113   111   ar
    37   113   114   ar
    38    74    75    1
    39   111   110   ar
    40    96    95    1
    41    96    97    1
    42    92    95    1
    43    92    91    1
    44    92    93    1
    45   104   102    1
    46    85    84    2
    47    91    84   am
    48    91    97    1
    49    65    64    2
    50    84    83    1
    51    82    83    1
    52   152   150    1
    53    75    77    1
    54    75    76    1
    55    98    93   am
    56    98    99    1
    57   102    99    1
    58   102   103    1
    59   114   112   ar
    60    83    86    1
    61    93    94    2
    62   110   109    1
    63   110   112   ar
    64    64    63    1
    65     4     3    2
    66     8     6    1
    67    99   100    1
    68   109   106    1
    69   151   149    1
    70   150   149    1
    71     9    10    1
    72   149   146    1
    73   105   100   am
    74   105   106    1
    75    12    11    2
    76    63    62    1
    77    63    66    1
    78     5     6    1
    79     5     7    1
    80     5     2    1
    81   148   147    2
    82    86    87    1
    83   100   101    2
    84   106   107    1
    85     3     2    1
    86    11    10    1
    87    87    88    1
    88    10    13    1
    89     2     1    1
    90   146   147    1
    91   146   145    1
    92    66    67    1
    93    68    67   ar
    94   107   108    2
    95   107   115   am
    96    67    69   ar
    97   129   126    1
    98    13    14    1
    99   145   139   am
   100   118   117    2
   101    88    89   ar
   102    88    90   ar
   103   144   142   ar
   104   115   116    1
   105   143   142   ar
   106   140   139    2
   107    20    21    1
   108   128   127    2
   109   139   138    1
   110   142   141    1
   111   126   125    1
   112   126   127    1
   113    14    16   ar
   114    14    15   ar
   115   117   116    1
   116   117   119   am
   117    24    21    1
   118    16    18   ar
   119   125   121   am
   120   127   130   am
   121   122   121    2
   122   121   120    1
   123    21    22    1
   124   141   138    1
   125    15    17   ar
   126   138   137    1
   127   120   119    1
   128   120   123    1
   129    18    19   ar
   130   137   132   am
   131    61    59    1
   132   130   131    1
   133   130   136    1
   134    22    23    2
   135    22    25   am
   136   132   133    2
   137   132   131    1
   138    17    19   ar
   139    50    48    1
   140   131   134    1
   141   123   124    1
   142    59    58    2
   143    59    60    1
   144    58    57    1
   145   136   135    1
   146    48    47    1
   147    25    26    1
   148    57    56    1
   149    56    55    1
   150   134   135    1
   151    47    49    1
   152    47    44    1
   153    26    29    1
   154    26    27    1
   155    55    52    1
   156    52    51    1
   157    52    53    1
   158    28    27    2
   159    27    30   am
   160    44    45    1
   161    44    43    1
   162    46    45    2
   163    54    53    2
   164    35    34    1
   165    30    31    1
   166    31    34    1
   167    31    32    1
   168    34    36    1
   169    32    37   am
   170    32    33    2
   171    37    38    1
   172    42    41    1
   173    41    38    1
   174    38    39    1
   175    40    39    2
