@<TRIPOS>MOLECULE
tmp/4yb4B02.pdb
 115 103 0 0 0
SMALL
GASTEIGER

@<TRIPOS>ATOM
      1  N        -12.4160  -58.8460  -41.7170 N.3    69  ALA69      -0.1245
      2  CA       -12.5800  -59.4970  -40.4210 C.3    69  ALA69       0.1562
      3  C        -13.6870  -58.8400  -39.6280 C.2    69  ALA69       0.2260
      4  O        -13.8240  -57.6310  -39.6640 O.2    69  ALA69      -0.2867
      5  CB       -11.2830  -59.4360  -39.6410 C.3    69  ALA69       0.0290
      6  N        -15.4500  -57.4660  -36.2650 N.3    71  SER71      -0.1217
      7  CA       -15.1210  -56.8680  -34.9700 C.3    71  SER71       0.1889
      8  C        -16.3980  -56.7620  -34.1370 C.2    71  SER71       0.2288
      9  O        -17.4330  -56.3750  -34.6580 O.2    71  SER71      -0.2866
     10  CB       -14.5260  -55.4680  -35.1630 C.3    71  SER71       0.2089
     11  OG       -13.1470  -55.5280  -35.5060 O.3    71  SER71      -0.2183
     12  N         -9.1040  -55.4140  -32.7720 N.3    81  GLY81      -0.1225
     13  CA        -9.3470  -55.3700  -34.1980 C.3    81  GLY81       0.1811
     14  C         -8.1200  -55.7300  -35.0080 C.2    81  GLY81       0.2280
     15  O         -7.0840  -55.1190  -34.8590 O.2    81  GLY81      -0.2866
     16  N         -7.4100  -55.8650  -38.5200 N.3    83  ILE83      -0.1231
     17  CA        -6.8900  -55.0450  -39.5810 C.3    83  ILE83       0.1692
     18  C         -6.3060  -53.7720  -39.0070 C.2    83  ILE83       0.2591
     19  O         -5.2580  -53.3340  -39.4710 O.2    83  ILE83      -0.2718
     20  CB        -7.8700  -54.7390  -40.7340 C.3    83  ILE83       0.0266
     21  CG1       -7.1050  -54.0750  -41.8890 C.3    83  ILE83       0.0019
     22  CG2       -8.9820  -53.7870  -40.3290 C.3    83  ILE83       0.0020
     23  CD1       -6.0200  -54.9280  -42.5200 C.3    83  ILE83       0.0001
     24  N         -6.9540  -53.2000  -37.9930 N.am   84  ARG84      -0.1980
     25  CA        -6.4190  -51.9880  -37.3510 C.3    84  ARG84       0.1597
     26  C         -5.0790  -52.2240  -36.6490 C.2    84  ARG84       0.2287
     27  O         -4.2170  -51.3560  -36.6640 O.2    84  ARG84      -0.2864
     28  CB        -7.4390  -51.3660  -36.3980 C.3    84  ARG84       0.0334
     29  CG        -8.5560  -50.6720  -37.1560 C.3    84  ARG84       0.0492
     30  CD        -9.5480  -49.9390  -36.2860 C.3    84  ARG84       0.2205
     31  NE       -10.1570  -50.8370  -35.3180 N.pl3  84  ARG84      -0.0865
     32  CZ        -9.9360  -50.8010  -34.0060 C.cat  84  ARG84       0.5346
     33  NH1      -10.5520  -51.6720  -33.2290 N.pl3  84  ARG84       0.1354
     34  NH2       -9.1250  -49.8910  -33.4540 N.pl3  84  ARG84       0.1354
     35  N         -2.4370  -52.2480  -39.3540 N.3    87  ARG87      -0.1245
     36  CA        -2.1870  -50.9090  -39.8690 C.3    87  ARG87       0.1563
     37  C         -1.2250  -50.1370  -38.9660 C.2    87  ARG87       0.2260
     38  O         -0.3390  -49.4200  -39.4610 O.2    87  ARG87      -0.2867
     39  CB        -3.4900  -50.1030  -40.0030 C.3    87  ARG87       0.0307
     40  CG        -4.4760  -50.6580  -41.0140 C.3    87  ARG87       0.0489
     41  CD        -5.7900  -49.8760  -41.0250 C.3    87  ARG87       0.2205
     42  NE        -6.6840  -50.3830  -42.0590 N.pl3  87  ARG87      -0.0865
     43  CZ        -7.9920  -50.1360  -42.1490 C.cat  87  ARG87       0.5346
     44  NH1       -8.6160  -49.3680  -41.2550 N.pl3  87  ARG87       0.1354
     45  NH2       -8.6910  -50.6860  -43.1380 N.pl3  87  ARG87       0.1354
     46  N         -7.8520  -45.4300  -51.6540 N.3    97  ARG97      -0.1245
     47  CA        -9.2150  -45.9130  -51.9170 C.3    97  ARG97       0.1563
     48  C         -9.8370  -45.2350  -53.1490 C.2    97  ARG97       0.2260
     49  O        -10.4600  -44.1880  -53.0460 O.2    97  ARG97      -0.2867
     50  CB       -10.0930  -45.6740  -50.6880 C.3    97  ARG97       0.0307
     51  CG       -10.3430  -46.9360  -49.8910 C.3    97  ARG97       0.0489
     52  CD        -9.8760  -46.9680  -48.4480 C.3    97  ARG97       0.2205
     53  NE       -11.0350  -46.9690  -47.5780 N.pl3  97  ARG97      -0.0865
     54  CZ       -11.3100  -47.8220  -46.5870 C.cat  97  ARG97       0.5346
     55  NH1      -12.4510  -47.6450  -45.9320 N.pl3  97  ARG97       0.1354
     56  NH2      -10.5140  -48.8180  -46.2260 N.pl3  97  ARG97       0.1354
     57  N         -6.6270  -41.8590  -47.2390 N.3   117  ARG117     -0.1245
     58  CA        -7.0120  -41.6880  -45.8420 C.3   117  ARG117      0.1563
     59  C         -5.8520  -42.0240  -44.9140 C.2   117  ARG117      0.2260
     60  O         -5.2060  -43.0590  -45.0690 O.2   117  ARG117     -0.2867
     61  CB        -8.3360  -42.4120  -45.4900 C.3   117  ARG117      0.0307
     62  CG        -8.2780  -43.7360  -44.7410 C.3   117  ARG117      0.0489
     63  CD        -9.3090  -43.8760  -43.6110 C.3   117  ARG117      0.2205
     64  NE        -9.8710  -45.2210  -43.6350 N.pl3 117  ARG117     -0.0865
     65  CZ       -10.3190  -45.9330  -42.6030 C.cat 117  ARG117      0.5346
     66  NH1      -10.7860  -47.1490  -42.8280 N.pl3 117  ARG117      0.1354
     67  NH2      -10.3210  -45.4830  -41.3780 N.pl3 117  ARG117      0.1354
     68  N         -8.5560  -43.2180  -34.3290 N.3   124  TYR124     -0.1241
     69  CA        -8.1530  -44.6380  -34.3890 C.3   124  TYR124      0.1605
     70  C         -6.9260  -45.0130  -33.5550 C.2   124  TYR124      0.2264
     71  O         -6.4980  -46.1560  -33.6120 O.2   124  TYR124     -0.2867
     72  CB        -7.9560  -45.0970  -35.8470 C.3   124  TYR124      0.0534
     73  CG        -9.2450  -45.3570  -36.6110 C.ar  124  TYR124     -0.0201
     74  CD1      -10.2070  -44.3650  -36.7610 C.ar  124  TYR124     -0.0009
     75  CD2       -9.4930  -46.5910  -37.1870 C.ar  124  TYR124     -0.0009
     76  CE1      -11.3830  -44.5970  -37.4550 C.ar  124  TYR124      0.0417
     77  CE2      -10.6680  -46.8380  -37.8860 C.ar  124  TYR124      0.0417
     78  CZ       -11.6100  -45.8420  -38.0240 C.ar  124  TYR124      0.1957
     79  OH       -12.7830  -46.0920  -38.7190 O.3   124  TYR124     -0.2866
     80  N        -12.8650  -43.0650  -43.5640 N.3   227  ASP227     -0.1239
     81  CA       -13.6790  -44.2770  -43.4470 C.3   227  ASP227      0.1674
     82  C        -15.0740  -44.0210  -43.9700 C.2   227  ASP227      0.2266
     83  O        -15.6280  -44.8190  -44.7450 O.2   227  ASP227     -0.2867
     84  CB       -13.8020  -44.7300  -42.0020 C.3   227  ASP227      0.1410
     85  CG       -14.6500  -45.9630  -41.8660 C.2   227  ASP227      0.3668
     86  OD1      -14.4090  -46.9590  -42.5720 O.co2 227  ASP227     -0.2456
     87  OD2      -15.5750  -45.9500  -41.0560 O.co2 227  ASP227     -0.2456
     88  N        -16.8690  -45.1610  -47.9970 N.3   231  ASP231     -0.1239
     89  CA       -18.0950  -45.9820  -48.1640 C.3   231  ASP231      0.1674
     90  C        -19.1250  -45.2250  -48.9830 C.2   231  ASP231      0.2266
     91  O        -19.7850  -45.7960  -49.8610 O.2   231  ASP231     -0.2867
     92  CB       -18.7180  -46.4320  -46.8280 C.3   231  ASP231      0.1410
     93  CG       -18.2850  -47.8630  -46.3990 C.2   231  ASP231      0.3668
     94  OD1      -17.1320  -48.2740  -46.7110 O.co2 231  ASP231     -0.2456
     95  OD2      -19.0900  -48.5720  -45.7240 O.co2 231  ASP231     -0.2456
     96  N         -6.8060  -54.8560  -49.7420 N.3   256  GLU256     -0.1245
     97  CA        -8.0420  -55.4140  -49.2380 C.3   256  GLU256      0.1567
     98  C         -9.2330  -54.6290  -49.7790 C.2   256  GLU256      0.2260
     99  O         -9.1140  -53.4480  -50.0540 O.2   256  GLU256     -0.2867
    100  CB        -8.0530  -55.3760  -47.6990 C.3   256  GLU256      0.0388
    101  CG        -7.9050  -53.9720  -47.1340 C.3   256  GLU256      0.1160
    102  CD        -8.4680  -53.7990  -45.7320 C.2   256  GLU256      0.3649
    103  OE1       -9.3290  -54.6230  -45.3210 O.co2 256  GLU256     -0.2457
    104  OE2       -8.0380  -52.8310  -45.0330 O.co2 256  GLU256     -0.2457
    105  N        -12.5350  -52.4450  -49.5050 N.3   258  VAL258     -0.1245
    106  CA       -13.1130  -51.5020  -48.5470 C.3   258  VAL258      0.1561
    107  C        -14.1720  -52.2140  -47.6710 C.2   258  VAL258      0.2260
    108  O        -14.3440  -51.9090  -46.4940 O.2   258  VAL258     -0.2867
    109  CB       -13.7620  -50.3190  -49.3180 C.3   258  VAL258      0.0252
    110  CG1      -14.5510  -49.4220  -48.3840 C.3   258  VAL258      0.0019
    111  CG2      -12.7150  -49.5130  -50.0940 C.3   258  VAL258      0.0019
    112  N        -16.3960  -55.0340  -45.4920 N.3   260  GLY260     -0.1225
    113  CA       -16.1050  -55.9150  -44.3860 C.3   260  GLY260      0.1811
    114  C        -16.4530  -57.3590  -44.6240 C.2   260  GLY260      0.2280
    115  O        -16.5070  -57.8250  -45.7670 O.2   260  GLY260     -0.2866
@<TRIPOS>BOND
     1    48    49    2
     2    48    47    1
     3    47    46    1
     4    47    50    1
     5    50    51    1
     6   111   109    1
     7    99    98    2
     8    51    52    1
     9    91    90    2
    10    98    97    1
    11    96    97    1
    12   105   106    1
    13   109   106    1
    14   109   110    1
    15    97   100    1
    16    90    89    1
    17   106   107    1
    18    52    53    1
    19    89    88    1
    20    89    92    1
    21   100   101    1
    22   107   108    2
    23    53    54    2
    24    57    58    1
    25   101   102    1
    26    92    93    1
    27    94    93   ar
    28    54    56    1
    29    54    55    1
    30    93    95   ar
    31    58    61    1
    32    58    59    1
    33   115   114    2
    34   102   103   ar
    35   102   104   ar
    36   112   113    1
    37    61    62    1
    38    60    59    2
    39    83    82    2
    40    62    63    1
    41   114   113    1
    42    82    81    1
    43    64    63    1
    44    64    65    2
    45    80    81    1
    46    81    84    1
    47    45    43    1
    48    66    65    1
    49    65    67    1
    50    86    85   ar
    51    23    21    1
    52    43    42    2
    53    43    44    1
    54    42    41    1
    55    84    85    1
    56    21    20    1
    57    85    87   ar
    58     1     2    1
    59    41    40    1
    60    40    39    1
    61    20    22    1
    62    20    17    1
    63     2     5    1
    64     2     3    1
    65    39    36    1
    66    36    35    1
    67    36    37    1
    68     4     3    2
    69    17    18    1
    70    17    16    1
    71    19    18    2
    72    38    37    2
    73    18    24   am
    74    79    78    1
    75    78    77   ar
    76    78    76   ar
    77    24    25    1
    78    77    75   ar
    79    76    74   ar
    80    25    26    1
    81    25    28    1
    82    75    73   ar
    83    29    28    1
    84    29    30    1
    85    74    73   ar
    86    27    26    2
    87    73    72    1
    88    30    31    1
    89     6     7    1
    90    72    69    1
    91    11    10    1
    92    31    32    2
    93    10     7    1
    94    14    15    2
    95    14    13    1
    96     7     8    1
    97     9     8    2
    98    69    68    1
    99    69    70    1
   100    13    12    1
   101    32    34    1
   102    32    33    1
   103    71    70    2
