@<TRIPOS>MOLECULE
tmp/4yb5C01.pdb
 104 98 0 0 0
SMALL
GASTEIGER

@<TRIPOS>ATOM
      1  N        -64.4730   22.4190   -8.9060 N.3   218  GLN218     -0.1245
      2  CA       -65.1730   22.6250   -7.6610 C.3   218  GLN218      0.1566
      3  C        -65.1120   21.3990   -6.7450 C.2   218  GLN218      0.2260
      4  O        -65.1850   21.5360   -5.5420 O.2   218  GLN218     -0.2867
      5  CB       -66.6410   23.0340   -7.9300 C.3   218  GLN218      0.0367
      6  CG       -66.8010   24.5360   -8.1610 C.3   218  GLN218      0.0905
      7  CD       -67.8510   24.9250   -9.2020 C.2   218  GLN218      0.2608
      8  OE1      -68.9300   24.3400   -9.2840 O.2   218  GLN218     -0.2717
      9  NE2      -67.5250   25.9320  -10.0090 N.am  218  GLN218     -0.0878
     10  N        -62.4400   17.7740   -2.2860 N.3   222  SER222     -0.1217
     11  CA       -63.6500   17.5510   -1.4820 C.3   222  SER222      0.1889
     12  C        -64.0570   16.0800   -1.4660 C.2   222  SER222      0.2288
     13  O        -63.8500   15.3580   -2.4280 O.2   222  SER222     -0.2866
     14  CB       -64.8210   18.4190   -1.9870 C.3   222  SER222      0.2089
     15  OG       -64.7230   19.7240   -1.4220 O.3   222  SER222     -0.2183
     16  N        -69.0890   20.9080   13.9280 N.3   240  LEU240     -0.1231
     17  CA       -67.7780   20.4320   13.5030 C.3   240  LEU240      0.1693
     18  C        -67.6960   20.1810   11.9930 C.2   240  LEU240      0.2592
     19  O        -66.7040   20.5320   11.3700 O.2   240  LEU240     -0.2718
     20  CB       -67.4220   19.1720   14.2490 C.3   240  LEU240      0.0284
     21  CG       -67.2890   19.3140   15.7720 C.3   240  LEU240      0.0019
     22  CD1      -67.1440   17.9310   16.4030 C.3   240  LEU240      0.0001
     23  CD2      -66.1150   20.2110   16.1540 C.3   240  LEU240      0.0001
     24  N        -68.7460   19.5960   11.4220 N.am  241  LEU241     -0.1966
     25  CA       -68.8060   19.2820    9.9980 C.3   241  LEU241      0.1713
     26  C        -70.1050   19.7780    9.4080 C.2   241  LEU241      0.2458
     27  O        -71.0900   19.0450    9.3580 O.2   241  LEU241     -0.2730
     28  CB       -68.7670   17.7700    9.7800 C.3   241  LEU241      0.0310
     29  CG       -67.5110   17.0320    9.3450 C.3   241  LEU241      0.0022
     30  CD1      -67.9540   15.6860    8.7840 C.3   241  LEU241      0.0001
     31  CD2      -66.6860   17.7630    8.3230 C.3   241  LEU241      0.0001
     32  N        -70.1240   21.0220    8.9510 N.am  242  PRO242     -0.2716
     33  CA       -71.4110   21.6050    8.5490 C.3   242  PRO242      0.1536
     34  C        -71.9910   21.0910    7.2260 C.2   242  PRO242      0.2599
     35  O        -73.1780   21.2580    6.9850 O.2   242  PRO242     -0.2715
     36  CB       -71.0920   23.1060    8.4420 C.3   242  PRO242      0.0310
     37  CG       -69.6070   23.2000    8.2380 C.3   242  PRO242      0.0237
     38  CD       -68.9970   21.9730    8.8480 C.3   242  PRO242      0.0939
     39  N        -71.1440   20.5500    6.3640 N.am  243  GLY243     -0.1941
     40  CA       -71.5360   20.1860    5.0210 C.3   243  GLY243      0.2014
     41  C        -71.4530   21.3800    4.0970 C.2   243  GLY243      0.2638
     42  O        -71.1470   22.4740    4.5300 O.2   243  GLY243     -0.2714
     43  N        -71.7170   21.1600    2.8190 N.am  244  VAL244     -0.1977
     44  CA       -71.8090   22.2410    1.8520 C.3   244  VAL244      0.1596
     45  C        -72.9910   23.1360    2.2070 C.2   244  VAL244      0.2287
     46  O        -72.9070   24.3450    2.1130 O.2   244  VAL244     -0.2864
     47  CB       -71.9160   21.6970    0.4080 C.3   244  VAL244      0.0276
     48  CG1      -72.4370   22.7430   -0.5610 C.3   244  VAL244      0.0022
     49  CG2      -70.5630   21.2080   -0.0660 C.3   244  VAL244      0.0022
     50  N        -72.2170   14.5000    4.8640 N.3   263  MET263     -0.1230
     51  CA       -71.8520   15.8800    4.5410 C.3   263  MET263      0.1702
     52  C        -70.6610   15.9280    3.6150 C.2   263  MET263      0.2592
     53  O        -69.7680   15.0740    3.6860 O.2   263  MET263     -0.2718
     54  CB       -71.5370   16.6750    5.8100 C.3   263  MET263      0.0401
     55  CG       -71.0010   15.8620    6.9530 C.3   263  MET263      0.0596
     56  SD       -72.2400   15.0870    8.0060 S.3   263  MET263     -0.1393
     57  CE       -71.9620   15.8050    9.6210 C.3   263  MET263      0.0692
     58  N        -70.6720   16.8870    2.7060 N.am  264  VAL264     -0.1966
     59  CA       -69.5110   17.1680    1.8900 C.3   264  VAL264      0.1727
     60  C        -68.5320   17.9330    2.7550 C.2   264  VAL264      0.2617
     61  O        -68.9270   18.8030    3.5190 O.2   264  VAL264     -0.2715
     62  CB       -69.8770   18.0300    0.6890 C.3   264  VAL264      0.0290
     63  CG1      -68.6430   18.4530   -0.0790 C.3   264  VAL264      0.0023
     64  CG2      -70.8220   17.2610   -0.2270 C.3   264  VAL264      0.0023
     65  N        -67.2490   17.6100    2.6300 N.am  265  SER265     -0.1936
     66  CA       -66.1990   18.3460    3.3060 C.3   265  SER265      0.2055
     67  C        -64.9120   18.3710    2.5050 C.2   265  SER265      0.2642
     68  O        -64.5750   17.4180    1.8060 O.2   265  SER265     -0.2714
     69  CB       -65.8950   17.7130    4.6490 C.3   265  SER265      0.2130
     70  OG       -64.8010   18.3540    5.2950 O.3   265  SER265     -0.2179
     71  N        -64.2120   19.4900    2.5750 N.am  266  LYS266     -0.1977
     72  CA       -62.8260   19.5240    2.1430 C.3   266  LYS266      0.1596
     73  C        -62.0930   18.4750    2.9070 C.2   266  LYS266      0.2287
     74  O        -62.2690   18.3750    4.1240 O.2   266  LYS266     -0.2864
     75  CB       -62.2490   20.8830    2.4780 C.3   266  LYS266      0.0298
     76  CG       -62.7750   21.9760    1.5900 C.3   266  LYS266      0.0038
     77  CD       -61.8770   23.1340    1.2170 C.3   266  LYS266      0.0206
     78  CE       -62.7810   24.3600    0.8180 C.3   266  LYS266      0.1093
     79  NZ       -62.8210   25.5010    1.7890 N.3   266  LYS266     -0.1314
     80  N        -60.0290   19.7080    6.0670 N.3   269  LEU269     -0.1245
     81  CA       -60.8450   20.1110    7.2190 C.3   269  LEU269      0.1561
     82  C        -61.4100   18.8910    7.9130 C.2   269  LEU269      0.2260
     83  O        -61.5030   18.8480    9.1390 O.2   269  LEU269     -0.2867
     84  CB       -61.9920   21.0490    6.8190 C.3   269  LEU269      0.0270
     85  CG       -61.6130   22.4360    6.2690 C.3   269  LEU269      0.0019
     86  CD1      -62.8490   23.2840    5.9500 C.3   269  LEU269      0.0001
     87  CD2      -60.6930   23.1780    7.2370 C.3   269  LEU269      0.0001
     88  N        -68.7270   18.6400   -8.6540 N.3   293  MET293     -0.1245
     89  CA       -69.6020   19.4080   -7.7960 C.3   293  MET293      0.1570
     90  C        -70.0730   20.6480   -8.5290 C.2   293  MET293      0.2261
     91  O        -69.2700   21.3550   -9.1050 O.2   293  MET293     -0.2867
     92  CB       -68.8490   19.8170   -6.5420 C.3   293  MET293      0.0387
     93  CG       -69.7100   19.9580   -5.3140 C.3   293  MET293      0.0595
     94  SD       -68.6760   20.2060   -3.8730 S.3   293  MET293     -0.1393
     95  CE       -67.5130   18.8780   -4.1040 C.3   293  MET293      0.0692
     96  N        -72.3490   24.2180   -7.9320 N.3   295  LYS295     -0.1245
     97  CA       -73.0180   25.1360   -6.9850 C.3   295  LYS295      0.1561
     98  C        -74.4550   25.4140   -7.4380 C.2   295  LYS295      0.2260
     99  O        -75.3990   25.0060   -6.7630 O.2   295  LYS295     -0.2867
    100  CB       -72.2640   26.4640   -6.8360 C.3   295  LYS295      0.0271
    101  CG       -70.8230   26.4330   -6.3360 C.3   295  LYS295      0.0035
    102  CD       -70.8970   25.9130   -4.9470 C.3   295  LYS295      0.0206
    103  CE       -69.3870   25.7320   -4.6510 C.3   295  LYS295      0.1093
    104  NZ       -69.2520   24.5610   -3.7720 N.3   295  LYS295     -0.1314
@<TRIPOS>BOND
     1     9     7   am
     2     8     7    2
     3     7     6    1
     4    91    90    2
     5     1     2    1
     6    88    89    1
     7    90    89    1
     8     6     5    1
     9    96    97    1
    10     5     2    1
    11    89    92    1
    12     2     3    1
    13    98    97    1
    14    98    99    2
    15    97   100    1
    16   100   101    1
    17     3     4    2
    18    92    93    1
    19   101   102    1
    20    93    94    1
    21   102   103    1
    22   103   104    1
    23    95    94    1
    24    13    12    2
    25    10    11    1
    26    14    11    1
    27    14    15    1
    28    11    12    1
    29    48    47    1
    30    64    62    1
    31    63    62    1
    32    49    47    1
    33    47    44    1
    34    62    59    1
    35    78    77    1
    36    78    79    1
    37    77    76    1
    38    76    75    1
    39    68    67    2
    40    44    45    1
    41    44    43    1
    42    59    58    1
    43    59    60    1
    44    46    45    2
    45    72    75    1
    46    72    71    1
    47    72    73    1
    48    67    71   am
    49    67    66    1
    50    65    60   am
    51    65    66    1
    52    58    52   am
    53    60    61    2
    54    43    41   am
    55    73    74    2
    56    66    69    1
    57    52    53    2
    58    52    51    1
    59    41    42    2
    60    41    40    1
    61    51    50    1
    62    51    54    1
    63    69    70    1
    64    40    39    1
    65    54    55    1
    66    86    85    1
    67    80    81    1
    68    85    84    1
    69    85    87    1
    70    39    34   am
    71    84    81    1
    72    55    56    1
    73    35    34    2
    74    81    82    1
    75    34    33    1
    76    82    83    2
    77    56    57    1
    78    37    36    1
    79    37    38    1
    80    31    29    1
    81    36    33    1
    82    33    32    1
    83    30    29    1
    84    38    32    1
    85    32    26   am
    86    29    28    1
    87    27    26    2
    88    26    25    1
    89    28    25    1
    90    25    24    1
    91    19    18    2
    92    24    18   am
    93    18    17    1
    94    17    16    1
    95    17    20    1
    96    20    21    1
    97    21    23    1
    98    21    22    1
