@<TRIPOS>MOLECULE
tmp/4yb5F01.pdb
 80 77 0 0 0
SMALL
GASTEIGER

@<TRIPOS>ATOM
      1  N        -61.1060   -5.2850  -11.6870 N.3    23  GLU23      -0.1245
      2  CA       -62.4730   -4.9830  -11.2200 C.3    23  GLU23       0.1567
      3  C        -63.3100   -6.2410  -10.9760 C.2    23  GLU23       0.2260
      4  O        -64.2810   -6.1940  -10.2190 O.2    23  GLU23      -0.2867
      5  CB       -63.2090   -4.0620  -12.1890 C.3    23  GLU23       0.0388
      6  CG       -62.6790   -2.6390  -12.2220 C.3    23  GLU23       0.1160
      7  CD       -63.0550   -1.8970  -13.5140 C.2    23  GLU23       0.3649
      8  OE1      -63.1980   -2.5420  -14.5790 O.co2  23  GLU23      -0.2457
      9  OE2      -63.1450   -0.6450  -13.5010 O.co2  23  GLU23      -0.2457
     10  N        -69.8390   -4.8050  -13.9180 N.3   211  VAL211     -0.1245
     11  CA       -68.9260   -3.7780  -14.4060 C.3   211  VAL211      0.1561
     12  C        -69.5090   -3.1110  -15.6390 C.2   211  VAL211      0.2260
     13  O        -69.5050   -1.8990  -15.7430 O.2   211  VAL211     -0.2867
     14  CB       -67.5220   -4.3660  -14.7060 C.3   211  VAL211      0.0252
     15  CG1      -66.6620   -3.3320  -15.4370 C.3   211  VAL211      0.0019
     16  CG2      -66.8200   -4.7790  -13.4220 C.3   211  VAL211      0.0019
     17  N        -72.5030   -0.6730  -15.1750 N.3   214  ALA214     -0.1231
     18  CA       -72.2070    0.5860  -14.5230 C.3   214  ALA214      0.1694
     19  C        -71.4770    1.5680  -15.4030 C.2   214  ALA214      0.2592
     20  O        -71.3910    2.7350  -15.0420 O.2   214  ALA214     -0.2718
     21  CB       -71.3770    0.3480  -13.2860 C.3   214  ALA214      0.0304
     22  N        -70.9060    1.1400  -16.5300 N.am  215  ARG215     -0.1966
     23  CA       -70.1090    2.0670  -17.3390 C.3   215  ARG215      0.1729
     24  C        -70.9420    3.2510  -17.7900 C.2   215  ARG215      0.2616
     25  O        -72.0950    3.0910  -18.1970 O.2   215  ARG215     -0.2715
     26  CB       -69.5060    1.3790  -18.5550 C.3   215  ARG215      0.0348
     27  CG       -68.2180    0.7030  -18.2230 C.3   215  ARG215      0.0492
     28  CD       -67.9300   -0.1630  -19.3970 C.3   215  ARG215      0.2205
     29  NE       -67.1360    0.5870  -20.3390 N.pl3 215  ARG215     -0.0865
     30  CZ       -65.8180    0.7340  -20.2670 C.cat 215  ARG215      0.5346
     31  NH1      -65.0970    0.2310  -19.2640 N.pl3 215  ARG215      0.1354
     32  NH2      -65.2240    1.4110  -21.2240 N.pl3 215  ARG215      0.1354
     33  N        -70.3690    4.4400  -17.6940 N.am  216  GLU216     -0.1963
     34  CA       -71.0810    5.6610  -18.1150 C.3   216  GLU216      0.1733
     35  C        -72.1960    6.1080  -17.1420 C.2   216  GLU216      0.2617
     36  O        -72.8470    7.0930  -17.4080 O.2   216  GLU216     -0.2715
     37  CB       -71.6460    5.5440  -19.5660 C.3   216  GLU216      0.0429
     38  CG       -72.1620    6.9150  -20.0700 C.3   216  GLU216      0.1163
     39  CD       -72.5410    6.9630  -21.5520 C.2   216  GLU216      0.3649
     40  OE1      -72.5720    5.8940  -22.1970 O.co2 216  GLU216     -0.2457
     41  OE2      -72.7870    8.0880  -22.0710 O.co2 216  GLU216     -0.2457
     42  N        -72.4100    5.4140  -16.0240 N.am  217  SER217     -0.1936
     43  CA       -73.4270    5.8310  -15.0540 C.3   217  SER217      0.2055
     44  C        -72.7930    6.4200  -13.8230 C.2   217  SER217      0.2642
     45  O        -71.7180    6.0200  -13.4110 O.2   217  SER217     -0.2714
     46  CB       -74.3530    4.6610  -14.6770 C.3   217  SER217      0.2130
     47  OG       -75.3800    4.5050  -15.6500 O.3   217  SER217     -0.2179
     48  N        -73.4770    7.3820  -13.2190 N.am  218  LYS218     -0.1977
     49  CA       -72.9730    8.0300  -12.0250 C.3   218  LYS218      0.1596
     50  C        -74.0730    8.1480  -11.0070 C.2   218  LYS218      0.2287
     51  O        -75.2660    8.1320  -11.3480 O.2   218  LYS218     -0.2864
     52  CB       -72.4550    9.4210  -12.3640 C.3   218  LYS218      0.0298
     53  CG       -71.3140    9.4740  -13.3670 C.3   218  LYS218      0.0038
     54  CD       -70.0240    8.9070  -12.7960 C.3   218  LYS218      0.0206
     55  CE       -69.0070    8.6790  -13.8900 C.3   218  LYS218      0.1093
     56  NZ       -67.6800    8.3500  -13.3220 N.3   218  LYS218     -0.1314
     57  N        -68.8800    8.3020   -8.4490 N.3   284  PRO284     -0.2102
     58  CA       -68.6790    7.1430   -9.3180 C.3   284  PRO284      0.1504
     59  C        -69.4980    5.9590   -8.8480 C.2   284  PRO284      0.2576
     60  O        -69.8480    5.8850   -7.6610 O.2   284  PRO284     -0.2718
     61  CB       -67.1950    6.8380   -9.1360 C.3   284  PRO284      0.0282
     62  CG       -66.8750    7.3090   -7.7470 C.3   284  PRO284      0.0208
     63  CD       -67.7850    8.4790   -7.4860 C.3   284  PRO284      0.0893
     64  N        -69.8000    5.0650   -9.7680 N.am  285  ILE285     -0.1966
     65  CA       -70.4150    3.7620   -9.4680 C.3   285  ILE285      0.1727
     66  C        -69.5400    2.7210  -10.1170 C.2   285  ILE285      0.2616
     67  O        -69.2490    2.8420  -11.2880 O.2   285  ILE285     -0.2715
     68  CB       -71.8100    3.6550  -10.0840 C.3   285  ILE285      0.0290
     69  CG1      -72.7470    4.7010   -9.4770 C.3   285  ILE285      0.0022
     70  CG2      -72.3860    2.2940   -9.8670 C.3   285  ILE285      0.0023
     71  CD1      -74.0460    4.8310  -10.2480 C.3   285  ILE285      0.0001
     72  N        -69.0990    1.7170   -9.3720 N.am  286  GLU286     -0.1977
     73  CA       -68.1880    0.6980   -9.9330 C.3   286  GLU286      0.1602
     74  C        -68.9250   -0.4930  -10.5040 C.2   286  GLU286      0.2287
     75  O        -68.4840   -1.0700  -11.4830 O.2   286  GLU286     -0.2864
     76  CB       -67.2000    0.2140   -8.8890 C.3   286  GLU286      0.0415
     77  CG       -66.2910    1.3310   -8.4290 C.3   286  GLU286      0.1163
     78  CD       -65.2110    0.8710   -7.4710 C.2   286  GLU286      0.3649
     79  OE1      -65.3280   -0.2380   -6.8970 O.co2 286  GLU286     -0.2457
     80  OE2      -64.2420    1.6370   -7.2880 O.co2 286  GLU286     -0.2457
@<TRIPOS>BOND
     1    40    39   ar
     2    41    39   ar
     3    39    38    1
     4    32    30    1
     5    29    30    2
     6    29    28    1
     7    30    31    1
     8    38    37    1
     9    37    34    1
    10    28    27    1
    11    26    27    1
    12    26    23    1
    13    25    24    2
    14    34    33    1
    15    34    35    1
    16    24    33   am
    17    24    23    1
    18    36    35    2
    19    23    22    1
    20    35    42   am
    21    22    19   am
    22    42    43    1
    23    13    12    2
    24    47    46    1
    25    12    11    1
    26    15    14    1
    27    19    20    2
    28    19    18    1
    29    17    18    1
    30    43    46    1
    31    43    44    1
    32    14    11    1
    33    14    16    1
    34     8     7   ar
    35    18    21    1
    36    11    10    1
    37    55    56    1
    38    55    54    1
    39    44    45    2
    40    44    48   am
    41     7     9   ar
    42     7     6    1
    43    53    54    1
    44    53    52    1
    45    48    49    1
    46    52    49    1
    47     6     5    1
    48     5     2    1
    49    49    50    1
    50     1     2    1
    51    75    74    2
    52    51    50    2
    53    67    66    2
    54     2     3    1
    55     3     4    2
    56    74    73    1
    57    71    69    1
    58    66    65    1
    59    66    72   am
    60    68    70    1
    61    68    69    1
    62    68    65    1
    63    73    72    1
    64    73    76    1
    65    64    65    1
    66    64    59   am
    67    58    61    1
    68    58    59    1
    69    58    57    1
    70    61    62    1
    71    76    77    1
    72    59    60    2
    73    57    63    1
    74    77    78    1
    75    62    63    1
    76    78    80   ar
    77    78    79   ar
