@<TRIPOS>MOLECULE
tmp/4yb6A00.pdb
 153 147 0 0 0
SMALL
GASTEIGER

@<TRIPOS>ATOM
      1  N         10.6520   17.2230    9.3150 N.3     9  GLN9       -0.1245
      2  CA        10.0600   16.8710   10.5960 C.3     9  GLN9        0.1566
      3  C         10.8750   15.8260   11.3140 C.2     9  GLN9        0.2260
      4  O         11.4310   14.9220   10.6960 O.2     9  GLN9       -0.2867
      5  CB         8.6710   16.3090   10.4330 C.3     9  GLN9        0.0367
      6  CG         7.6630   17.3460   10.0320 C.3     9  GLN9        0.0905
      7  CD         6.2280   16.8440   10.0160 C.2     9  GLN9        0.2608
      8  OE1        5.3940   17.4090    9.3220 O.2     9  GLN9       -0.2717
      9  NE2        5.9220   15.8150   10.8250 N.am    9  GLN9       -0.0878
     10  N          4.6060   10.0840   10.4440 N.3    13  ARG13      -0.1231
     11  CA         4.6530    9.4420    9.1360 C.3    13  ARG13       0.1694
     12  C          5.2460   10.4200    8.1150 C.2    13  ARG13       0.2591
     13  O          5.9620   10.0150    7.1720 O.2    13  ARG13      -0.2718
     14  CB         3.2520    8.9830    8.6950 C.3    13  ARG13       0.0321
     15  CG         3.2070    8.2440    7.3520 C.3    13  ARG13       0.0489
     16  CD         1.8160    7.6620    7.0660 C.3    13  ARG13       0.2205
     17  NE         0.7670    8.6820    6.9970 N.pl3  13  ARG13      -0.0865
     18  CZ         0.6280    9.5570    5.9980 C.cat  13  ARG13       0.5346
     19  NH1        1.4680    9.5510    4.9630 N.pl3  13  ARG13       0.1354
     20  NH2       -0.3520   10.4520    6.0360 N.pl3  13  ARG13       0.1354
     21  N          4.9530   11.7070    8.3140 N.am   14  LEU14      -0.1980
     22  CA         5.4580   12.7510    7.4200 C.3    14  LEU14       0.1596
     23  C          6.9910   12.7680    7.4020 C.2    14  LEU14       0.2287
     24  O          7.5850   12.8780    6.3330 O.2    14  LEU14      -0.2864
     25  CB         4.8600   14.1160    7.7830 C.3    14  LEU14       0.0297
     26  CG         4.4470   14.9630    6.5720 C.3    14  LEU14       0.0022
     27  CD1        3.1950   15.7850    6.8470 C.3    14  LEU14       0.0001
     28  CD2        5.6100   15.8500    6.1590 C.3    14  LEU14       0.0001
     29  N          7.8980   19.8640   13.7100 N.3    52  ASP52      -0.1239
     30  CA         7.1320   20.4250   12.5860 C.3    52  ASP52       0.1674
     31  C          6.7590   21.9070   12.7560 C.2    52  ASP52       0.2266
     32  O          6.9370   22.7110   11.8400 O.2    52  ASP52      -0.2867
     33  CB         5.8670   19.5940   12.2810 C.3    52  ASP52       0.1410
     34  CG         4.9110   19.4800   13.4660 C.2    52  ASP52       0.3668
     35  OD1        5.2830   19.7870   14.6180 O.co2  52  ASP52      -0.2456
     36  OD2        3.7500   19.0860   13.2270 O.co2  52  ASP52      -0.2456
     37  N         -1.0150   22.7970    6.6200 N.3    72  ASN72      -0.1225
     38  CA        -1.7020   23.2540    7.8220 C.3    72  ASN72       0.1785
     39  C         -0.7650   23.9330    8.8070 C.2    72  ASN72       0.2597
     40  O         -1.0930   25.0080    9.3350 O.2    72  ASN72      -0.2718
     41  CB        -2.4610   22.1230    8.5220 C.3    72  ASN72       0.1169
     42  CG        -1.5380   21.0200    9.0360 C.2    72  ASN72       0.2627
     43  OD1       -0.6810   20.5310    8.3150 O.2    72  ASN72      -0.2716
     44  ND2       -1.6650   20.6800   10.3200 N.am   72  ASN72      -0.0877
     45  N          0.4080   23.3370    9.0240 N.am   73  VAL73      -0.1980
     46  CA         1.3900   23.8810    9.9540 C.3    73  VAL73       0.1595
     47  C          1.9890   25.1820    9.3920 C.2    73  VAL73       0.2287
     48  O          2.1920   26.1540   10.1170 O.2    73  VAL73      -0.2864
     49  CB         2.5140   22.8710   10.2270 C.3    73  VAL73       0.0276
     50  CG1        3.5500   23.4650   11.1780 C.3    73  VAL73       0.0022
     51  CG2        1.9370   21.5950   10.8390 C.3    73  VAL73       0.0022
     52  N          1.0330   13.1710    3.3730 N.3    99  GLY99      -0.1210
     53  CA         0.6480   14.0670    4.4480 C.3    99  GLY99       0.1956
     54  C         -0.7890   14.5600    4.3290 C.2    99  GLY99       0.2612
     55  O         -1.1470   15.5540    4.9310 O.2    99  GLY99      -0.2717
     56  N         -1.6360   13.8530    3.5770 N.am  100  TYR100     -0.1962
     57  CA        -3.0190   14.2980    3.3850 C.3   100  TYR100      0.1771
     58  C         -3.8560   14.2440    4.6620 C.2   100  TYR100      0.2619
     59  O         -3.8650   13.2450    5.3730 O.2   100  TYR100     -0.2715
     60  CB        -3.7500   13.4940    2.3080 C.3   100  TYR100      0.0574
     61  CG        -3.1580   13.5370    0.9150 C.ar  100  TYR100     -0.0198
     62  CD1       -3.2260   14.6890    0.1160 C.ar  100  TYR100     -0.0009
     63  CD2       -2.5790   12.4030    0.3670 C.ar  100  TYR100     -0.0009
     64  CE1       -2.6980   14.7090   -1.1790 C.ar  100  TYR100      0.0417
     65  CE2       -2.0630   12.4140   -0.9170 C.ar  100  TYR100      0.0417
     66  CZ        -2.1170   13.5610   -1.6830 C.ar  100  TYR100      0.1957
     67  OH        -1.5920   13.5210   -2.9430 O.3   100  TYR100     -0.2866
     68  N         -4.5700   15.3260    4.9520 N.am  101  CYS101     -0.1968
     69  CA        -5.5000   15.3480    6.0860 C.3   101  CYS101      0.1712
     70  C         -6.4540   16.5230    5.9520 C.2   101  CYS101      0.2296
     71  O         -6.2330   17.4030    5.1320 O.2   101  CYS101     -0.2864
     72  CB        -4.7390   15.4240    7.4160 C.3   101  CYS101      0.0983
     73  SG        -3.5990   16.8290    7.5520 S.3   101  CYS101     -0.0798
     74  N         -4.5570   24.0750   16.4570 N.3   128  TYR128     -0.1241
     75  CA        -4.4110   25.0460   15.3590 C.3   128  TYR128      0.1605
     76  C         -5.3030   26.2830   15.6140 C.2   128  TYR128      0.2264
     77  O         -6.2520   26.5530   14.8740 O.2   128  TYR128     -0.2867
     78  CB        -4.7370   24.3690   14.0170 C.3   128  TYR128      0.0534
     79  CG        -3.8460   23.1810   13.8220 C.ar  128  TYR128     -0.0201
     80  CD1       -2.5300   23.3490   13.3710 C.ar  128  TYR128     -0.0009
     81  CD2       -4.2550   21.9170   14.2160 C.ar  128  TYR128     -0.0009
     82  CE1       -1.6710   22.2650   13.2590 C.ar  128  TYR128      0.0417
     83  CE2       -3.4040   20.8220   14.0970 C.ar  128  TYR128      0.0417
     84  CZ        -2.1220   21.0050   13.6340 C.ar  128  TYR128      0.1957
     85  OH        -1.2760   19.9440   13.5150 O.3   128  TYR128     -0.2866
     86  N         -8.5300   14.9670   20.7390 N.3   153  GLU153     -0.1245
     87  CA        -9.7440   14.1570   20.6840 C.3   153  GLU153      0.1567
     88  C        -10.3450   13.7870   22.0380 C.2   153  GLU153      0.2260
     89  O        -11.5200   13.4290   22.1050 O.2   153  GLU153     -0.2867
     90  CB        -9.5400   12.9010   19.8230 C.3   153  GLU153      0.0388
     91  CG        -8.6810   11.7720   20.3960 C.3   153  GLU153      0.1160
     92  CD        -7.1860   12.0350   20.3550 C.2   153  GLU153      0.3649
     93  OE1       -6.4070   11.3250   21.0490 O.co2 153  GLU153     -0.2457
     94  OE2       -6.7750   12.9630   19.6390 O.co2 153  GLU153     -0.2457
     95  N         -9.6920   19.3870   14.8020 N.3   166  ASP166     -0.1225
     96  CA        -8.4710   18.5730   14.7160 C.3   166  ASP166      0.1805
     97  C         -8.3370   17.8830   13.3650 C.2   166  ASP166      0.2598
     98  O         -9.2880   17.8680   12.5750 O.2   166  ASP166     -0.2718
     99  CB        -8.4530   17.5520   15.8540 C.3   166  ASP166      0.1424
    100  CG        -7.0400   17.0110   16.1620 C.2   166  ASP166      0.3668
    101  OD1       -6.0220   17.5770   15.6960 O.co2 166  ASP166     -0.2456
    102  OD2       -6.9530   16.0340   16.9190 O.co2 166  ASP166     -0.2456
    103  N         -7.1560   17.3270   13.1160 N.am  167  LEU167     -0.1966
    104  CA        -6.8280   16.6980   11.8400 C.3   167  LEU167      0.1728
    105  C         -7.4420   15.3200   11.7470 C.2   167  LEU167      0.2616
    106  O         -7.4470   14.5650   12.7190 O.2   167  LEU167     -0.2715
    107  CB        -5.3250   16.5930   11.6520 C.3   167  LEU167      0.0311
    108  CG        -4.5380   17.9070   11.6920 C.3   167  LEU167      0.0022
    109  CD1       -3.0350   17.6270   11.6220 C.3   167  LEU167      0.0001
    110  CD2       -4.9580   18.8470   10.5670 C.3   167  LEU167      0.0001
    111  N         -7.9700   15.0230   10.5660 N.am  168  VAL168     -0.1963
    112  CA        -8.6270   13.7570   10.2770 C.3   168  VAL168      0.1727
    113  C         -8.0300   13.2170    8.9850 C.2   168  VAL168      0.2617
    114  O         -7.8450   13.9520    8.0230 O.2   168  VAL168     -0.2715
    115  CB       -10.1430   13.9380   10.0700 C.3   168  VAL168      0.0290
    116  CG1      -10.8310   12.5730    9.8780 C.3   168  VAL168      0.0023
    117  CG2      -10.7700   14.6820   11.2360 C.3   168  VAL168      0.0023
    118  N         -7.7000   11.9330    8.9900 N.am  169  SER169     -0.1936
    119  CA        -7.2570   11.2620    7.7890 C.3   169  SER169      0.2055
    120  C         -8.2740   10.1640    7.5400 C.2   169  SER169      0.2644
    121  O         -9.0940   10.3020    6.6500 O.2   169  SER169     -0.2714
    122  CB        -5.8290   10.7260    7.9410 C.3   169  SER169      0.2130
    123  OG        -5.4800    9.9480    6.8170 O.3   169  SER169     -0.2179
    124  N         -8.2380    9.0820    8.3210 N.am  170  SER170     -0.1935
    125  CA        -9.1670    7.9640    8.1140 C.3   170  SER170      0.2055
    126  C        -10.4770    8.1230    8.8580 C.2   170  SER170      0.2644
    127  O        -11.4620    7.4860    8.5100 O.2   170  SER170     -0.2714
    128  CB        -8.5200    6.6420    8.5510 C.3   170  SER170      0.2130
    129  OG        -8.4250    6.5660    9.9640 O.3   170  SER170     -0.2179
    130  N        -10.4830    8.9390    9.9070 N.am  171  GLY171     -0.1939
    131  CA       -11.6590    9.0800   10.7440 C.3   171  GLY171      0.2014
    132  C        -11.7080    8.1380   11.9230 C.2   171  GLY171      0.2639
    133  O        -12.6180    8.2300   12.7420 O.2   171  GLY171     -0.2714
    134  N        -10.7230    7.2520   12.0540 N.am  172  ALA172     -0.1963
    135  CA       -10.7470    6.2540   13.1190 C.3   172  ALA172      0.1728
    136  C        -10.6580    6.8770   14.5080 C.2   172  ALA172      0.2617
    137  O        -11.3440    6.4290   15.4310 O.2   172  ALA172     -0.2715
    138  CB        -9.6340    5.2370   12.9310 C.3   172  ALA172      0.0334
    139  N         -9.8200    7.9090   14.6470 N.am  173  THR173     -0.1937
    140  CA        -9.6110    8.5380   15.9390 C.3   173  THR173      0.2028
    141  C        -10.8790    9.2720   16.4400 C.2   173  THR173      0.2642
    142  O        -11.2480    9.1320   17.6080 O.2   173  THR173     -0.2714
    143  CB        -8.4330    9.5030   15.8790 C.3   173  THR173      0.1808
    144  OG1       -7.2690    8.8020   15.4600 O.3   173  THR173     -0.2208
    145  CG2       -8.1880   10.1280   17.2430 C.3   173  THR173      0.0379
    146  N        -11.5770    9.9770   15.5470 N.am  174  LEU174     -0.1977
    147  CA       -12.8620   10.5350   15.9010 C.3   174  LEU174      0.1596
    148  C        -13.8440    9.4400   16.3690 C.2   174  LEU174      0.2287
    149  O        -14.4580    9.5670   17.4220 O.2   174  LEU174     -0.2864
    150  CB       -13.4700   11.3350   14.7450 C.3   174  LEU174      0.0297
    151  CG       -12.7340   12.6200   14.3020 C.3   174  LEU174      0.0022
    152  CD1      -13.5340   13.3170   13.2260 C.3   174  LEU174      0.0001
    153  CD2      -12.4740   13.5750   15.4530 C.3   174  LEU174      0.0001
@<TRIPOS>BOND
     1    67    66    1
     2    66    64   ar
     3    66    65   ar
     4    64    62   ar
     5    65    63   ar
     6    62    61   ar
     7    63    61   ar
     8    61    60    1
     9    60    57    1
    10    52    53    1
    11    57    56    1
    12    57    58    1
    13    56    54   am
    14    54    53    1
    15    54    55    2
    16    58    68   am
    17    58    59    2
    18    68    69    1
    19    19    18    1
    20    71    70    2
    21    70    69    1
    22    18    20    1
    23    18    17    2
    24    69    72    1
    25    28    26    1
    26    24    23    2
    27    26    27    1
    28    26    25    1
    29    37    38    1
    30   121   120    2
    31   123   122    1
    32    17    16    1
    33    16    15    1
    34    13    12    2
    35    15    14    1
    36    23    22    1
    37    72    73    1
    38    22    25    1
    39    22    21    1
    40   120   119    1
    41   120   124   am
    42   119   122    1
    43   119   118    1
    44    38    41    1
    45    38    39    1
    46   114   113    2
    47   125   124    1
    48   125   128    1
    49   125   126    1
    50    12    21   am
    51    12    11    1
    52    43    42    2
    53   127   126    2
    54    41    42    1
    55   128   129    1
    56    14    11    1
    57    39    45   am
    58    39    40    2
    59   126   130   am
    60   113   118   am
    61   113   112    1
    62    45    46    1
    63    42    44   am
    64    11    10    1
    65     1     2    1
    66     8     7    2
    67    47    46    1
    68    47    48    2
    69   116   115    1
    70   130   131    1
    71    46    49    1
    72     7     6    1
    73     7     9   am
    74     6     5    1
    75   115   112    1
    76   115   117    1
    77    49    51    1
    78    49    50    1
    79   112   111    1
    80     5     2    1
    81   111   105   am
    82   110   108    1
    83     2     3    1
    84     4     3    2
    85   131   132    1
    86   109   108    1
    87   107   108    1
    88   107   104    1
    89   105   104    1
    90   105   106    2
    91    32    31    2
    92   104   103    1
    93   132   134   am
    94   132   133    2
    95   134   135    1
    96    33    30    1
    97    33    34    1
    98    98    97    2
    99    30    31    1
   100    30    29    1
   101   138   135    1
   102   103    97   am
   103   135   136    1
   104   152   151    1
   105    36    34   ar
   106    82    80   ar
   107    82    84   ar
   108    97    96    1
   109    80    79   ar
   110    34    35   ar
   111    85    84    1
   112    84    83   ar
   113    79    78    1
   114    79    81   ar
   115    78    75    1
   116    83    81   ar
   117   151   150    1
   118   151   153    1
   119   136   139   am
   120   136   137    2
   121   139   140    1
   122    96    95    1
   123    96    99    1
   124   150   147    1
   125    77    76    2
   126    75    76    1
   127    75    74    1
   128   144   143    1
   129   146   147    1
   130   146   141   am
   131   101   100   ar
   132    99   100    1
   133   143   140    1
   134   143   145    1
   135   147   148    1
   136   140   141    1
   137   100   102   ar
   138   148   149    2
   139   141   142    2
   140    94    92   ar
   141    90    91    1
   142    90    87    1
   143    92    91    1
   144    92    93   ar
   145    87    86    1
   146    87    88    1
   147    88    89    2
