@<TRIPOS>MOLECULE
tmp/4ybiA00.pdb
 152 145 0 0 0
SMALL
GASTEIGER

@<TRIPOS>ATOM
      1  N         35.9370   53.3040   89.3490 N.3    14  SER14      -0.1202
      2  CA        34.9270   53.9670   90.1650 C.3    14  SER14       0.2020
      3  C         34.3090   55.1850   89.4830 C.2    14  SER14       0.2619
      4  O         33.0830   55.4060   89.6120 O.2    14  SER14      -0.2717
      5  CB        35.5040   54.3410   91.5440 C.3    14  SER14       0.2103
      6  OG        36.5940   55.2520   91.4170 O.3    14  SER14      -0.2182
      7  N         35.1430   55.9610   88.7630 N.am   15  GLY15      -0.1942
      8  CA        34.7010   57.2220   88.1440 C.3    15  GLY15       0.2014
      9  C         33.7000   57.0520   87.0040 C.2    15  GLY15       0.2639
     10  O         32.8230   57.8950   86.8270 O.2    15  GLY15      -0.2714
     11  N         33.8070   55.9590   86.2510 N.am   16  GLN16      -0.1963
     12  CA        32.9240   55.7170   85.1030 C.3    16  GLN16       0.1733
     13  C         32.0400   54.4680   85.2080 C.2    16  GLN16       0.2616
     14  O         31.1970   54.2380   84.3430 O.2    16  GLN16      -0.2715
     15  CB        33.7420   55.6680   83.8250 C.3    16  GLN16       0.0408
     16  CG        34.4820   56.9850   83.5680 C.3    16  GLN16       0.0908
     17  CD        35.1320   57.0480   82.1970 C.2    16  GLN16       0.2608
     18  OE1       35.7690   56.0840   81.7450 O.2    16  GLN16      -0.2717
     19  NE2       34.9820   58.1910   81.5250 N.am   16  GLN16      -0.0878
     20  N         32.2330   53.6740   86.2530 N.am   17  GLY17      -0.1955
     21  CA        31.4040   52.5160   86.4920 C.3    17  GLY17       0.1869
     22  C         32.0910   51.2070   86.1480 C.2    17  GLY17       0.2309
     23  O         33.0230   51.1670   85.3360 O.2    17  GLY17      -0.2863
     24  N         26.7420   48.2860   82.5390 N.3    34  LEU34      -0.1245
     25  CA        27.0390   48.8080   83.8920 C.3    34  LEU34       0.1561
     26  C         26.2870   48.0580   84.9900 C.2    34  LEU34       0.2260
     27  O         25.0650   47.8690   84.8920 O.2    34  LEU34      -0.2867
     28  CB        26.6930   50.3000   83.9380 C.3    34  LEU34       0.0270
     29  CG        26.8250   51.0510   85.2760 C.3    34  LEU34       0.0019
     30  CD1       28.2610   51.5200   85.4210 C.3    34  LEU34       0.0001
     31  CD2       25.9000   52.2580   85.3020 C.3    34  LEU34       0.0001
     32  N         24.6890   48.1230   88.4320 N.3    36  ASP36      -0.1239
     33  CA        24.1670   49.2440   89.2240 C.3    36  ASP36       0.1674
     34  C         23.2030   48.7640   90.3170 C.2    36  ASP36       0.2266
     35  O         22.0380   48.4570   90.0360 O.2    36  ASP36      -0.2867
     36  CB        23.4660   50.2390   88.2850 C.3    36  ASP36       0.1410
     37  CG        23.0000   51.5040   89.0070 C.2    36  ASP36       0.3668
     38  OD1       23.3930   51.7270   90.1790 O.co2  36  ASP36      -0.2456
     39  OD2       22.2150   52.2720   88.3980 O.co2  36  ASP36      -0.2456
     40  N         21.9980   50.6300   92.4700 N.3    38  GLY38      -0.1210
     41  CA        21.1880   51.8160   92.8640 C.3    38  GLY38       0.1956
     42  C         20.0160   52.0970   91.9260 C.2    38  GLY38       0.2612
     43  O         19.3930   53.1680   91.9940 O.2    38  GLY38      -0.2717
     44  N         19.6990   51.1410   91.0530 N.am   39  SER39      -0.1952
     45  CA        18.5550   51.3240   90.1330 C.3    39  SER39       0.1924
     46  C         18.0130   49.9420   89.7720 C.2    39  SER39       0.2314
     47  O         18.6190   48.9320   90.1350 O.2    39  SER39      -0.2863
     48  CB        18.9360   52.1080   88.8660 C.3    39  SER39       0.2116
     49  OG        19.8640   51.3940   88.0390 O.3    39  SER39      -0.2180
     50  N         17.0790   61.7030   85.5340 N.3    75  TYR75      -0.1241
     51  CA        17.8310   61.7420   86.7870 C.3    75  TYR75       0.1605
     52  C         18.1850   63.1930   87.0570 C.2    75  TYR75       0.2264
     53  O         17.8950   64.0480   86.2200 O.2    75  TYR75      -0.2867
     54  CB        19.1090   60.9230   86.6870 C.3    75  TYR75       0.0534
     55  CG        18.9290   59.5410   86.1280 C.ar   75  TYR75      -0.0201
     56  CD1       18.3610   58.5080   86.8910 C.ar   75  TYR75      -0.0009
     57  CD2       19.3410   59.2600   84.8350 C.ar   75  TYR75      -0.0009
     58  CE1       18.2140   57.2210   86.3700 C.ar   75  TYR75       0.0417
     59  CE2       19.2020   57.9920   84.3090 C.ar   75  TYR75       0.0417
     60  CZ        18.6410   56.9800   85.0740 C.ar   75  TYR75       0.1957
     61  OH        18.5360   55.7370   84.4890 O.3    75  TYR75      -0.2866
     62  N         21.0960   64.6010   87.0050 N.3    77  GLN77      -0.1245
     63  CA        21.8950   64.9250   85.8240 C.3    77  GLN77       0.1566
     64  C         21.6870   63.8470   84.7630 C.2    77  GLN77       0.2260
     65  O         22.0490   62.6780   84.9630 O.2    77  GLN77      -0.2867
     66  CB        23.3780   65.0660   86.1760 C.3    77  GLN77       0.0367
     67  CG        24.0120   63.8030   86.7470 C.3    77  GLN77       0.0905
     68  CD        25.4520   64.0000   87.1870 C.2    77  GLN77       0.2608
     69  OE1       25.9310   65.1350   87.3280 O.2    77  GLN77      -0.2717
     70  NE2       26.1550   62.8880   87.4100 N.am   77  GLN77      -0.0878
     71  N         23.1190   63.2770   78.3260 N.3   111  LYS111     -0.1231
     72  CA        24.1430   63.1990   79.3740 C.3   111  LYS111      0.1693
     73  C         24.0330   61.9160   80.1990 C.2   111  LYS111      0.2592
     74  O         24.1850   61.9150   81.4170 O.2   111  LYS111     -0.2718
     75  CB        24.1000   64.4640   80.2470 C.3   111  LYS111      0.0285
     76  CG        24.2770   65.7240   79.4150 C.3   111  LYS111      0.0035
     77  CD        24.5120   66.9650   80.2500 C.3   111  LYS111      0.0206
     78  CE        24.6490   68.1660   79.3240 C.3   111  LYS111      0.1093
     79  NZ        24.5010   69.4500   80.0670 N.3   111  LYS111     -0.1314
     80  N         23.7470   60.8130   79.5140 N.am  112  PHE112     -0.1976
     81  CA        23.5740   59.5320   80.1730 C.3   112  PHE112      0.1639
     82  C         24.8080   58.6860   79.8990 C.2   112  PHE112      0.2290
     83  O         25.5410   58.2910   80.8400 O.2   112  PHE112     -0.2864
     84  CB        22.2780   58.8800   79.6730 C.3   112  PHE112      0.0560
     85  CG        22.0800   57.4840   80.1510 C.ar  112  PHE112     -0.0200
     86  CD1       21.7420   57.2310   81.4730 C.ar  112  PHE112     -0.0042
     87  CD2       22.2300   56.4140   79.2660 C.ar  112  PHE112     -0.0042
     88  CE1       21.5590   55.9260   81.9110 C.ar  112  PHE112     -0.0003
     89  CE2       22.0580   55.1160   79.6910 C.ar  112  PHE112     -0.0003
     90  CZ        21.7210   54.8680   81.0110 C.ar  112  PHE112     -0.0000
     91  N         28.5800   57.8250   78.8450 N.3   114  ILE114     -0.1245
     92  CA        29.8370   58.5070   79.1820 C.3   114  ILE114      0.1561
     93  C         30.8610   58.2110   78.0970 C.2   114  ILE114      0.2260
     94  O         31.1500   57.0430   77.8160 O.2   114  ILE114     -0.2867
     95  CB        30.3680   58.0340   80.5610 C.3   114  ILE114      0.0252
     96  CG1       29.3810   58.4130   81.6680 C.3   114  ILE114      0.0019
     97  CG2       31.7750   58.5740   80.8400 C.3   114  ILE114      0.0019
     98  CD1       29.7840   57.9580   83.0650 C.3   114  ILE114      0.0001
     99  N         30.7890   51.0410   78.3060 N.3   119  TRP119     -0.1241
    100  CA        29.5110   50.3570   78.5210 C.3   119  TRP119      0.1605
    101  C         28.4120   50.9820   77.6670 C.2   119  TRP119      0.2264
    102  O         28.4760   52.1730   77.3120 O.2   119  TRP119     -0.2867
    103  CB        29.0810   50.2570   80.0020 C.3   119  TRP119      0.0550
    104  CG        29.1080   51.5270   80.8030 C.ar  119  TRP119      0.0003
    105  CD1       30.1140   51.9280   81.6420 C.ar  119  TRP119      0.0946
    106  CD2       28.0800   52.5210   80.9020 C.ar  119  TRP119      0.0152
    107  NE1       29.7810   53.1180   82.2430 N.ar  119  TRP119     -0.2442
    108  CE2       28.5440   53.5120   81.8050 C.ar  119  TRP119      0.0810
    109  CE3       26.8050   52.6720   80.3230 C.ar  119  TRP119      0.0012
    110  CZ2       27.7780   54.6520   82.1400 C.ar  119  TRP119      0.0191
    111  CZ3       26.0520   53.7870   80.6380 C.ar  119  TRP119      0.0001
    112  CH2       26.5420   54.7800   81.5470 C.ar  119  TRP119      0.0015
    113  N         22.7470   49.6180   81.1740 N.3   122  ILE122     -0.1245
    114  CA        22.7890   49.5450   82.6470 C.3   122  ILE122      0.1561
    115  C         21.9660   48.3420   83.1070 C.2   122  ILE122      0.2260
    116  O         20.8830   48.1000   82.5840 O.2   122  ILE122     -0.2867
    117  CB        22.2570   50.8490   83.2950 C.3   122  ILE122      0.0252
    118  CG1       23.0890   52.0580   82.8410 C.3   122  ILE122      0.0019
    119  CG2       22.2480   50.7630   84.8120 C.3   122  ILE122      0.0019
    120  CD1       22.9200   53.2950   83.7070 C.3   122  ILE122      0.0001
    121  N         25.2770   51.4930   96.7830 N.3   232  ASP232     -0.1225
    122  CA        25.0710   51.8370   95.3450 C.3   232  ASP232      0.1805
    123  C         26.3410   51.7760   94.4620 C.2   232  ASP232      0.2598
    124  O         27.1420   52.7200   94.4120 O.2   232  ASP232     -0.2718
    125  CB        24.4060   53.2310   95.2440 C.3   232  ASP232      0.1424
    126  CG        24.0940   53.6500   93.8010 C.2   232  ASP232      0.3668
    127  OD1       24.2430   52.8280   92.8580 O.co2 232  ASP232     -0.2456
    128  OD2       23.6800   54.8230   93.5940 O.co2 232  ASP232     -0.2456
    129  N         26.5060   50.6820   93.7160 N.am  233  SER233     -0.1938
    130  CA        27.6970   50.4990   92.8850 C.3   233  SER233      0.2055
    131  C         27.7140   51.4320   91.6900 C.2   233  SER233      0.2644
    132  O         28.7470   51.5740   91.0230 O.2   233  SER233     -0.2714
    133  CB        27.7720   49.0470   92.3710 C.3   233  SER233      0.2130
    134  OG        26.5810   48.7180   91.6430 O.3   233  SER233     -0.2179
    135  N         26.5830   52.0760   91.4040 N.am  234  GLY234     -0.1939
    136  CA        26.5450   53.0450   90.2850 C.3   234  GLY234      0.2014
    137  C         26.7160   54.5140   90.6940 C.2   234  GLY234      0.2640
    138  O         26.4050   55.4260   89.9060 O.2   234  GLY234     -0.2714
    139  N         27.1750   54.7450   91.9300 N.am  235  THR235     -0.1936
    140  CA        27.5690   56.0850   92.3820 C.3   235  THR235      0.2028
    141  C         29.0640   56.0060   92.6890 C.2   235  THR235      0.2642
    142  O         29.4970   55.0870   93.3740 O.2   235  THR235     -0.2714
    143  CB        26.7780   56.4970   93.6440 C.3   235  THR235      0.1808
    144  OG1       25.4140   56.7750   93.2650 O.3   235  THR235     -0.2208
    145  CG2       27.3840   57.7500   94.3240 C.3   235  THR235      0.0379
    146  N         29.8390   56.9560   92.1900 N.am  236  THR236     -0.1950
    147  CA        31.2980   56.9660   92.4360 C.3   236  THR236      0.1897
    148  C         31.6120   57.2170   93.9130 C.2   236  THR236      0.2313
    149  O         32.3590   56.4420   94.5280 O.2   236  THR236     -0.2863
    150  CB        32.0040   58.0270   91.5550 C.3   236  THR236      0.1794
    151  OG1       31.8010   57.6810   90.1770 O.3   236  THR236     -0.2208
    152  CG2       33.5160   58.0680   91.8220 C.3   236  THR236      0.0378
@<TRIPOS>BOND
     1   102   101    2
     2   101   100    1
     3    94    93    2
     4    93    92    1
     5    99   100    1
     6    71    72    1
     7   100   103    1
     8    91    92    1
     9    92    95    1
    10    87    89   ar
    11    87    85   ar
    12    78    79    1
    13    78    77    1
    14    72    73    1
    15    72    75    1
    16    76    75    1
    17    76    77    1
    18    80    81    1
    19    80    73   am
    20    84    85    1
    21    84    81    1
    22    89    90   ar
    23    82    81    1
    24    82    83    2
    25   103   104    1
    26    85    86   ar
    27    73    74    2
    28   109   111   ar
    29   109   106   ar
    30    95    97    1
    31    95    96    1
    32   111   112   ar
    33   104   106   ar
    34   104   105   ar
    35   106   108   ar
    36    90    88   ar
    37   113   114    1
    38    86    88   ar
    39    19    17   am
    40   112   110   ar
    41   105   107   ar
    42    96    98    1
    43    18    17    2
    44   108   110   ar
    45   108   107   ar
    46    17    16    1
    47    24    25    1
    48   116   115    2
    49   114   115    1
    50   114   117    1
    51   118   117    1
    52   118   120    1
    53   117   119    1
    54    16    15    1
    55    15    12    1
    56    25    28    1
    57    25    26    1
    58    28    29    1
    59    59    57   ar
    60    59    60   ar
    61    14    13    2
    62    61    60    1
    63    64    65    2
    64    64    63    1
    65    57    55   ar
    66    27    26    2
    67    60    58   ar
    68    12    13    1
    69    12    11    1
    70    13    20   am
    71    29    31    1
    72    29    30    1
    73    23    22    2
    74    50    51    1
    75    63    66    1
    76    63    62    1
    77    55    54    1
    78    55    56   ar
    79    22    21    1
    80    66    67    1
    81    53    52    2
    82    11     9   am
    83    20    21    1
    84    58    56   ar
    85    54    51    1
    86    67    68    1
    87    51    52    1
    88    10     9    2
    89     9     8    1
    90    68    69    2
    91    68    70   am
    92    49    48    1
    93     8     7    1
    94    36    37    1
    95    36    33    1
    96    39    37   ar
    97    32    33    1
    98     7     3   am
    99    48    45    1
   100    37    38   ar
   101    33    34    1
   102     1     2    1
   103     3     4    2
   104     3     2    1
   105    46    45    1
   106    46    47    2
   107   138   137    2
   108    35    34    2
   109    45    44    1
   110     2     5    1
   111   151   150    1
   112   136   137    1
   113   136   135    1
   114   137   139   am
   115   132   131    2
   116    44    42   am
   117   135   131   am
   118     6     5    1
   119   150   152    1
   120   150   147    1
   121   134   133    1
   122   131   130    1
   123    42    43    2
   124    42    41    1
   125   139   140    1
   126   146   147    1
   127   146   141   am
   128   133   130    1
   129   140   141    1
   130   140   143    1
   131   147   148    1
   132    40    41    1
   133   141   142    2
   134   127   126   ar
   135   130   129    1
   136   144   143    1
   137   128   126   ar
   138   143   145    1
   139   129   123   am
   140   126   125    1
   141   148   149    2
   142   124   123    2
   143   123   122    1
   144   125   122    1
   145   122   121    1
