@<TRIPOS>MOLECULE
tmp/4ybkA00.pdb
 203 192 0 0 0
SMALL
GASTEIGER

@<TRIPOS>ATOM
      1  N         66.5180   52.5730  108.6380 N.3    18  LEU18      -0.1231
      2  CA        66.8830   53.2070  109.9120 C.3    18  LEU18       0.1693
      3  C         65.9290   52.8630  111.0550 C.2    18  LEU18       0.2592
      4  O         66.2860   53.0180  112.2260 O.2    18  LEU18      -0.2718
      5  CB        66.9150   54.7400  109.7500 C.3    18  LEU18       0.0284
      6  CG        67.8410   55.3350  108.6960 C.3    18  LEU18       0.0019
      7  CD1       67.4060   56.7450  108.3460 C.3    18  LEU18       0.0001
      8  CD2       69.2930   55.3170  109.1550 C.3    18  LEU18       0.0001
      9  N         64.7160   52.4620  110.7100 N.am   19  GLY19      -0.1957
     10  CA        63.6970   52.1290  111.6910 C.3    19  GLY19       0.1869
     11  C         62.4160   51.6050  111.0890 C.2    19  GLY19       0.2309
     12  O         62.1670   51.7480  109.8870 O.2    19  GLY19      -0.2863
     13  N         61.3490   53.9550  107.6870 N.3    26  VAL26      -0.1245
     14  CA        62.1910   55.1330  107.5000 C.3    26  VAL26       0.1561
     15  C         63.5310   54.6220  106.9610 C.2    26  VAL26       0.2260
     16  O         64.1410   53.7370  107.5600 O.2    26  VAL26      -0.2867
     17  CB        62.3360   56.0150  108.7780 C.3    26  VAL26       0.0252
     18  CG1       63.3820   57.1020  108.5800 C.3    26  VAL26       0.0019
     19  CG2       61.0040   56.6480  109.1650 C.3    26  VAL26       0.0019
     20  N         66.4870   61.2680  103.6230 N.3    38  ALA38      -0.1245
     21  CA        65.7210   60.3850  104.4900 C.3    38  ALA38       0.1562
     22  C         64.3980   60.1220  103.7840 C.2    38  ALA38       0.2260
     23  O         63.8580   61.0390  103.1550 O.2    38  ALA38      -0.2867
     24  CB        65.5110   61.0150  105.8490 C.3    38  ALA38       0.0290
     25  N         60.5640   58.4240  104.3010 N.3    40  LYS40      -0.1245
     26  CA        59.5110   57.8170  105.1070 C.3    40  LYS40       0.1561
     27  C         58.5740   57.1090  104.1410 C.2    40  LYS40       0.2260
     28  O         58.0070   57.7490  103.2500 O.2    40  LYS40      -0.2867
     29  CB        58.7790   58.8410  105.9960 C.3    40  LYS40       0.0271
     30  CG        57.6690   58.2140  106.8550 C.3    40  LYS40       0.0035
     31  CD        57.1310   59.1440  107.9360 C.3    40  LYS40       0.0206
     32  CE        57.9190   59.0250  109.2180 C.3    40  LYS40       0.1093
     33  NZ        57.2180   59.6550  110.3640 N.3    40  LYS40      -0.1314
     34  N         46.8260   63.8180  100.8000 N.3    52  PHE52      -0.1241
     35  CA        48.2070   64.1380  101.1510 C.3    52  PHE52       0.1605
     36  C         48.7800   65.2220  100.2410 C.2    52  PHE52       0.2264
     37  O         49.4680   66.1110  100.7450 O.2    52  PHE52      -0.2867
     38  CB        49.1030   62.8910  101.1290 C.3    52  PHE52       0.0534
     39  CG        50.5790   63.1850  101.3050 C.ar   52  PHE52      -0.0203
     40  CD1       51.0560   63.7810  102.4690 C.ar   52  PHE52      -0.0042
     41  CD2       51.4900   62.8660  100.3060 C.ar   52  PHE52      -0.0042
     42  CE1       52.4140   64.0720  102.6200 C.ar   52  PHE52      -0.0003
     43  CE2       52.8500   63.1390  100.4670 C.ar   52  PHE52      -0.0003
     44  CZ        53.3030   63.7430  101.6200 C.ar   52  PHE52      -0.0000
     45  N         52.4890   72.7110  103.4100 N.3    59  MET59      -0.1245
     46  CA        53.8340   72.3460  103.8730 C.3    59  MET59       0.1570
     47  C         54.9380   72.9670  103.0090 C.2    59  MET59       0.2261
     48  O         56.0320   73.2210  103.5190 O.2    59  MET59      -0.2867
     49  CB        54.0050   70.8200  103.8890 C.3    59  MET59       0.0387
     50  CG        52.9630   70.0910  104.7010 C.3    59  MET59       0.0595
     51  SD        53.3350   68.3310  104.7410 S.3    59  MET59      -0.1393
     52  CE        51.7200   67.6650  104.7720 C.3    59  MET59       0.0692
     53  N         61.7490   70.2380  109.6720 N.3    68  VAL68      -0.1245
     54  CA        62.4480   69.3660  108.7260 C.3    68  VAL68       0.1561
     55  C         62.0190   69.8050  107.3090 C.2    68  VAL68       0.2260
     56  O         60.8280   69.9790  107.0520 O.2    68  VAL68      -0.2867
     57  CB        62.2570   67.8450  108.9970 C.3    68  VAL68       0.0252
     58  CG1       60.8580   67.3620  108.6210 C.3    68  VAL68       0.0019
     59  CG2       63.3120   67.0270  108.2690 C.3    68  VAL68       0.0019
     60  N         61.0430   69.4680  103.6540 N.3    70  LEU70      -0.1245
     61  CA        60.4850   68.4860  102.7330 C.3    70  LEU70       0.1561
     62  C         61.1830   68.6920  101.3770 C.2    70  LEU70       0.2260
     63  O         61.2840   69.8260  100.9050 O.2    70  LEU70      -0.2867
     64  CB        58.9480   68.6570  102.6310 C.3    70  LEU70       0.0270
     65  CG        58.2040   67.7250  101.6620 C.3    70  LEU70       0.0019
     66  CD1       57.9420   66.3930  102.2900 C.3    70  LEU70       0.0001
     67  CD2       56.8880   68.3250  101.2300 C.3    70  LEU70       0.0001
     68  N         57.8710   59.8040  101.4120 N.3    81  ILE81      -0.1245
     69  CA        58.0450   61.2090  101.7870 C.3    81  ILE81       0.1561
     70  C         59.5470   61.4360  102.0090 C.2    81  ILE81       0.2260
     71  O         60.1410   60.8230  102.8970 O.2    81  ILE81      -0.2867
     72  CB        57.1650   61.6460  102.9950 C.3    81  ILE81       0.0252
     73  CG1       55.7520   61.0150  102.9470 C.3    81  ILE81       0.0019
     74  CG2       57.0680   63.1620  103.0480 C.3    81  ILE81       0.0019
     75  CD1       54.9150   61.2190  104.2000 C.3    81  ILE81       0.0001
     76  N         62.8650   63.8700  102.7780 N.3    83  THR83      -0.1203
     77  CA        63.3610   65.0530  103.4870 C.3    83  THR83       0.1994
     78  C         64.8770   65.0110  103.6110 C.2    83  THR83       0.2618
     79  O         65.5050   64.0300  103.2130 O.2    83  THR83      -0.2717
     80  CB        62.7610   65.1670  104.9120 C.3    83  THR83       0.1784
     81  OG1       63.2360   64.1040  105.7400 O.3    83  THR83      -0.2211
     82  CG2       61.2480   65.3090  104.9380 C.3    83  THR83       0.0376
     83  N         65.4530   66.0470  104.2440 N.am   84  GLU84      -0.1965
     84  CA        66.8650   66.1110  104.6170 C.3    84  GLU84       0.1733
     85  C         67.1400   64.9810  105.6230 C.2    84  GLU84       0.2616
     86  O         66.2570   64.6430  106.4230 O.2    84  GLU84      -0.2715
     87  CB        67.2050   67.4920  105.2330 C.3    84  GLU84       0.0429
     88  CG        66.5050   67.7810  106.5530 C.3    84  GLU84       0.1163
     89  CD        66.6210   69.1880  107.0920 C.2    84  GLU84       0.3649
     90  OE1       65.5940   69.9020  107.1060 O.co2  84  GLU84      -0.2457
     91  OE2       67.7240   69.5640  107.5450 O.co2  84  GLU84      -0.2457
     92  N         68.3250   64.3720  105.5560 N.am   85  TYR85      -0.1960
     93  CA        68.6800   63.3150  106.4930 C.3    85  TYR85       0.1771
     94  C         69.2340   63.9550  107.7550 C.2    85  TYR85       0.2619
     95  O         70.0980   64.8260  107.6690 O.2    85  TYR85      -0.2715
     96  CB        69.6820   62.3310  105.8610 C.3    85  TYR85       0.0574
     97  CG        70.3070   61.3640  106.8430 C.ar   85  TYR85      -0.0198
     98  CD1       69.6020   60.2560  107.3060 C.ar   85  TYR85      -0.0009
     99  CD2       71.6060   61.5520  107.3030 C.ar   85  TYR85      -0.0009
    100  CE1       70.1730   59.3650  108.2140 C.ar   85  TYR85       0.0417
    101  CE2       72.1810   60.6770  108.2210 C.ar   85  TYR85       0.0417
    102  CZ        71.4640   59.5810  108.6690 C.ar   85  TYR85       0.1957
    103  OH        72.0430   58.7140  109.5610 O.3    85  TYR85      -0.2866
    104  N         68.7400   63.5200  108.9220 N.am   86  MET86      -0.1963
    105  CA        69.1900   64.0230  110.2210 C.3    86  MET86       0.1736
    106  C         70.0590   62.9640  110.9120 C.2    86  MET86       0.2617
    107  O         69.6280   61.8300  111.1220 O.2    86  MET86      -0.2715
    108  CB        68.0090   64.4770  111.0830 C.3    86  MET86       0.0427
    109  CG        67.1900   65.5810  110.4200 C.3    86  MET86       0.0599
    110  SD        67.7950   67.2450  110.7800 S.3    86  MET86      -0.1393
    111  CE        69.0700   67.4350  109.5420 C.3    86  MET86       0.0692
    112  N         71.3070   63.3520  111.2020 N.am   87  SER87      -0.1936
    113  CA        72.3990   62.5590  111.7650 C.3    87  SER87       0.2055
    114  C         72.0630   61.7110  112.9960 C.2    87  SER87       0.2643
    115  O         72.6190   60.6280  113.1060 O.2    87  SER87      -0.2714
    116  CB        73.5730   63.4640  112.1290 C.3    87  SER87       0.2130
    117  OG        74.0570   64.1470  110.9850 O.3    87  SER87      -0.2179
    118  N         71.2500   62.2020  113.9470 N.am   88  LYS88      -0.1963
    119  CA        71.0220   61.4360  115.1770 C.3    88  LYS88       0.1728
    120  C         69.6160   60.8250  115.2720 C.2    88  LYS88       0.2617
    121  O         69.3220   60.1440  116.2540 O.2    88  LYS88      -0.2715
    122  CB        71.3140   62.3020  116.4190 C.3    88  LYS88       0.0311
    123  CG        72.7370   62.8690  116.4790 C.3    88  LYS88       0.0038
    124  CD        73.7640   61.8350  116.9270 C.3    88  LYS88       0.0206
    125  CE        75.1630   62.1860  116.4970 C.3    88  LYS88       0.1093
    126  NZ        76.1300   61.1460  116.9230 N.3    88  LYS88      -0.1314
    127  N         68.7900   61.0340  114.2470 N.am   89  GLY89      -0.1940
    128  CA        67.4340   60.5040  114.1940 C.3    89  GLY89       0.2014
    129  C         66.4760   61.1620  115.1670 C.2    89  GLY89       0.2639
    130  O         66.6490   62.3270  115.5290 O.2    89  GLY89      -0.2714
    131  N         65.4620   60.4100  115.5860 N.am   90  SER90      -0.1949
    132  CA        64.3960   60.8140  116.5000 C.3    90  SER90       0.1924
    133  C         64.9220   61.2990  117.8670 C.2    90  SER90       0.2314
    134  O         65.8930   60.7510  118.3920 O.2    90  SER90      -0.2863
    135  CB        63.4390   59.6430  116.7150 C.3    90  SER90       0.2116
    136  OG        62.3600   59.9940  117.5600 O.3    90  SER90      -0.2180
    137  N         64.6100   58.4670  120.3820 N.3    93  ASP93      -0.1225
    138  CA        65.7470   57.5500  120.1940 C.3    93  ASP93       0.1805
    139  C         67.0030   58.0820  120.8790 C.2    93  ASP93       0.2597
    140  O         67.6420   57.3570  121.6390 O.2    93  ASP93      -0.2718
    141  CB        66.0240   57.3360  118.7000 C.3    93  ASP93       0.1424
    142  CG        64.9960   56.4900  117.9780 C.2    93  ASP93       0.3668
    143  OD1       64.2520   55.7440  118.6590 O.co2  93  ASP93      -0.2456
    144  OD2       64.9470   56.5590  116.7260 O.co2  93  ASP93      -0.2456
    145  N         67.2990   59.3690  120.6460 N.am   94  PHE94      -0.1976
    146  CA        68.4240   60.1150  121.1840 C.3    94  PHE94       0.1639
    147  C         68.3690   60.1670  122.7160 C.2    94  PHE94       0.2290
    148  O         69.3980   59.9590  123.3530 O.2    94  PHE94      -0.2864
    149  CB        68.4380   61.5340  120.5810 C.3    94  PHE94       0.0560
    150  CG        69.6630   62.3560  120.8960 C.ar   94  PHE94      -0.0200
    151  CD1       70.8480   62.1640  120.1960 C.ar   94  PHE94      -0.0042
    152  CD2       69.6270   63.3370  121.8790 C.ar   94  PHE94      -0.0042
    153  CE1       71.9840   62.9240  120.4890 C.ar   94  PHE94      -0.0003
    154  CE2       70.7630   64.0980  122.1710 C.ar   94  PHE94      -0.0003
    155  CZ        71.9340   63.8870  121.4730 C.ar   94  PHE94      -0.0000
    156  N         73.2700   58.7230  124.6470 N.3    99  MET99      -0.1245
    157  CA        73.4250   60.1660  124.8400 C.3    99  MET99       0.1570
    158  C         72.5640   60.7290  125.9550 C.2    99  MET99       0.2261
    159  O         72.9900   61.6750  126.6190 O.2    99  MET99      -0.2867
    160  CB        73.1460   60.9300  123.5370 C.3    99  MET99       0.0387
    161  CG        74.2700   60.8130  122.5270 C.3    99  MET99       0.0595
    162  SD        75.8420   61.3400  123.2410 S.3    99  MET99      -0.1393
    163  CE        76.8210   59.8390  123.0360 C.3    99  MET99       0.0692
    164  N         63.3050   65.4090  115.1100 N.3   138  LEU138     -0.1245
    165  CA        64.5470   64.8700  114.5680 C.3   138  LEU138      0.1561
    166  C         65.7390   65.6310  115.1140 C.2   138  LEU138      0.2260
    167  O         65.6710   66.8480  115.2900 O.2   138  LEU138     -0.2867
    168  CB        64.5380   64.9080  113.0330 C.3   138  LEU138      0.0270
    169  CG        63.4410   64.0920  112.3430 C.3   138  LEU138      0.0019
    170  CD1       63.3440   64.4630  110.8910 C.3   138  LEU138      0.0001
    171  CD2       63.6840   62.5770  112.4850 C.3   138  LEU138      0.0001
    172  N         59.1640   67.4210  112.7870 N.3   148  ALA148     -0.1231
    173  CA        58.8100   66.5780  111.6400 C.3   148  ALA148      0.1694
    174  C         57.3590   66.1200  111.7160 C.2   148  ALA148      0.2592
    175  O         56.7370   66.2200  112.7810 O.2   148  ALA148     -0.2718
    176  CB        59.7300   65.3590  111.5880 C.3   148  ALA148      0.0304
    177  N         56.8320   65.5860  110.5860 N.am  149  ASP149     -0.1960
    178  CA        55.4810   65.0290  110.4450 C.3   149  ASP149      0.1840
    179  C         54.3760   66.0370  110.7830 C.2   149  ASP149      0.2622
    180  O         53.3280   65.6370  111.3000 O.2   149  ASP149     -0.2715
    181  CB        55.3220   63.7680  111.3190 C.3   149  ASP149      0.1450
    182  CG        56.1610   62.6090  110.8510 C.2   149  ASP149      0.3671
    183  OD1       55.7250   61.9050  109.9190 O.co2 149  ASP149     -0.2456
    184  OD2       57.2620   62.4100  111.4080 O.co2 149  ASP149     -0.2456
    185  N         54.5940   67.3360  110.4730 N.am  150  PHE150     -0.1974
    186  CA        53.5960   68.3760  110.7370 C.3   150  PHE150      0.1639
    187  C         52.3740   68.1690  109.8280 C.2   150  PHE150      0.2290
    188  O         52.5270   67.9670  108.6180 O.2   150  PHE150     -0.2864
    189  CB        54.1610   69.8160  110.6180 C.3   150  PHE150      0.0560
    190  CG        55.3480   70.0470  109.7040 C.ar  150  PHE150     -0.0200
    191  CD1       56.6490   69.9080  110.1750 C.ar  150  PHE150     -0.0042
    192  CD2       55.1650   70.4740  108.3910 C.ar  150  PHE150     -0.0042
    193  CE1       57.7460   70.1250  109.3290 C.ar  150  PHE150     -0.0003
    194  CE2       56.2640   70.6990  107.5460 C.ar  150  PHE150     -0.0003
    195  CZ        57.5470   70.5290  108.0220 C.ar  150  PHE150     -0.0000
    196  N         50.3990   65.5810  109.4500 N.3   152  LEU152     -0.1245
    197  CA        50.2390   64.2420  108.8560 C.3   152  LEU152      0.1561
    198  C         49.3560   63.3110  109.7040 C.2   152  LEU152      0.2260
    199  O         48.8520   62.3150  109.1760 O.2   152  LEU152     -0.2867
    200  CB        51.6190   63.5850  108.6440 C.3   152  LEU152      0.0270
    201  CG        51.7170   62.5240  107.5440 C.3   152  LEU152      0.0019
    202  CD1       51.7950   63.1620  106.1600 C.3   152  LEU152      0.0001
    203  CD2       52.9090   61.6160  107.7740 C.3   152  LEU152      0.0001
@<TRIPOS>BOND
     1    36    37    2
     2    36    35    1
     3    41    43   ar
     4    41    39   ar
     5    43    44   ar
     6    34    35    1
     7    63    62    2
     8    38    35    1
     9    38    39    1
    10    67    65    1
    11    39    40   ar
    12    62    61    1
    13    68    69    1
    14    44    42   ar
    15    65    66    1
    16    65    64    1
    17    69    70    1
    18    69    72    1
    19    70    71    2
    20    40    42   ar
    21    64    61    1
    22    61    60    1
    23    76    77    1
    24    73    72    1
    25    73    75    1
    26    72    74    1
    27    47    48    2
    28    47    46    1
    29    23    22    2
    30    79    78    2
    31    28    27    2
    32    45    46    1
    33    77    78    1
    34    77    80    1
    35    78    83   am
    36    20    21    1
    37    22    21    1
    38    46    49    1
    39    49    50    1
    40    27    26    1
    41    83    84    1
    42    25    26    1
    43    21    24    1
    44    84    87    1
    45    84    85    1
    46    50    51    1
    47    51    52    1
    48    80    82    1
    49    80    81    1
    50    26    29    1
    51    87    88    1
    52    92    85   am
    53    92    93    1
    54    85    86    2
    55    96    93    1
    56    96    97    1
    57    29    30    1
    58   202   201    1
    59    93    94    1
    60    88    89    1
    61    97    99   ar
    62    97    98   ar
    63    30    31    1
    64    15    14    1
    65    15    16    2
    66    56    55    2
    67    89    90   ar
    68    89    91   ar
    69    99   101   ar
    70    98   100   ar
    71    55    54    1
    72    14    13    1
    73    14    17    1
    74   201   203    1
    75   201   200    1
    76   194   195   ar
    77   194   192   ar
    78    95    94    2
    79    94   104   am
    80    31    32    1
    81   195   193   ar
    82   100   102   ar
    83   101   102   ar
    84    59    57    1
    85     7     6    1
    86   192   190   ar
    87    18    17    1
    88   188   187    2
    89    58    57    1
    90     1     2    1
    91   200   197    1
    92   102   103    1
    93     6     8    1
    94     6     5    1
    95    54    57    1
    96    54    53    1
    97    17    19    1
    98   197   196    1
    99   197   198    1
   100   104   105    1
   101   199   198    2
   102    32    33    1
   103   193   191   ar
   104   111   110    1
   105   190   191   ar
   106   190   189    1
   107     5     2    1
   108   187   186    1
   109    12    11    2
   110     2     3    1
   111   183   182   ar
   112   105   106    1
   113   105   108    1
   114   109   110    1
   115   109   108    1
   116   178   177    1
   117   178   179    1
   118   178   181    1
   119   185   186    1
   120   185   179   am
   121   177   174   am
   122   189   186    1
   123     9     3   am
   124     9    10    1
   125   179   180    2
   126   182   181    1
   127   182   184   ar
   128   170   169    1
   129   106   107    2
   130   106   112   am
   131   117   116    1
   132     3     4    2
   133    11    10    1
   134   112   113    1
   135   176   173    1
   136   173   174    1
   137   173   172    1
   138   174   175    2
   139   113   116    1
   140   113   114    1
   141   169   171    1
   142   169   168    1
   143   114   115    2
   144   114   118   am
   145   168   165    1
   146   118   119    1
   147   128   127    1
   148   128   129    1
   149   127   120   am
   150   165   164    1
   151   165   166    1
   152   166   167    2
   153   129   130    2
   154   129   131   am
   155   119   120    1
   156   119   122    1
   157   120   121    2
   158   131   132    1
   159   122   123    1
   160   123   124    1
   161   125   126    1
   162   125   124    1
   163   132   135    1
   164   132   133    1
   165   135   136    1
   166   144   142   ar
   167   133   134    2
   168   142   143   ar
   169   142   141    1
   170   141   138    1
   171   138   137    1
   172   138   139    1
   173   151   153   ar
   174   151   150   ar
   175   153   155   ar
   176   149   150    1
   177   149   146    1
   178   145   139   am
   179   145   146    1
   180   139   140    2
   181   150   152   ar
   182   146   147    1
   183   155   154   ar
   184   152   154   ar
   185   161   162    1
   186   161   160    1
   187   147   148    2
   188   163   162    1
   189   160   157    1
   190   156   157    1
   191   157   158    1
   192   158   159    2
