@<TRIPOS>MOLECULE
tmp/4ybnA03.pdb
 134 128 0 0 0
SMALL
GASTEIGER

@<TRIPOS>ATOM
      1  N         16.6140   -5.7950    4.3270 N.3     1  SER1       -0.1202
      2  CA        15.2140   -5.4260    4.7320 C.3     1  SER1        0.2020
      3  C         15.0890   -5.6810    6.2440 C.2     1  SER1        0.2619
      4  O         14.9320   -4.7110    7.0230 O.2     1  SER1       -0.2717
      5  CB        14.1400   -6.2000    3.9490 C.3     1  SER1        0.2103
      6  OG        12.8130   -5.7150    4.2170 O.3     1  SER1       -0.2182
      7  N         15.1910   -6.9630    6.6410 N.am    2  THR2       -0.1938
      8  CA        15.0070   -7.3850    8.0620 C.3     2  THR2        0.2028
      9  C         16.2720   -7.9500    8.7530 C.2     2  THR2        0.2642
     10  O         16.2400   -8.2900    9.9500 O.2     2  THR2       -0.2714
     11  CB        13.7980   -8.3690    8.2490 C.3     2  THR2        0.1808
     12  OG1       13.8570   -9.4350    7.2830 O.3     2  THR2       -0.2208
     13  CG2       12.4470   -7.5960    8.1240 C.3     2  THR2        0.0379
     14  N         17.3820   -8.0240    8.0150 N.am    3  ARG3       -0.1963
     15  CA        18.6560   -8.5260    8.5550 C.3     3  ARG3        0.1729
     16  C         19.5130   -7.3940    9.1920 C.2     3  ARG3        0.2616
     17  O         19.8390   -6.4260    8.5170 O.2     3  ARG3       -0.2715
     18  CB        19.4450   -9.1910    7.4160 C.3     3  ARG3        0.0348
     19  CG        20.6260  -10.0170    7.8900 C.3     3  ARG3        0.0492
     20  CD        21.2500  -10.8160    6.7490 C.3     3  ARG3        0.2205
     21  NE        20.3830  -11.9060    6.2630 N.pl3   3  ARG3       -0.0865
     22  CZ        20.2240  -13.1030    6.8490 C.cat   3  ARG3        0.5346
     23  NH1       20.8540  -13.4100    7.9840 N.pl3   3  ARG3        0.1354
     24  NH2       19.4180  -14.0110    6.2960 N.pl3   3  ARG3        0.1354
     25  N         19.8940   -7.5060   10.4690 N.am    4  VAL4       -0.1963
     26  CA        20.8310   -6.5030   11.0800 C.3     4  VAL4        0.1727
     27  C         22.2270   -6.6400   10.3900 C.2     4  VAL4        0.2617
     28  O         22.7080   -7.7750   10.1860 O.2     4  VAL4       -0.2715
     29  CB        20.9410   -6.6420   12.6450 C.3     4  VAL4        0.0290
     30  CG1       21.9860   -5.6860   13.2370 C.3     4  VAL4        0.0023
     31  CG2       19.5780   -6.4370   13.3390 C.3     4  VAL4        0.0023
     32  N         22.8460   -5.5000   10.0270 N.am    5  THR5       -0.1937
     33  CA        24.2610   -5.4460    9.5210 C.3     5  THR5        0.2028
     34  C         25.2970   -5.4130   10.6670 C.2     5  THR5        0.2642
     35  O         26.1150   -6.3350   10.7840 O.2     5  THR5       -0.2714
     36  CB        24.5700   -4.2130    8.6050 C.3     5  THR5        0.1808
     37  OG1       23.6890   -4.1870    7.4910 O.3     5  THR5       -0.2208
     38  CG2       26.0480   -4.2430    8.0600 C.3     5  THR5        0.0379
     39  N         25.2650   -4.3500   11.4930 N.am    6  ARG6       -0.1977
     40  CA        26.2670   -4.1510   12.5710 C.3     6  ARG6        0.1597
     41  C         25.8870   -4.9200   13.8490 C.2     6  ARG6        0.2287
     42  O         24.7010   -4.9000   14.2610 O.2     6  ARG6       -0.2864
     43  CB        26.4440   -2.6510   12.8900 C.3     6  ARG6        0.0334
     44  CG        26.7450   -1.7230   11.7000 C.3     6  ARG6        0.0492
     45  CD        27.9910   -2.1150   10.8960 C.3     6  ARG6        0.2205
     46  NE        29.1780   -2.2580   11.7420 N.pl3   6  ARG6       -0.0865
     47  CZ        30.4050   -2.5840   11.3140 C.cat   6  ARG6        0.5346
     48  NH1       30.6750   -2.8000   10.0240 N.pl3   6  ARG6        0.1354
     49  NH2       31.3830   -2.6910   12.1970 N.pl3   6  ARG6        0.1354
     50  N         10.9340    0.5290   21.1620 N.3    77  THR77      -0.1218
     51  CA        12.2450    0.5320   21.8310 C.3    77  THR77       0.1862
     52  C         12.1200    0.6720   23.3560 C.2    77  THR77       0.2287
     53  O         11.3410    1.4790   23.8810 O.2    77  THR77      -0.2866
     54  CB        13.1060    1.7030   21.2230 C.3    77  THR77       0.1770
     55  OG1       13.3790    1.4040   19.8420 O.3    77  THR77      -0.2211
     56  CG2       14.4260    1.8280   21.9070 C.3    77  THR77       0.0375
     57  N         14.7560    1.2910   26.4080 N.3    79  LEU79      -0.1245
     58  CA        16.1090    1.6980   26.8620 C.3    79  LEU79       0.1561
     59  C         16.3120    1.1970   28.2580 C.2    79  LEU79       0.2260
     60  O         15.6040    1.6440   29.1490 O.2    79  LEU79      -0.2867
     61  CB        16.1690    3.2120   26.8860 C.3    79  LEU79       0.0270
     62  CG        17.4670    3.9370   27.3230 C.3    79  LEU79       0.0019
     63  CD1       18.6240    3.4240   26.5370 C.3    79  LEU79       0.0001
     64  CD2       17.3270    5.4280   27.1120 C.3    79  LEU79       0.0001
     65  N         24.6440    1.5990   25.0890 N.3    93  PHE93      -0.1241
     66  CA        23.3970    1.5030   25.8060 C.3    93  PHE93       0.1605
     67  C         22.9520    0.0830   25.8130 C.2    93  PHE93       0.2264
     68  O         23.1860   -0.6270   24.8500 O.2    93  PHE93      -0.2867
     69  CB        22.3250    2.3010   25.1480 C.3    93  PHE93       0.0534
     70  CG        22.5240    3.7970   25.2070 C.ar   93  PHE93      -0.0203
     71  CD1       22.3890    4.4580   26.3360 C.ar   93  PHE93      -0.0042
     72  CD2       22.7900    4.5110   24.0850 C.ar   93  PHE93      -0.0042
     73  CE1       22.5290    5.8070   26.3900 C.ar   93  PHE93      -0.0003
     74  CE2       22.9580    5.8550   24.1230 C.ar   93  PHE93      -0.0003
     75  CZ        22.8240    6.5070   25.2760 C.ar   93  PHE93      -0.0000
     76  N         19.6280   -1.9860   25.4930 N.3    95  TYR95      -0.1241
     77  CA        18.2830   -1.7500   24.9260 C.3    95  TYR95       0.1605
     78  C         17.7120   -2.9810   24.2730 C.2    95  TYR95       0.2264
     79  O         18.4310   -3.9680   24.0640 O.2    95  TYR95      -0.2867
     80  CB        18.4000   -0.6840   23.8880 C.3    95  TYR95       0.0534
     81  CG        19.2490   -1.1250   22.7020 C.ar   95  TYR95      -0.0201
     82  CD1       18.7250   -1.9820   21.7190 C.ar   95  TYR95      -0.0009
     83  CD2       20.5800   -0.6870   22.5550 C.ar   95  TYR95      -0.0009
     84  CE1       19.4790   -2.3660   20.6180 C.ar   95  TYR95       0.0417
     85  CE2       21.3340   -1.0580   21.4420 C.ar   95  TYR95       0.0417
     86  CZ        20.7800   -1.9020   20.4840 C.ar   95  TYR95       0.1957
     87  OH        21.5110   -2.2850   19.3870 O.3    95  TYR95      -0.2866
     88  N         14.9650   -3.4680   20.8410 N.3    97  SER97      -0.1217
     89  CA        14.2810   -2.6890   19.8690 C.3    97  SER97       0.1889
     90  C         13.6590   -3.6150   18.8100 C.2    97  SER97       0.2288
     91  O         14.2940   -4.5990   18.4260 O.2    97  SER97      -0.2866
     92  CB        15.2610   -1.7210   19.1370 C.3    97  SER97       0.2089
     93  OG        14.4200   -0.8740   18.3090 O.3    97  SER97      -0.2183
     94  N         11.5630   -3.6190   14.9780 N.3    99  THR99      -0.1218
     95  CA        11.0990   -2.8710   13.8390 C.3    99  THR99       0.1862
     96  C         10.1820   -3.8000   13.0050 C.2    99  THR99       0.2287
     97  O         10.5520   -4.9490   12.7790 O.2    99  THR99      -0.2866
     98  CB        12.2430   -2.4140   12.9470 C.3    99  THR99       0.1770
     99  OG1       13.3010   -1.8710   13.7660 O.3    99  THR99      -0.2211
    100  CG2       11.7100   -1.3110   12.0730 C.3    99  THR99       0.0375
    101  N          7.2320   -3.9840    9.5640 N.3   101  PHE101     -0.1241
    102  CA         7.0130   -3.2900    8.2840 C.3   101  PHE101      0.1605
    103  C          5.7150   -3.8330    7.7550 C.2   101  PHE101      0.2264
    104  O          5.5240   -5.0290    7.8430 O.2   101  PHE101     -0.2867
    105  CB         8.1200   -3.7280    7.3250 C.3   101  PHE101      0.0534
    106  CG         9.4860   -3.3360    7.7670 C.ar  101  PHE101     -0.0203
    107  CD1        9.9440   -2.0360    7.5320 C.ar  101  PHE101     -0.0042
    108  CD2       10.3200   -4.2400    8.3970 C.ar  101  PHE101     -0.0042
    109  CE1       11.2310   -1.6390    7.9130 C.ar  101  PHE101     -0.0003
    110  CE2       11.6120   -3.8690    8.7860 C.ar  101  PHE101     -0.0003
    111  CZ        12.0580   -2.5530    8.5290 C.ar  101  PHE101     -0.0000
    112  N         12.0680   -7.3230   12.7750 N.3   155  SER155     -0.1202
    113  CA        13.4130   -7.5920   13.2230 C.3   155  SER155      0.2020
    114  C         13.5160   -7.2000   14.7220 C.2   155  SER155      0.2619
    115  O         12.8360   -6.2660   15.1720 O.2   155  SER155     -0.2717
    116  CB        14.4160   -6.8710   12.3370 C.3   155  SER155      0.2103
    117  OG        14.3620   -5.4840   12.5810 O.3   155  SER155     -0.2182
    118  N         14.2700   -7.9570   15.4760 N.am  156  LEU156     -0.1965
    119  CA        14.4720   -7.6790   16.8960 C.3   156  LEU156      0.1728
    120  C         15.9670   -7.5910   17.2030 C.2   156  LEU156      0.2616
    121  O         16.8030   -8.5060   16.8760 O.2   156  LEU156     -0.2715
    122  CB        13.7730   -8.7470   17.7490 C.3   156  LEU156      0.0311
    123  CG        13.8630   -8.5730   19.2670 C.3   156  LEU156      0.0022
    124  CD1       13.1190   -7.3970   19.8340 C.3   156  LEU156      0.0001
    125  CD2       13.3920   -9.8470   19.9140 C.3   156  LEU156      0.0001
    126  N         16.3530   -6.5120   17.8420 N.am  157  LYS157     -0.1977
    127  CA        17.7700   -6.3540   18.2870 C.3   157  LYS157      0.1596
    128  C         17.8820   -6.1360   19.7840 C.2   157  LYS157      0.2287
    129  O         17.1540   -5.3230   20.3790 O.2   157  LYS157     -0.2864
    130  CB        18.3800   -5.2300   17.5310 C.3   157  LYS157      0.0298
    131  CG        19.8900   -5.0890   17.7960 C.3   157  LYS157      0.0038
    132  CD        20.6210   -4.2730   16.7290 C.3   157  LYS157      0.0206
    133  CE        22.1530   -4.3530   16.9100 C.3   157  LYS157      0.1093
    134  NZ        22.7730   -3.3150   16.0300 N.3   157  LYS157     -0.1314
@<TRIPOS>BOND
     1     5     6    1
     2     5     2    1
     3     1     2    1
     4     2     3    1
     5     3     7   am
     6     3     4    2
     7    21    20    1
     8    21    22    2
     9    24    22    1
    10     7     8    1
    11    20    19    1
    12    22    23    1
    13    12    11    1
    14   105   106    1
    15   105   102    1
    16    18    19    1
    17    18    15    1
    18    37    36    1
    19   107   106   ar
    20   107   109   ar
    21   103   104    2
    22   103   102    1
    23   106   108   ar
    24   109   111   ar
    25    14    15    1
    26    14     9   am
    27    38    36    1
    28     8    11    1
    29     8     9    1
    30    13    11    1
    31   102   101    1
    32   108   110   ar
    33    17    16    2
    34   111   110   ar
    35    15    16    1
    36    36    33    1
    37     9    10    2
    38    16    25   am
    39    33    32    1
    40    33    34    1
    41    48    47    1
    42    32    27   am
    43    28    27    2
    44    27    26    1
    45    25    26    1
    46    34    35    2
    47    34    39   am
    48    45    44    1
    49    45    46    1
    50    26    29    1
    51    47    46    2
    52    47    49    1
    53    39    40    1
    54    44    43    1
    55   100    98    1
    56   116   117    1
    57   116   113    1
    58    40    43    1
    59    40    41    1
    60    29    30    1
    61    29    31    1
    62   112   113    1
    63    97    96    2
    64    98    99    1
    65    98    95    1
    66    96    95    1
    67   113   114    1
    68    95    94    1
    69    41    42    2
    70   114   115    2
    71   114   118   am
    72   118   119    1
    73   134   133    1
    74   132   133    1
    75   132   131    1
    76   121   120    2
    77   119   120    1
    78   119   122    1
    79   120   126   am
    80   130   131    1
    81   130   127    1
    82   122   123    1
    83   126   127    1
    84   127   128    1
    85    93    92    1
    86    91    90    2
    87    90    89    1
    88    92    89    1
    89   123   124    1
    90   123   125    1
    91    87    86    1
    92   128   129    2
    93    55    54    1
    94    89    88    1
    95    86    84   ar
    96    86    85   ar
    97    84    82   ar
    98    50    51    1
    99    54    51    1
   100    54    56    1
   101    85    83   ar
   102    82    81   ar
   103    51    52    1
   104    83    81   ar
   105    81    80    1
   106    52    53    2
   107    80    77    1
   108    79    78    2
   109    72    74   ar
   110    72    70   ar
   111    74    75   ar
   112    78    77    1
   113    68    67    2
   114    77    76    1
   115    65    66    1
   116    69    70    1
   117    69    66    1
   118    70    71   ar
   119    75    73   ar
   120    66    67    1
   121    71    73   ar
   122    57    58    1
   123    63    62    1
   124    58    61    1
   125    58    59    1
   126    61    62    1
   127    64    62    1
   128    59    60    2
