@<TRIPOS>MOLECULE
tmp/4ybnA00.pdb
 128 120 0 0 0
SMALL
GASTEIGER

@<TRIPOS>ATOM
      1  N          0.4760    5.4610   20.8540 N.3    44  GLY44      -0.1225
      2  CA         0.2950    4.2100   21.6430 C.3    44  GLY44       0.1811
      3  C         -0.1290    2.9920   20.8350 C.2    44  GLY44       0.2280
      4  O         -0.8570    3.0950   19.8630 O.2    44  GLY44      -0.2866
      5  N         -4.8470    3.4590   17.4340 N.3    55  HIS55      -0.1226
      6  CA        -6.0310    4.1960   17.1640 C.3    55  HIS55       0.1752
      7  C         -5.9110    5.6770   17.2930 C.2    55  HIS55       0.2597
      8  O         -4.9460    6.1980   17.8560 O.2    55  HIS55      -0.2718
      9  CB        -7.1300    3.6970   18.0770 C.3    55  HIS55       0.0759
     10  CG        -7.0590    4.2490   19.4280 C.ar   55  HIS55       0.0818
     11  ND1       -5.9260    4.1310   20.1970 N.ar   55  HIS55      -0.2268
     12  CD2       -7.9470    4.9810   20.1420 C.ar   55  HIS55       0.1154
     13  CE1       -6.1400    4.7360   21.3550 C.ar   55  HIS55       0.1986
     14  NE2       -7.3540    5.2550   21.3410 N.ar   55  HIS55      -0.2212
     15  N         -6.9110    6.3860   16.8340 N.am   56  GLY56      -0.1942
     16  CA        -6.9050    7.8500   17.0100 C.3    56  GLY56       0.2014
     17  C         -8.0410    8.5050   16.2890 C.2    56  GLY56       0.2639
     18  O         -8.9740    7.7980   15.9320 O.2    56  GLY56      -0.2714
     19  N         -7.9660    9.8210   16.0550 N.am   57  SER57      -0.1949
     20  CA        -9.0720   10.5410   15.4770 C.3    57  SER57       0.1924
     21  C         -9.2030   10.2120   14.0030 C.2    57  SER57       0.2314
     22  O         -8.2080   10.1660   13.2600 O.2    57  SER57      -0.2863
     23  CB        -8.9220   12.0720   15.6650 C.3    57  SER57       0.2116
     24  OG        -9.9580   12.7820   14.9790 O.3    57  SER57      -0.2180
     25  N        -11.0120   -2.0600   20.1870 N.3   116  LEU116     -0.1231
     26  CA       -10.7530   -0.9840   21.1110 C.3   116  LEU116      0.1693
     27  C        -10.7870   -1.4250   22.5790 C.2   116  LEU116      0.2592
     28  O         -9.9420   -1.0390   23.3650 O.2   116  LEU116     -0.2718
     29  CB       -11.6590    0.2190   20.8910 C.3   116  LEU116      0.0284
     30  CG       -11.4000    0.9010   19.5610 C.3   116  LEU116      0.0019
     31  CD1      -12.4430    1.9540   19.2850 C.3   116  LEU116      0.0001
     32  CD2      -10.0220    1.5730   19.4860 C.3   116  LEU116      0.0001
     33  N        -11.6870   -2.3290   22.9050 N.am  117  ASP117     -0.1974
     34  CA       -11.7560   -2.9190   24.2020 C.3   117  ASP117      0.1709
     35  C        -10.4530   -3.6480   24.4530 C.2   117  ASP117      0.2293
     36  O         -9.8490   -3.5270   25.5570 O.2   117  ASP117     -0.2864
     37  CB       -12.9280   -3.8990   24.3360 C.3   117  ASP117      0.1436
     38  CG       -14.3160   -3.1990   24.4780 C.2   117  ASP117      0.3671
     39  OD1      -14.4300   -1.9510   24.4440 O.co2 117  ASP117     -0.2456
     40  OD2      -15.3110   -3.9450   24.5920 O.co2 117  ASP117     -0.2456
     41  N         -7.5880   -3.1410   23.0470 N.3   119  LEU119     -0.1231
     42  CA        -6.5290   -2.1160   23.1000 C.3   119  LEU119      0.1693
     43  C         -6.5210   -1.4630   24.4610 C.2   119  LEU119      0.2592
     44  O         -5.4750   -1.3970   25.1260 O.2   119  LEU119     -0.2718
     45  CB        -6.6950   -1.0550   21.9800 C.3   119  LEU119      0.0284
     46  CG        -5.6360    0.0660   21.8760 C.3   119  LEU119      0.0019
     47  CD1       -4.2690   -0.5600   21.8160 C.3   119  LEU119      0.0001
     48  CD2       -5.7860    1.0520   20.6800 C.3   119  LEU119      0.0001
     49  N         -7.6900   -1.0250   24.9260 N.am  120  THR120     -0.1953
     50  CA        -7.7690   -0.4260   26.2720 C.3   120  THR120      0.1897
     51  C         -7.1990   -1.3030   27.3990 C.2   120  THR120      0.2313
     52  O         -6.4560   -0.8300   28.2530 O.2   120  THR120     -0.2863
     53  CB        -9.2320   -0.1420   26.5820 C.3   120  THR120      0.1794
     54  OG1       -9.6490    0.8840   25.7020 O.3   120  THR120     -0.2208
     55  CG2       -9.4390    0.2650   28.0160 C.3   120  THR120      0.0378
     56  N         -3.3870   -1.0650   27.6810 N.3   123  PHE123     -0.1227
     57  CA        -2.8960    0.1680   28.2510 C.3   123  PHE123      0.1736
     58  C         -3.1790    0.1550   29.7400 C.2   123  PHE123      0.2595
     59  O         -2.3110    0.5330   30.5210 O.2   123  PHE123     -0.2718
     60  CB        -3.5520    1.4440   27.6190 C.3   123  PHE123      0.0547
     61  CG        -3.2230    1.6840   26.1420 C.ar  123  PHE123     -0.0202
     62  CD1       -1.9840    1.3120   25.5860 C.ar  123  PHE123     -0.0042
     63  CD2       -4.1520    2.3190   25.3140 C.ar  123  PHE123     -0.0042
     64  CE1       -1.7140    1.5530   24.2480 C.ar  123  PHE123     -0.0003
     65  CE2       -3.8850    2.5660   23.9550 C.ar  123  PHE123     -0.0003
     66  CZ        -2.6720    2.1700   23.4180 C.ar  123  PHE123     -0.0000
     67  N         -4.4070   -0.2110   30.1330 N.am  124  ILE124     -0.1980
     68  CA        -4.8530   -0.1900   31.5860 C.3   124  ILE124      0.1595
     69  C         -5.5480   -1.5240   31.7890 C.2   124  ILE124      0.2287
     70  O         -6.7290   -1.6400   31.4550 O.2   124  ILE124     -0.2864
     71  CB        -5.8170    0.9650   31.8820 C.3   124  ILE124      0.0276
     72  CG1       -5.2200    2.3350   31.4620 C.3   124  ILE124      0.0022
     73  CG2       -6.1890    1.0300   33.3620 C.3   124  ILE124      0.0022
     74  CD1       -6.2310    3.3730   30.9480 C.3   124  ILE124      0.0001
     75  N         -9.5100   -2.6360   32.6150 N.3   127  ARG127     -0.1245
     76  CA       -10.2080   -1.3800   32.6690 C.3   127  ARG127      0.1563
     77  C        -11.5080   -1.4440   31.9510 C.2   127  ARG127      0.2260
     78  O        -12.4450   -0.7690   32.3480 O.2   127  ARG127     -0.2867
     79  CB        -9.3780   -0.2520   32.0740 C.3   127  ARG127      0.0307
     80  CG        -9.9480    1.1410   32.1890 C.3   127  ARG127      0.0489
     81  CD       -10.2210    1.5430   33.6580 C.3   127  ARG127      0.2205
     82  NE       -10.6090    2.9470   33.7760 N.pl3 127  ARG127     -0.0865
     83  CZ       -11.2370    3.4660   34.8040 C.cat 127  ARG127      0.5346
     84  NH1      -11.5550    2.7130   35.8440 N.pl3 127  ARG127      0.1354
     85  NH2      -11.5630    4.7270   34.8320 N.pl3 127  ARG127      0.1354
     86  N        -15.5910    0.1860   32.8770 N.3   131  LEU131     -0.1245
     87  CA       -16.1440    1.3370   32.2300 C.3   131  LEU131      0.1561
     88  C        -17.4550    0.9790   31.4980 C.2   131  LEU131      0.2260
     89  O        -17.6580   -0.1390   31.0590 O.2   131  LEU131     -0.2867
     90  CB       -15.1590    1.8360   31.1640 C.3   131  LEU131      0.0270
     91  CG       -13.7340    2.1740   31.5270 C.3   131  LEU131      0.0019
     92  CD1      -12.8350    2.1360   30.3200 C.3   131  LEU131      0.0001
     93  CD2      -13.6920    3.5640   32.0850 C.3   131  LEU131      0.0001
     94  N        -18.4310    2.0880   24.9570 N.3   134  SER134     -0.1217
     95  CA       -18.2740    3.2820   24.1510 C.3   134  SER134      0.1889
     96  C        -19.5680    3.5460   23.3920 C.2   134  SER134      0.2288
     97  O        -20.3190    2.6050   23.1020 O.2   134  SER134     -0.2866
     98  CB       -17.1130    3.0510   23.1850 C.3   134  SER134      0.2089
     99  OG       -15.8750    2.9560   23.9220 O.3   134  SER134     -0.2183
    100  N        -18.7200    7.9380   19.7720 N.3   138  GLU138     -0.1231
    101  CA       -17.3150    7.7430   20.1030 C.3   138  GLU138      0.1699
    102  C        -16.6410    6.8130   19.0840 C.2   138  GLU138      0.2592
    103  O        -15.5280    7.0930   18.6100 O.2   138  GLU138     -0.2718
    104  CB       -17.1230    7.1990   21.5330 C.3   138  GLU138      0.0402
    105  CG       -17.4210    8.2540   22.6050 C.3   138  GLU138      0.1161
    106  CD       -17.6020    7.6840   24.0050 C.2   138  GLU138      0.3649
    107  OE1      -17.8070    6.4640   24.1640 O.co2 138  GLU138     -0.2457
    108  OE2      -17.4760    8.4840   24.9690 O.co2 138  GLU138     -0.2457
    109  N        -17.2970    5.7060   18.7510 N.am  139  LEU139     -0.1980
    110  CA       -16.6920    4.7970   17.7930 C.3   139  LEU139      0.1596
    111  C        -16.5680    5.4350   16.4270 C.2   139  LEU139      0.2287
    112  O        -15.5500    5.2790   15.7740 O.2   139  LEU139     -0.2864
    113  CB       -17.4680    3.4940   17.7420 C.3   139  LEU139      0.0297
    114  CG       -17.4750    2.7240   19.0470 C.3   139  LEU139      0.0022
    115  CD1      -18.5710    1.6660   19.0730 C.3   139  LEU139      0.0001
    116  CD2      -16.1240    2.0650   19.2390 C.3   139  LEU139      0.0001
    117  N        -16.0750    8.5080   15.7320 N.3   141  ALA141     -0.1231
    118  CA       -14.9600    9.4680   15.7640 C.3   141  ALA141      0.1694
    119  C        -13.5510    8.8000   15.8450 C.2   141  ALA141      0.2592
    120  O        -12.5700    9.4750   15.8210 O.2   141  ALA141     -0.2718
    121  CB       -15.1280   10.4370   16.9180 C.3   141  ALA141      0.0304
    122  N        -13.4850    7.4900   15.8260 N.am  142  THR142     -0.1953
    123  CA       -12.2530    6.7210   16.0190 C.3   142  THR142      0.1897
    124  C        -11.8790    5.8370   14.8180 C.2   142  THR142      0.2313
    125  O        -12.6660    5.1110   14.2380 O.2   142  THR142     -0.2863
    126  CB       -12.3450    5.8720   17.3300 C.3   142  THR142      0.1794
    127  OG1      -12.6090    6.7490   18.4210 O.3   142  THR142     -0.2208
    128  CG2      -11.0580    5.1280   17.7160 C.3   142  THR142      0.0378
@<TRIPOS>BOND
     1    22    21    2
     2    21    20    1
     3   125   124    2
     4   124   123    1
     5    24    23    1
     6    20    23    1
     7    20    19    1
     8   117   118    1
     9   118   119    1
    10   118   121    1
    11   112   111    2
    12   120   119    2
    13   122   119   am
    14   122   123    1
    15    18    17    2
    16   123   126    1
    17    19    17   am
    18    17    16    1
    19   111   110    1
    20    15    16    1
    21    15     7   am
    22     6     7    1
    23     6     5    1
    24     6     9    1
    25     7     8    2
    26   126   128    1
    27   126   127    1
    28   113   110    1
    29   113   114    1
    30   110   109    1
    31     9    10    1
    32   103   102    2
    33   109   102   am
    34   114   115    1
    35   114   116    1
    36   102   101    1
    37    31    30    1
    38    10    12   ar
    39    10    11   ar
    40    32    30    1
    41    30    29    1
    42   100   101    1
    43     4     3    2
    44   101   104    1
    45    12    14   ar
    46    25    26    1
    47    11    13   ar
    48    48    46    1
    49     3     2    1
    50     1     2    1
    51    29    26    1
    52    26    27    1
    53    14    13   ar
    54   104   105    1
    55    47    46    1
    56    46    45    1
    57    45    42    1
    58    27    33   am
    59    27    28    2
    60   105   106    1
    61    33    34    1
    62    41    42    1
    63    42    43    1
    64    97    96    2
    65    98    99    1
    66    98    95    1
    67    96    95    1
    68    66    65   ar
    69    66    64   ar
    70    65    63   ar
    71   106   107   ar
    72   106   108   ar
    73    95    94    1
    74    34    37    1
    75    34    35    1
    76    64    62   ar
    77    37    38    1
    78    39    38   ar
    79    35    36    2
    80    43    49   am
    81    43    44    2
    82    38    40   ar
    83    49    50    1
    84    63    61   ar
    85    62    61   ar
    86    54    53    1
    87    61    60    1
    88    50    53    1
    89    50    51    1
    90    53    55    1
    91    51    52    2
    92    60    57    1
    93    56    57    1
    94    57    58    1
    95    58    67   am
    96    58    59    2
    97    67    68    1
    98    92    91    1
    99    74    72    1
   100    89    88    2
   101    90    91    1
   102    90    87    1
   103    70    69    2
   104    72    71    1
   105    88    87    1
   106    91    93    1
   107    68    69    1
   108    68    71    1
   109    71    73    1
   110    77    78    2
   111    77    76    1
   112    79    80    1
   113    79    76    1
   114    80    81    1
   115    87    86    1
   116    75    76    1
   117    81    82    1
   118    82    83    2
   119    83    85    1
   120    83    84    1
