@<TRIPOS>MOLECULE
tmp/4ybnA01.pdb
 96 92 0 0 0
SMALL
GASTEIGER

@<TRIPOS>ATOM
      1  N         25.2650   -4.3500   11.4930 N.3     6  ARG6       -0.1231
      2  CA        26.2670   -4.1510   12.5710 C.3     6  ARG6        0.1694
      3  C         25.8870   -4.9200   13.8490 C.2     6  ARG6        0.2591
      4  O         24.7010   -4.9000   14.2610 O.2     6  ARG6       -0.2718
      5  CB        26.4440   -2.6510   12.8900 C.3     6  ARG6        0.0321
      6  CG        26.7450   -1.7230   11.7000 C.3     6  ARG6        0.0489
      7  CD        27.9910   -2.1150   10.8960 C.3     6  ARG6        0.2205
      8  NE        29.1780   -2.2580   11.7420 N.pl3   6  ARG6       -0.0865
      9  CZ        30.4050   -2.5840   11.3140 C.cat   6  ARG6        0.5346
     10  NH1       30.6750   -2.8000   10.0240 N.pl3   6  ARG6        0.1354
     11  NH2       31.3830   -2.6910   12.1970 N.pl3   6  ARG6        0.1354
     12  N         26.8900   -5.5740   14.4660 N.am    7  LEU7       -0.1980
     13  CA        26.7320   -6.3900   15.7000 C.3     7  LEU7        0.1596
     14  C         25.5020   -7.3000   15.6230 C.2     7  LEU7        0.2287
     15  O         24.6430   -7.3330   16.5170 O.2     7  LEU7       -0.2864
     16  CB        26.7130   -5.5040   16.9600 C.3     7  LEU7        0.0297
     17  CG        27.9860   -4.6770   17.2240 C.3     7  LEU7        0.0022
     18  CD1       27.7380   -3.5300   18.2000 C.3     7  LEU7        0.0001
     19  CD2       29.0980   -5.5970   17.7150 C.3     7  LEU7        0.0001
     20  N         23.6300   -9.5400   18.0630 N.3    10  LYS10      -0.1245
     21  CA        22.5610   -8.9380   18.8430 C.3    10  LYS10       0.1561
     22  C         21.1490   -9.1300   18.2470 C.2    10  LYS10       0.2260
     23  O         20.1470   -8.8200   18.9240 O.2    10  LYS10      -0.2867
     24  CB        22.8440   -7.4580   19.0080 C.3    10  LYS10       0.0271
     25  CG        23.9780   -7.2000   19.9800 C.3    10  LYS10       0.0035
     26  CD        24.4560   -5.7770   19.8690 C.3    10  LYS10       0.0206
     27  CE        25.5720   -5.5150   20.8620 C.3    10  LYS10       0.1093
     28  NZ        25.6080   -4.0500   21.1310 N.3    10  LYS10      -0.1314
     29  N         22.7920    2.2820   30.5340 N.3    82  VAL82      -0.1245
     30  CA        23.9550    2.9070   29.9630 C.3    82  VAL82       0.1561
     31  C         25.1640    2.0230   30.2850 C.2    82  VAL82       0.2260
     32  O         25.4380    1.7140   31.4810 O.2    82  VAL82      -0.2867
     33  CB        24.2010    4.2990   30.4940 C.3    82  VAL82       0.0252
     34  CG1       25.3400    4.9920   29.7320 C.3    82  VAL82       0.0019
     35  CG2       22.9450    5.1590   30.4220 C.3    82  VAL82       0.0019
     36  N         35.4650    5.8880   25.6190 N.3    88  SER88      -0.1202
     37  CA        34.1660    6.3460   25.0110 C.3    88  SER88       0.2020
     38  C         33.7860    5.4900   23.8250 C.2    88  SER88       0.2618
     39  O         32.5920    5.2290   23.5500 O.2    88  SER88      -0.2717
     40  CB        34.2420    7.7840   24.6170 C.3    88  SER88       0.2103
     41  OG        35.3650    7.9540   23.8210 O.3    88  SER88      -0.2182
     42  N         34.7990    4.9840   23.1260 N.am   89  PHE89      -0.1975
     43  CA        34.5350    4.1890   21.9680 C.3    89  PHE89       0.1639
     44  C         33.7260    2.9350   22.2800 C.2    89  PHE89       0.2290
     45  O         32.9270    2.5120   21.4480 O.2    89  PHE89      -0.2864
     46  CB        35.8350    3.8920   21.2290 C.3    89  PHE89       0.0560
     47  CG        35.6830    2.9530   20.0800 C.ar   89  PHE89      -0.0200
     48  CD1       35.2720    3.4180   18.8540 C.ar   89  PHE89      -0.0042
     49  CD2       35.9590    1.6040   20.2370 C.ar   89  PHE89      -0.0042
     50  CE1       35.1290    2.5590   17.7900 C.ar   89  PHE89      -0.0003
     51  CE2       35.8710    0.7390   19.1610 C.ar   89  PHE89      -0.0003
     52  CZ        35.4410    1.2230   17.9330 C.ar   89  PHE89      -0.0000
     53  N         31.6640    2.6270   24.8920 N.3    91  SER91      -0.1202
     54  CA        30.5460    2.9050   25.7440 C.3    91  SER91       0.2020
     55  C         29.2990    2.7750   24.8890 C.2    91  SER91       0.2619
     56  O         29.3800    2.8860   23.6860 O.2    91  SER91      -0.2717
     57  CB        30.6370    4.2800   26.3730 C.3    91  SER91       0.2103
     58  OG        31.6750    4.2630   27.3470 O.3    91  SER91      -0.2182
     59  N         28.1480    2.5520   25.5130 N.am   92  SER92      -0.1937
     60  CA        26.9290    2.2800   24.7510 C.3    92  SER92       0.2055
     61  C         25.7260    2.1150   25.6570 C.2    92  SER92       0.2643
     62  O         25.7890    2.4070   26.8590 O.2    92  SER92      -0.2714
     63  CB        27.1060    1.0330   23.8810 C.3    92  SER92       0.2130
     64  OG        27.4020   -0.0740   24.7000 O.3    92  SER92      -0.2179
     65  N         24.6440    1.5990   25.0890 N.am   93  PHE93      -0.1973
     66  CA        23.3970    1.5030   25.8060 C.3    93  PHE93       0.1639
     67  C         22.9520    0.0830   25.8130 C.2    93  PHE93       0.2290
     68  O         23.1860   -0.6270   24.8500 O.2    93  PHE93      -0.2864
     69  CB        22.3250    2.3010   25.1480 C.3    93  PHE93       0.0560
     70  CG        22.5240    3.7970   25.2070 C.ar   93  PHE93      -0.0200
     71  CD1       22.3890    4.4580   26.3360 C.ar   93  PHE93      -0.0042
     72  CD2       22.7900    4.5110   24.0850 C.ar   93  PHE93      -0.0042
     73  CE1       22.5290    5.8070   26.3900 C.ar   93  PHE93      -0.0003
     74  CE2       22.9580    5.8550   24.1230 C.ar   93  PHE93      -0.0003
     75  CZ        22.8240    6.5070   25.2760 C.ar   93  PHE93      -0.0000
     76  N         19.6280   -1.9860   25.4930 N.3    95  TYR95      -0.1241
     77  CA        18.2830   -1.7500   24.9260 C.3    95  TYR95       0.1605
     78  C         17.7120   -2.9810   24.2730 C.2    95  TYR95       0.2264
     79  O         18.4310   -3.9680   24.0640 O.2    95  TYR95      -0.2867
     80  CB        18.4000   -0.6840   23.8880 C.3    95  TYR95       0.0534
     81  CG        19.2490   -1.1250   22.7020 C.ar   95  TYR95      -0.0201
     82  CD1       18.7250   -1.9820   21.7190 C.ar   95  TYR95      -0.0009
     83  CD2       20.5800   -0.6870   22.5550 C.ar   95  TYR95      -0.0009
     84  CE1       19.4790   -2.3660   20.6180 C.ar   95  TYR95       0.0417
     85  CE2       21.3340   -1.0580   21.4420 C.ar   95  TYR95       0.0417
     86  CZ        20.7800   -1.9020   20.4840 C.ar   95  TYR95       0.1957
     87  OH        21.5110   -2.2850   19.3870 O.3    95  TYR95      -0.2866
     88  N         16.3530   -6.5120   17.8420 N.3   157  LYS157     -0.1245
     89  CA        17.7700   -6.3540   18.2870 C.3   157  LYS157      0.1561
     90  C         17.8820   -6.1360   19.7840 C.2   157  LYS157      0.2260
     91  O         17.1540   -5.3230   20.3790 O.2   157  LYS157     -0.2867
     92  CB        18.3800   -5.2300   17.5310 C.3   157  LYS157      0.0271
     93  CG        19.8900   -5.0890   17.7960 C.3   157  LYS157      0.0035
     94  CD        20.6210   -4.2730   16.7290 C.3   157  LYS157      0.0206
     95  CE        22.1530   -4.3530   16.9100 C.3   157  LYS157      0.1093
     96  NZ        22.7730   -3.3150   16.0300 N.3   157  LYS157     -0.1314
@<TRIPOS>BOND
     1    10     9    1
     2     7     6    1
     3     7     8    1
     4     9     8    2
     5     9    11    1
     6     1     2    1
     7     6     5    1
     8     2     5    1
     9     2     3    1
    10     3     4    2
    11     3    12   am
    12    12    13    1
    13    14    13    1
    14    14    15    2
    15    13    16    1
    16    96    95    1
    17    94    95    1
    18    94    93    1
    19    16    17    1
    20    17    19    1
    21    17    18    1
    22    92    93    1
    23    92    89    1
    24    50    52   ar
    25    50    48   ar
    26    88    89    1
    27    52    51   ar
    28    20    21    1
    29    22    21    1
    30    22    23    2
    31    89    90    1
    32    21    24    1
    33    48    47   ar
    34    24    25    1
    35    51    49   ar
    36    87    86    1
    37    90    91    2
    38    26    25    1
    39    26    27    1
    40    47    49   ar
    41    47    46    1
    42    86    84   ar
    43    86    85   ar
    44    84    82   ar
    45    27    28    1
    46    46    43    1
    47    85    83   ar
    48    45    44    2
    49    82    81   ar
    50    43    44    1
    51    43    42    1
    52    83    81   ar
    53    81    80    1
    54    42    38   am
    55    39    38    2
    56    56    55    2
    57    41    40    1
    58    38    37    1
    59    63    64    1
    60    63    60    1
    61    80    77    1
    62    79    78    2
    63    72    74   ar
    64    72    70   ar
    65    74    75   ar
    66    78    77    1
    67    40    37    1
    68    60    59    1
    69    60    61    1
    70    68    67    2
    71    55    59   am
    72    55    54    1
    73    53    54    1
    74    77    76    1
    75    37    36    1
    76    65    61   am
    77    65    66    1
    78    69    70    1
    79    69    66    1
    80    70    71   ar
    81    75    73   ar
    82    61    62    2
    83    54    57    1
    84    66    67    1
    85    71    73   ar
    86    57    58    1
    87    34    33    1
    88    30    31    1
    89    30    33    1
    90    30    29    1
    91    31    32    2
    92    35    33    1
