@<TRIPOS>MOLECULE
tmp/4ybnA02.pdb
 111 112 0 0 0
SMALL
GASTEIGER

@<TRIPOS>ATOM
      1  N          4.5350    2.6020   23.6400 N.3    27  LEU27      -0.1245
      2  CA         4.7520    3.6190   22.6310 C.3    27  LEU27       0.1561
      3  C          5.4280    3.0090   21.4310 C.2    27  LEU27       0.2260
      4  O          6.4000    2.2500   21.5550 O.2    27  LEU27      -0.2867
      5  CB         5.5890    4.7430   23.2180 C.3    27  LEU27       0.0270
      6  CG         6.3930    5.6640   22.3180 C.3    27  LEU27       0.0019
      7  CD1        5.4760    6.5320   21.4840 C.3    27  LEU27       0.0001
      8  CD2        7.3370    6.4950   23.1890 C.3    27  LEU27       0.0001
      9  N          8.1870   10.7790    7.2710 N.3    39  VAL39      -0.1245
     10  CA         7.5150   11.3720    8.4030 C.3    39  VAL39       0.1561
     11  C          7.5040   10.3390    9.5320 C.2    39  VAL39       0.2260
     12  O          7.5270    9.0980    9.2910 O.2    39  VAL39      -0.2867
     13  CB         6.1190   11.9480    8.1490 C.3    39  VAL39       0.0252
     14  CG1        6.0570   12.8020    6.8900 C.3    39  VAL39       0.0019
     15  CG2        5.1020   10.8690    8.0840 C.3    39  VAL39       0.0019
     16  N          5.9490    9.6620   13.7120 N.3    41  PHE41      -0.1228
     17  CA         5.1310   10.1760   14.7960 C.3    41  PHE41       0.1721
     18  C          5.0000    9.0960   15.8320 C.2    41  PHE41       0.2437
     19  O          5.0420    7.9380   15.5310 O.2    41  PHE41      -0.2733
     20  CB         3.7920   10.6860   14.3240 C.3    41  PHE41       0.0547
     21  CG         2.8970    9.6420   13.7220 C.ar   41  PHE41      -0.0202
     22  CD1        1.9940    8.9760   14.5000 C.ar   41  PHE41      -0.0042
     23  CD2        2.9200    9.3740   12.3920 C.ar   41  PHE41      -0.0042
     24  CE1        1.1080    8.0200   13.9630 C.ar   41  PHE41      -0.0003
     25  CE2        2.0750    8.3930   11.8480 C.ar   41  PHE41      -0.0003
     26  CZ         1.1820    7.7090   12.6400 C.ar   41  PHE41      -0.0000
     27  N          4.9410    9.4710   17.0720 N.am   42  PRO42      -0.2718
     28  CA         4.7420    8.5430   18.1080 C.3    42  PRO42       0.1535
     29  C          3.2880    8.2050   18.3000 C.2    42  PRO42       0.2598
     30  O          2.3710    9.0350   18.0110 O.2    42  PRO42      -0.2715
     31  CB         5.2190    9.3380   19.3490 C.3    42  PRO42       0.0310
     32  CG         4.9590   10.7170   19.0160 C.3    42  PRO42       0.0237
     33  CD         5.1140   10.8470   17.5540 C.3    42  PRO42       0.0939
     34  N          2.9870    7.0330   18.8070 N.am   43  ILE43      -0.1964
     35  CA         1.5840    6.6800   19.0520 C.3    43  ILE43       0.1727
     36  C          1.4910    5.5120   19.9930 C.2    43  ILE43       0.2616
     37  O          2.3490    4.6250   19.9960 O.2    43  ILE43      -0.2715
     38  CB         0.8830    6.3560   17.6920 C.3    43  ILE43       0.0290
     39  CG1       -0.6240    6.2620   17.8910 C.3    43  ILE43       0.0022
     40  CG2        1.4210    5.0590   17.1650 C.3    43  ILE43       0.0023
     41  CD1       -1.5660    6.5760   16.7490 C.3    43  ILE43       0.0001
     42  N          0.4760    5.4610   20.8540 N.am   44  GLY44      -0.1955
     43  CA         0.2950    4.2100   21.6430 C.3    44  GLY44       0.1869
     44  C         -0.1290    2.9920   20.8350 C.2    44  GLY44       0.2309
     45  O         -0.8570    3.0950   19.8630 O.2    44  GLY44      -0.2863
     46  N         -4.8470    3.4590   17.4340 N.3    55  HIS55      -0.1226
     47  CA        -6.0310    4.1960   17.1640 C.3    55  HIS55       0.1752
     48  C         -5.9110    5.6770   17.2930 C.2    55  HIS55       0.2597
     49  O         -4.9460    6.1980   17.8560 O.2    55  HIS55      -0.2718
     50  CB        -7.1300    3.6970   18.0770 C.3    55  HIS55       0.0759
     51  CG        -7.0590    4.2490   19.4280 C.ar   55  HIS55       0.0818
     52  ND1       -5.9260    4.1310   20.1970 N.ar   55  HIS55      -0.2268
     53  CD2       -7.9470    4.9810   20.1420 C.ar   55  HIS55       0.1154
     54  CE1       -6.1400    4.7360   21.3550 C.ar   55  HIS55       0.1986
     55  NE2       -7.3540    5.2550   21.3410 N.ar   55  HIS55      -0.2212
     56  N         -6.9110    6.3860   16.8340 N.am   56  GLY56      -0.1942
     57  CA        -6.9050    7.8500   17.0100 C.3    56  GLY56       0.2014
     58  C         -8.0410    8.5050   16.2890 C.2    56  GLY56       0.2639
     59  O         -8.9740    7.7980   15.9320 O.2    56  GLY56      -0.2714
     60  N         -7.9660    9.8210   16.0550 N.am   57  SER57      -0.1949
     61  CA        -9.0720   10.5410   15.4770 C.3    57  SER57       0.1924
     62  C         -9.2030   10.2120   14.0030 C.2    57  SER57       0.2314
     63  O         -8.2080   10.1660   13.2600 O.2    57  SER57      -0.2863
     64  CB        -8.9220   12.0720   15.6650 C.3    57  SER57       0.2116
     65  OG        -9.9580   12.7820   14.9790 O.3    57  SER57      -0.2180
     66  N         -7.2610   12.7900   11.9450 N.3    60  SER60      -0.1203
     67  CA        -5.8100   12.8860   11.9170 C.3    60  SER60       0.2005
     68  C         -5.3090   12.6080   10.5190 C.2    60  SER60       0.2461
     69  O         -5.6050   11.5510    9.9870 O.2    60  SER60      -0.2732
     70  CB        -5.2300   11.8110   12.8450 C.3    60  SER60       0.2103
     71  OG        -3.8550   11.5540   12.6250 O.3    60  SER60      -0.2182
     72  N         -4.5050   13.5060    9.9290 N.am   61  PRO61      -0.2717
     73  CA        -4.0020   13.2310    8.5750 C.3    61  PRO61       0.1535
     74  C         -3.0480   12.1120    8.5180 C.2    61  PRO61       0.2599
     75  O         -3.0360   11.4010    7.5320 O.2    61  PRO61      -0.2715
     76  CB        -3.2940   14.5300    8.1800 C.3    61  PRO61       0.0310
     77  CG        -3.9670   15.5780    8.9880 C.3    61  PRO61       0.0237
     78  CD        -4.3120   14.9180   10.2980 C.3    61  PRO61       0.0939
     79  N         -2.2890   11.9190    9.5910 N.am   62  TRP62      -0.1960
     80  CA        -1.3550   10.8340    9.6940 C.3    62  TRP62       0.1771
     81  C         -2.0270    9.5000    9.7020 C.2    62  TRP62       0.2619
     82  O         -1.6910    8.5920    8.9210 O.2    62  TRP62      -0.2715
     83  CB        -0.6630   10.9760   11.0150 C.3    62  TRP62       0.0590
     84  CG         0.3810   11.8330   10.9720 C.ar   62  TRP62       0.0006
     85  CD1        1.0600   12.2560    9.8600 C.ar   62  TRP62       0.0946
     86  CD2        1.0390   12.3810   12.0980 C.ar   62  TRP62       0.0152
     87  NE1        2.1050   13.0510   10.2400 N.ar   62  TRP62      -0.2442
     88  CE2        2.1190   13.1490   11.6060 C.ar   62  TRP62       0.0810
     89  CE3        0.8290   12.2990   13.4810 C.ar   62  TRP62       0.0012
     90  CZ2        2.9730   13.8440   12.4340 C.ar   62  TRP62       0.0191
     91  CZ3        1.6960   13.0110   14.3180 C.ar   62  TRP62       0.0001
     92  CH2        2.7570   13.7620   13.7810 C.ar   62  TRP62       0.0015
     93  N         -3.0020    9.3830   10.5620 N.am   63  LEU63      -0.1977
     94  CA        -3.7590    8.1100   10.6110 C.3    63  LEU63       0.1596
     95  C         -4.5170    7.8510    9.3180 C.2    63  LEU63       0.2287
     96  O         -4.5610    6.7060    8.8600 O.2    63  LEU63      -0.2864
     97  CB        -4.6780    8.0490   11.8350 C.3    63  LEU63       0.0297
     98  CG        -3.8880    8.0670   13.1450 C.3    63  LEU63       0.0022
     99  CD1       -4.9240    8.1220   14.2380 C.3    63  LEU63       0.0001
    100  CD2       -3.0210    6.8360   13.3370 C.3    63  LEU63       0.0001
    101  N         -3.3870   -1.0650   27.6810 N.3   123  PHE123     -0.1241
    102  CA        -2.8960    0.1680   28.2510 C.3   123  PHE123      0.1605
    103  C         -3.1790    0.1550   29.7400 C.2   123  PHE123      0.2264
    104  O         -2.3110    0.5330   30.5210 O.2   123  PHE123     -0.2867
    105  CB        -3.5520    1.4440   27.6190 C.3   123  PHE123      0.0534
    106  CG        -3.2230    1.6840   26.1420 C.ar  123  PHE123     -0.0203
    107  CD1       -1.9840    1.3120   25.5860 C.ar  123  PHE123     -0.0042
    108  CD2       -4.1520    2.3190   25.3140 C.ar  123  PHE123     -0.0042
    109  CE1       -1.7140    1.5530   24.2480 C.ar  123  PHE123     -0.0003
    110  CE2       -3.8850    2.5660   23.9550 C.ar  123  PHE123     -0.0003
    111  CZ        -2.6720    2.1700   23.4180 C.ar  123  PHE123     -0.0000
@<TRIPOS>BOND
     1    14    13    1
     2     9    10    1
     3    75    74    2
     4    15    13    1
     5    13    10    1
     6    76    73    1
     7    76    77    1
     8    10    11    1
     9    74    73    1
    10    74    79   am
    11    73    72    1
    12    96    95    2
    13    82    81    2
    14    77    78    1
    15    12    11    2
    16    95    94    1
    17    79    80    1
    18    80    81    1
    19    80    83    1
    20    81    93   am
    21    85    87   ar
    22    85    84   ar
    23    72    78    1
    24    72    68   am
    25    69    68    2
    26    87    88   ar
    27    68    67    1
    28    93    94    1
    29    94    97    1
    30    84    83    1
    31    84    86   ar
    32    88    86   ar
    33    88    90   ar
    34    97    98    1
    35    25    23   ar
    36    25    26   ar
    37    67    66    1
    38    67    70    1
    39    86    89   ar
    40    23    21   ar
    41    90    92   ar
    42    71    70    1
    43    26    24   ar
    44    98   100    1
    45    98    99    1
    46    63    62    2
    47    89    91   ar
    48    16    17    1
    49    21    20    1
    50    21    22   ar
    51    92    91   ar
    52    24    22   ar
    53    62    61    1
    54    20    17    1
    55    17    18    1
    56    65    64    1
    57    61    64    1
    58    61    60    1
    59    19    18    2
    60    18    27   am
    61    59    58    2
    62    60    58   am
    63    58    57    1
    64    41    39    1
    65    56    57    1
    66    56    48   am
    67    27    33    1
    68    27    28    1
    69    47    48    1
    70    47    46    1
    71    47    50    1
    72    40    38    1
    73    48    49    2
    74    33    32    1
    75    38    39    1
    76    38    35    1
    77    30    29    2
    78    50    51    1
    79    28    29    1
    80    28    31    1
    81    29    34   am
    82    34    35    1
    83    32    31    1
    84    35    36    1
    85    51    53   ar
    86    51    52   ar
    87    45    44    2
    88    36    37    2
    89    36    42   am
    90    53    55   ar
    91    52    54   ar
    92    44    43    1
    93    42    43    1
    94    55    54   ar
    95     3     4    2
    96     3     2    1
    97     7     6    1
    98     6     8    1
    99     6     5    1
   100     2     5    1
   101     2     1    1
   102   111   110   ar
   103   111   109   ar
   104   110   108   ar
   105   109   107   ar
   106   108   106   ar
   107   107   106   ar
   108   106   105    1
   109   105   102    1
   110   101   102    1
   111   102   103    1
   112   103   104    2
