@<TRIPOS>MOLECULE
tmp/4ybzD00.pdb
 162 153 0 0 0
SMALL
GASTEIGER

@<TRIPOS>ATOM
      1  N        114.2490   20.1700   57.7800 N.3    34  THR34      -0.1218
      2  CA       115.0850   21.3280   58.0550 C.3    34  THR34       0.1862
      3  C        116.2430   21.4580   57.0690 C.2    34  THR34       0.2287
      4  O        116.8940   20.4780   56.7200 O.2    34  THR34      -0.2866
      5  CB       115.6470   21.2750   59.4900 C.3    34  THR34       0.1770
      6  OG1      116.1700   19.9670   59.7580 O.3    34  THR34      -0.2211
      7  CG2      114.5490   21.5740   60.4970 C.3    34  THR34       0.0375
      8  N        120.9290   25.8340   64.9610 N.3    57  VAL57      -0.1245
      9  CA       121.0980   24.7200   65.9010 C.3    57  VAL57       0.1561
     10  C        122.3140   23.8790   65.4980 C.2    57  VAL57       0.2260
     11  O        122.5070   23.6100   64.3180 O.2    57  VAL57      -0.2867
     12  CB       119.8480   23.8160   65.9490 C.3    57  VAL57       0.0252
     13  CG1      120.0540   22.6570   66.9250 C.3    57  VAL57       0.0019
     14  CG2      118.6170   24.6250   66.3250 C.3    57  VAL57       0.0019
     15  N        124.2680   20.1880   66.1220 N.3    59  LYS59      -0.1245
     16  CA       124.1250   18.8220   66.6260 C.3    59  LYS59       0.1561
     17  C        125.3400   17.9760   66.2610 C.2    59  LYS59       0.2260
     18  O        125.9480   18.1970   65.2190 O.2    59  LYS59      -0.2867
     19  CB       122.8780   18.1530   66.0500 C.3    59  LYS59       0.0271
     20  CG       121.5660   18.7790   66.4550 C.3    59  LYS59       0.0035
     21  CD       120.4060   17.9700   65.9120 C.3    59  LYS59       0.0206
     22  CE       119.0700   18.6610   66.1720 C.3    59  LYS59       0.1093
     23  NZ       117.9570   18.0580   65.3730 N.3    59  LYS59      -0.1314
     24  N        121.6860    9.4300   71.3420 N.3    67  HIS67      -0.1226
     25  CA       120.9380   10.4550   72.0770 C.3    67  HIS67       0.1752
     26  C        121.8120   11.6890   72.1770 C.2    67  HIS67       0.2596
     27  O        122.5870   11.8440   73.1260 O.2    67  HIS67      -0.2718
     28  CB       120.5330    9.9850   73.4710 C.3    67  HIS67       0.0759
     29  CG       119.6420    8.7850   73.4720 C.ar   67  HIS67       0.0818
     30  ND1      118.2690    8.8820   73.4170 N.ar   67  HIS67      -0.2268
     31  CD2      119.9260    7.4630   73.5240 C.ar   67  HIS67       0.1154
     32  CE1      117.7440    7.6700   73.4350 C.ar   67  HIS67       0.1986
     33  NE2      118.7280    6.7910   73.5000 N.ar   67  HIS67      -0.2212
     34  N        121.6320   12.5980   71.2240 N.am   68  LYS68      -0.1966
     35  CA       122.5360   13.7260   71.0820 C.3    68  LYS68       0.1728
     36  C        122.4420   14.6510   72.2870 C.2    68  LYS68       0.2617
     37  O        123.4540   15.0050   72.8650 O.2    68  LYS68      -0.2715
     38  CB       122.2260   14.4980   69.7950 C.3    68  LYS68       0.0311
     39  CG       121.9620   13.6180   68.5670 C.3    68  LYS68       0.0038
     40  CD       121.3400   14.4090   67.4240 C.3    68  LYS68       0.0206
     41  CE       120.0820   13.7230   66.9040 C.3    68  LYS68       0.1093
     42  NZ       118.9940   13.7010   67.9150 N.3    68  LYS68      -0.1314
     43  N        121.2330   14.9980   72.7090 N.am   69  SER69      -0.1936
     44  CA       121.0690   15.9120   73.8390 C.3    69  SER69       0.2055
     45  C        121.6610   15.3400   75.1180 C.2    69  SER69       0.2643
     46  O        122.2650   16.0580   75.9190 O.2    69  SER69      -0.2714
     47  CB       119.5930   16.2300   74.0720 C.3    69  SER69       0.2130
     48  OG       119.4020   16.8400   75.3350 O.3    69  SER69      -0.2179
     49  N        121.5030   14.0330   75.2910 N.am   70  ASP70      -0.1971
     50  CA       121.8120   13.3870   76.5580 C.3    70  ASP70       0.1709
     51  C        123.3140   13.3130   76.8290 C.2    70  ASP70       0.2293
     52  O        123.7280   13.0300   77.9530 O.2    70  ASP70      -0.2864
     53  CB       121.1880   11.9890   76.5780 C.3    70  ASP70       0.1436
     54  CG       119.6830   12.0260   76.8070 C.2    70  ASP70       0.3671
     55  OD1      119.2150   12.8570   77.6150 O.co2  70  ASP70      -0.2456
     56  OD2      118.9640   11.2310   76.1650 O.co2  70  ASP70      -0.2456
     57  N        123.6990   18.6780   71.7670 N.3    74  VAL74      -0.1245
     58  CA       122.8610   19.6310   71.0350 C.3    74  VAL74       0.1561
     59  C        122.8480   21.0300   71.6410 C.2    74  VAL74       0.2260
     60  O        122.5630   21.1990   72.8250 O.2    74  VAL74      -0.2867
     61  CB       121.4050   19.1380   70.9400 C.3    74  VAL74       0.0252
     62  CG1      120.6250   19.9930   69.9480 C.3    74  VAL74       0.0019
     63  CG2      121.3610   17.6650   70.5530 C.3    74  VAL74       0.0019
     64  N        121.0220   24.6580   70.9300 N.3    76  VAL76      -0.1245
     65  CA       119.8250   25.1000   70.2270 C.3    76  VAL76       0.1561
     66  C        119.7220   26.6200   70.3180 C.2    76  VAL76       0.2260
     67  O        120.2540   27.2130   71.2550 O.2    76  VAL76      -0.2867
     68  CB       118.5770   24.4400   70.8390 C.3    76  VAL76       0.0252
     69  CG1      117.3090   24.9610   70.1880 C.3    76  VAL76       0.0019
     70  CG2      118.6420   22.9390   70.6430 C.3    76  VAL76       0.0019
     71  N        121.8180   23.5880   61.6110 N.3   110  GLN110     -0.1231
     72  CA       120.3850   23.5610   61.3330 C.3   110  GLN110      0.1698
     73  C        119.7450   24.9170   61.5520 C.2   110  GLN110      0.2592
     74  O        120.2180   25.7100   62.3640 O.2   110  GLN110     -0.2718
     75  CB       119.6860   22.5420   62.2310 C.3   110  GLN110      0.0381
     76  CG       119.3490   21.2330   61.5630 C.3   110  GLN110      0.0905
     77  CD       118.9580   20.1750   62.5630 C.2   110  GLN110      0.2608
     78  OE1      117.7810   19.9500   62.8410 O.2   110  GLN110     -0.2717
     79  NE2      119.9520   19.5220   63.1320 N.am  110  GLN110     -0.0878
     80  N        118.6650   25.1730   60.8210 N.am  111  GLU111     -0.1966
     81  CA       117.8130   26.3180   61.0990 C.3   111  GLU111      0.1733
     82  C        117.0680   26.0610   62.3950 C.2   111  GLU111      0.2616
     83  O        116.4480   25.0130   62.5600 O.2   111  GLU111     -0.2715
     84  CB       116.8200   26.5660   59.9560 C.3   111  GLU111      0.0429
     85  CG       115.5780   27.3660   60.3640 C.3   111  GLU111      0.1163
     86  CD       114.5890   27.5400   59.2290 C.2   111  GLU111      0.3649
     87  OE1      113.8900   26.5550   58.9020 O.co2 111  GLU111     -0.2457
     88  OE2      114.5090   28.6580   58.6690 O.co2 111  GLU111     -0.2457
     89  N        117.0700   27.0270   63.3030 N.am  112  PHE112     -0.1960
     90  CA       116.2790   26.8620   64.5090 C.3   112  PHE112      0.1771
     91  C        114.8200   27.0690   64.1120 C.2   112  PHE112      0.2619
     92  O        114.3560   28.1930   63.9140 O.2   112  PHE112     -0.2715
     93  CB       116.7210   27.8340   65.6030 C.3   112  PHE112      0.0574
     94  CG       115.8030   27.8760   66.7900 C.ar  112  PHE112     -0.0200
     95  CD1      114.7480   28.7700   66.8360 C.ar  112  PHE112     -0.0042
     96  CD2      115.9900   27.0140   67.8590 C.ar  112  PHE112     -0.0042
     97  CE1      113.9010   28.8100   67.9260 C.ar  112  PHE112     -0.0003
     98  CE2      115.1430   27.0510   68.9500 C.ar  112  PHE112     -0.0003
     99  CZ       114.1000   27.9500   68.9830 C.ar  112  PHE112     -0.0000
    100  N        114.0850   25.9620   64.0110 N.am  113  ALA113     -0.1977
    101  CA       112.7060   26.0190   63.5520 C.3   113  ALA113      0.1597
    102  C        111.8910   26.8150   64.5580 C.2   113  ALA113      0.2287
    103  O        112.0070   26.5860   65.7620 O.2   113  ALA113     -0.2864
    104  CB       112.1340   24.6230   63.3780 C.3   113  ALA113      0.0319
    105  N        103.7620   20.7780   67.7900 N.3   118  GLU118     -0.1245
    106  CA       104.6200   19.6140   67.5910 C.3   118  GLU118      0.1567
    107  C        103.8070   18.3640   67.2680 C.2   118  GLU118      0.2260
    108  O        102.7410   18.1370   67.8420 O.2   118  GLU118     -0.2867
    109  CB       105.4860   19.3560   68.8280 C.3   118  GLU118      0.0388
    110  CG       106.3930   20.5180   69.2080 C.3   118  GLU118      0.1160
    111  CD       107.6490   20.0760   69.9380 C.2   118  GLU118      0.3649
    112  OE1      107.6890   18.9320   70.4370 O.co2 118  GLU118     -0.2457
    113  OE2      108.6050   20.8760   70.0040 O.co2 118  GLU118     -0.2457
    114  N        110.1380   12.9160   64.7550 N.3   210  ASN210     -0.1226
    115  CA       109.8210   13.4460   66.0730 C.3   210  ASN210      0.1770
    116  C        110.9090   14.3880   66.5990 C.2   210  ASN210      0.2439
    117  O        112.0210   13.9440   66.8720 O.2   210  ASN210     -0.2733
    118  CB       109.6200   12.3000   67.0670 C.3   210  ASN210      0.1168
    119  CG       109.2960   12.7970   68.4650 C.2   210  ASN210      0.2627
    120  OD1      108.9990   13.9760   68.6580 O.2   210  ASN210     -0.2716
    121  ND2      109.3460   11.8990   69.4390 N.am  210  ASN210     -0.0877
    122  N        110.5950   15.6840   66.7540 N.am  211  PRO211     -0.2729
    123  CA       109.2960   16.3010   66.4850 C.3   211  PRO211      0.1401
    124  C        109.1520   16.7310   65.0320 C.2   211  PRO211      0.2269
    125  O        110.1430   16.8770   64.3070 O.2   211  PRO211     -0.2865
    126  CB       109.2920   17.5130   67.4120 C.3   211  PRO211      0.0296
    127  CG       110.7420   17.8700   67.6030 C.3   211  PRO211      0.0237
    128  CD       111.5900   16.7130   67.1040 C.3   211  PRO211      0.0939
    129  N        107.0940   19.8910   63.2690 N.3   213  ILE213     -0.1245
    130  CA       106.4260   21.1260   63.6680 C.3   213  ILE213      0.1561
    131  C        105.4590   21.5590   62.5820 C.2   213  ILE213      0.2260
    132  O        105.8530   21.7470   61.4340 O.2   213  ILE213     -0.2867
    133  CB       107.4310   22.2690   63.9230 C.3   213  ILE213      0.0252
    134  CG1      108.4760   21.8600   64.9720 C.3   213  ILE213      0.0019
    135  CG2      106.6810   23.5540   64.3080 C.3   213  ILE213      0.0019
    136  CD1      108.1620   22.2940   66.3860 C.3   213  ILE213      0.0001
    137  N        111.8400   18.1600   62.1770 N.3   222  VAL222     -0.1231
    138  CA       112.9920   18.6550   62.9230 C.3   222  VAL222      0.1692
    139  C        113.9890   17.5590   63.2910 C.2   222  VAL222      0.2592
    140  O        115.1960   17.8000   63.2720 O.2   222  VAL222     -0.2718
    141  CB       112.5290   19.4010   64.1890 C.3   222  VAL222      0.0266
    142  CG1      113.6500   19.5250   65.2120 C.3   222  VAL222      0.0020
    143  CG2      111.9750   20.7660   63.7980 C.3   222  VAL222      0.0020
    144  N        113.5040   16.3690   63.6310 N.am  223  ASP223     -0.1974
    145  CA       114.4040   15.2290   63.8220 C.3   223  ASP223      0.1709
    146  C        113.7960   13.9700   63.2260 C.2   223  ASP223      0.2293
    147  O        112.5750   13.8110   63.1820 O.2   223  ASP223     -0.2864
    148  CB       114.7250   15.0090   65.3050 C.3   223  ASP223      0.1436
    149  CG       116.0430   14.2760   65.5240 C.2   223  ASP223      0.3671
    150  OD1      116.8310   14.1320   64.5640 O.co2 223  ASP223     -0.2456
    151  OD2      116.2900   13.8400   66.6690 O.co2 223  ASP223     -0.2456
    152  N        114.5770    9.6130   62.7770 N.3   225  ARG225     -0.1245
    153  CA       115.3100    8.3700   62.9620 C.3   225  ARG225      0.1563
    154  C        114.8280    7.3400   61.9560 C.2   225  ARG225      0.2260
    155  O        113.6310    7.2230   61.7010 O.2   225  ARG225     -0.2867
    156  CB       115.1360    7.8500   64.3880 C.3   225  ARG225      0.0307
    157  CG       115.5760    8.8490   65.4430 C.3   225  ARG225      0.0489
    158  CD       115.3800    8.3280   66.8540 C.3   225  ARG225      0.2205
    159  NE       115.4360    9.4160   67.8270 N.pl3 225  ARG225     -0.0865
    160  CZ       116.5590    9.9360   68.3180 C.cat 225  ARG225      0.5346
    161  NH1      117.7450    9.4700   67.9390 N.pl3 225  ARG225      0.1354
    162  NH2      116.4940   10.9280   69.1960 N.pl3 225  ARG225      0.1354
@<TRIPOS>BOND
     1     4     3    2
     2     3     2    1
     3     1     2    1
     4     2     5    1
     5    88    86   ar
     6    87    86   ar
     7    86    85    1
     8     5     6    1
     9     5     7    1
    10    84    85    1
    11    84    81    1
    12    80    81    1
    13    80    73   am
    14    81    82    1
    15    72    73    1
    16    72    71    1
    17    72    75    1
    18   132   131    2
    19    73    74    2
    20    76    75    1
    21    76    77    1
    22   155   154    2
    23   154   153    1
    24   137   138    1
    25    82    83    2
    26    82    89   am
    27    77    78    2
    28    77    79   am
    29   131   130    1
    30   152   153    1
    31   138   139    1
    32   138   141    1
    33   153   156    1
    34   147   146    2
    35   146   145    1
    36   129   130    1
    37   140   139    2
    38   139   144   am
    39    89    90    1
    40   104   101    1
    41   101   100    1
    42   101   102    1
    43   144   145    1
    44   130   133    1
    45   143   141    1
    46   145   148    1
    47    92    91    2
    48   133   135    1
    49   133   134    1
    50   100    91   am
    51    91    90    1
    52   141   142    1
    53   125   124    2
    54    11    10    2
    55   156   157    1
    56    90    93    1
    57   102   103    2
    58   150   149   ar
    59   114   115    1
    60     8     9    1
    61   134   136    1
    62   124   123    1
    63    18    17    2
    64   148   149    1
    65    23    22    1
    66   157   158    1
    67    10     9    1
    68   149   151   ar
    69    93    94    1
    70     9    12    1
    71    21    22    1
    72    21    20    1
    73    12    14    1
    74    12    13    1
    75    19    20    1
    76    19    16    1
    77   115   116    1
    78   115   118    1
    79    15    16    1
    80    17    16    1
    81   123   122    1
    82   123   126    1
    83   116   122   am
    84   116   117    2
    85   122   128    1
    86    94    95   ar
    87    94    96   ar
    88    95    97   ar
    89   158   159    1
    90    41    40    1
    91    41    42    1
    92   118   119    1
    93   128   127    1
    94   107   106    1
    95   107   108    2
    96   126   127    1
    97    40    39    1
    98   106   105    1
    99   106   109    1
   100   159   160    2
   101    96    98   ar
   102    97    99   ar
   103   161   160    1
   104   160   162    1
   105   119   120    2
   106   119   121   am
   107    39    38    1
   108   109   110    1
   109    98    99   ar
   110   110   111    1
   111    38    35    1
   112   111   113   ar
   113   111   112   ar
   114    62    61    1
   115    69    68    1
   116    65    66    1
   117    65    68    1
   118    65    64    1
   119    66    67    2
   120    63    61    1
   121    70    68    1
   122    61    58    1
   123    58    59    1
   124    58    57    1
   125    35    34    1
   126    35    36    1
   127    34    26   am
   128    24    25    1
   129    59    60    2
   130    25    26    1
   131    25    28    1
   132    26    27    2
   133    36    43   am
   134    36    37    2
   135    43    44    1
   136    30    32   ar
   137    30    29   ar
   138    32    33   ar
   139    28    29    1
   140    29    31   ar
   141    33    31   ar
   142    44    47    1
   143    44    45    1
   144    47    48    1
   145    45    49   am
   146    45    46    2
   147    49    50    1
   148    56    54   ar
   149    50    53    1
   150    50    51    1
   151    53    54    1
   152    54    55   ar
   153    51    52    2
