@<TRIPOS>MOLECULE
tmp/4yc0A00.pdb
 130 122 0 0 0
SMALL
GASTEIGER

@<TRIPOS>ATOM
      1  N          9.9690  -20.5450   -2.8080 N.3    50  SER50      -0.1217
      2  CA         8.7140  -19.9020   -2.4190 C.3    50  SER50       0.1889
      3  C          8.7570  -19.2580   -1.0370 C.2    50  SER50       0.2288
      4  O          8.0380  -18.2760   -0.8020 O.2    50  SER50      -0.2866
      5  CB         7.5780  -20.9220   -2.4670 C.3    50  SER50       0.2089
      6  OG         7.6280  -21.6130   -3.6980 O.3    50  SER50      -0.2183
      7  N         12.8460  -16.4710   -3.6410 N.3    54  TYR54      -0.1241
      8  CA        12.2800  -15.5130   -4.5820 C.3    54  TYR54       0.1605
      9  C         12.5070  -14.0770   -4.1300 C.2    54  TYR54       0.2264
     10  O         12.5740  -13.1680   -4.9580 O.2    54  TYR54      -0.2867
     11  CB        10.7660  -15.7740   -4.7580 C.3    54  TYR54       0.0534
     12  CG         9.8730  -15.1200   -3.7080 C.ar   54  TYR54      -0.0201
     13  CD1        9.6150  -15.7360   -2.4930 C.ar   54  TYR54      -0.0009
     14  CD2        9.2940  -13.8790   -3.9370 C.ar   54  TYR54      -0.0009
     15  CE1        8.8200  -15.1360   -1.5290 C.ar   54  TYR54       0.0417
     16  CE2        8.5070  -13.2750   -2.9790 C.ar   54  TYR54       0.0417
     17  CZ         8.2770  -13.9100   -1.7690 C.ar   54  TYR54       0.1957
     18  OH         7.5050  -13.3120   -0.7790 O.3    54  TYR54      -0.2866
     19  N         14.1890  -11.9350   -6.9530 N.3    58  ASN58      -0.1240
     20  CA        13.3700  -10.9200   -7.6070 C.3    58  ASN58       0.1653
     21  C         13.8830   -9.5110   -7.3380 C.2    58  ASN58       0.2266
     22  O         13.7990   -8.6420   -8.2190 O.2    58  ASN58      -0.2867
     23  CB        11.9050  -11.0510   -7.1960 C.3    58  ASN58       0.1155
     24  CG        11.2270  -12.2710   -7.7770 C.2    58  ASN58       0.2627
     25  OD1       11.7430  -12.9690   -8.6420 O.2    58  ASN58      -0.2716
     26  ND2       10.0180  -12.5100   -7.2730 N.am   58  ASN58      -0.0877
     27  N         14.9690   -6.8540  -10.3280 N.3    62  ARG62      -0.1245
     28  CA        14.3470   -5.5310  -10.4020 C.3    62  ARG62       0.1563
     29  C         15.3150   -4.3910  -10.0990 C.2    62  ARG62       0.2260
     30  O         14.9270   -3.2250  -10.2290 O.2    62  ARG62      -0.2867
     31  CB        13.1450   -5.4660   -9.4440 C.3    62  ARG62       0.0307
     32  CG        11.9970   -6.3610   -9.8960 C.3    62  ARG62       0.0489
     33  CD        10.7790   -6.2790   -9.0110 C.3    62  ARG62       0.2205
     34  NE        11.0540   -6.6180   -7.6270 N.pl3  62  ARG62      -0.0865
     35  CZ        10.4200   -7.5590   -6.9290 C.cat  62  ARG62       0.5346
     36  NH1        9.4490   -8.2830   -7.4740 N.pl3  62  ARG62       0.1354
     37  NH2       10.7640   -7.7730   -5.6660 N.pl3  62  ARG62       0.1354
     38  N         -2.5440  -14.6490  -10.3340 N.3    99  ARG99      -0.1231
     39  CA        -1.4660  -13.9440   -9.6480 C.3    99  ARG99       0.1694
     40  C         -2.0240  -12.7030   -8.9910 C.2    99  ARG99       0.2593
     41  O         -2.6470  -11.8690   -9.6500 O.2    99  ARG99      -0.2718
     42  CB        -0.3270  -13.5380  -10.6000 C.3    99  ARG99       0.0321
     43  CG         0.7940  -12.7550   -9.9090 C.3    99  ARG99       0.0489
     44  CD         1.9490  -12.4690  -10.8780 C.3    99  ARG99       0.2205
     45  NE         2.9540  -11.5410  -10.3390 N.pl3  99  ARG99      -0.0865
     46  CZ         3.8920  -11.8340   -9.4370 C.cat  99  ARG99       0.5346
     47  NH1        4.0510  -13.0430   -8.8850 N.pl3  99  ARG99       0.1354
     48  NH2        4.6990  -10.8390   -9.0640 N.pl3  99  ARG99       0.1354
     49  N         -1.7710  -12.5580   -7.7000 N.am  100  GLY100     -0.1942
     50  CA        -2.1130  -11.3540   -6.9860 C.3   100  GLY100      0.2014
     51  C         -0.8770  -10.5080   -6.7450 C.2   100  GLY100      0.2639
     52  O          0.1820  -11.0280   -6.3800 O.2   100  GLY100     -0.2714
     53  N         -1.0190   -9.2120   -6.9410 N.am  101  THR101     -0.1950
     54  CA         0.1090   -8.3260   -6.7470 C.3   101  THR101      0.1897
     55  C         -0.4040   -6.9040   -6.6000 C.2   101  THR101      0.2313
     56  O         -1.6070   -6.6650   -6.4680 O.2   101  THR101     -0.2863
     57  CB         1.0960   -8.4840   -7.9000 C.3   101  THR101      0.1794
     58  OG1        2.3230   -7.7800   -7.6200 O.3   101  THR101     -0.2208
     59  CG2        0.4830   -8.0200   -9.1930 C.3   101  THR101      0.0378
     60  N         11.1180  -13.1810  -11.6740 N.3   122  PHE122     -0.1241
     61  CA        10.3520  -14.3940  -11.8950 C.3   122  PHE122      0.1605
     62  C          8.8730  -14.0630  -11.7290 C.2   122  PHE122      0.2264
     63  O          8.5040  -13.2090  -10.9120 O.2   122  PHE122     -0.2867
     64  CB        10.7330  -15.4860  -10.8960 C.3   122  PHE122      0.0534
     65  CG        12.0790  -16.1020  -11.1260 C.ar  122  PHE122     -0.0203
     66  CD1       12.2210  -17.1800  -11.9600 C.ar  122  PHE122     -0.0042
     67  CD2       13.2060  -15.6090  -10.4880 C.ar  122  PHE122     -0.0042
     68  CE1       13.4700  -17.7800  -12.1760 C.ar  122  PHE122     -0.0003
     69  CE2       14.4540  -16.2110  -10.6790 C.ar  122  PHE122     -0.0003
     70  CZ        14.5850  -17.2930  -11.5100 C.ar  122  PHE122     -0.0000
     71  N          5.5460  -15.6900  -10.3850 N.3   124  SER124     -0.1202
     72  CA         4.9270  -16.7660   -9.6300 C.3   124  SER124      0.2020
     73  C          3.4230  -16.6470   -9.7440 C.2   124  SER124      0.2619
     74  O          2.8670  -15.5670   -9.5080 O.2   124  SER124     -0.2717
     75  CB         5.2990  -16.7130   -8.1500 C.3   124  SER124      0.2103
     76  OG         6.7080  -16.8190   -7.9300 O.3   124  SER124     -0.2182
     77  N          2.7690  -17.7670  -10.0240 N.am  125  THR125     -0.1938
     78  CA         1.3170  -17.8550  -10.1410 C.3   125  THR125      0.2028
     79  C          0.8730  -19.0930   -9.3780 C.2   125  THR125      0.2642
     80  O          1.6750  -19.9680   -9.0460 O.2   125  THR125     -0.2714
     81  CB         0.8460  -17.9630  -11.6000 C.3   125  THR125      0.1808
     82  OG1        1.1620  -19.2600  -12.1320 O.3   125  THR125     -0.2208
     83  CG2        1.4520  -16.8820  -12.4600 C.3   125  THR125      0.0379
     84  N         -0.4330  -19.1830   -9.1050 N.am  126  SER126     -0.1949
     85  CA        -1.0450  -20.3690   -8.5320 C.3   126  SER126      0.1924
     86  C         -2.2110  -20.7970   -9.4070 C.2   126  SER126      0.2314
     87  O         -2.9210  -19.9530   -9.9600 O.2   126  SER126     -0.2863
     88  CB        -1.5460  -20.0910   -7.1240 C.3   126  SER126      0.2116
     89  OG        -2.2200  -21.2350   -6.6290 O.3   126  SER126     -0.2180
     90  N         -5.0710  -18.7840   -3.3730 N.3   131  VAL131     -0.1231
     91  CA        -3.6710  -18.5700   -3.0180 C.3   131  VAL131      0.1692
     92  C         -3.1950  -17.2440   -3.5850 C.2   131  VAL131      0.2591
     93  O         -2.5620  -16.4440   -2.8900 O.2   131  VAL131     -0.2718
     94  CB        -2.8130  -19.7510   -3.5150 C.3   131  VAL131      0.0266
     95  CG1       -1.3260  -19.4600   -3.3950 C.3   131  VAL131      0.0020
     96  CG2       -3.1590  -21.0220   -2.7430 C.3   131  VAL131      0.0020
     97  N         -3.5190  -16.9770   -4.8480 N.am  132  ALA132     -0.1980
     98  CA        -3.1260  -15.7210   -5.4690 C.3   132  ALA132      0.1597
     99  C         -3.6100  -14.5100   -4.6750 C.2   132  ALA132      0.2287
    100  O         -2.8720  -13.5350   -4.5070 O.2   132  ALA132     -0.2864
    101  CB        -3.6600  -15.6560   -6.9020 C.3   132  ALA132      0.0319
    102  N         -1.6090  -12.6830   -1.8450 N.3   135  PHE135     -0.1241
    103  CA        -0.5110  -11.7680   -2.1410 C.3   135  PHE135      0.1605
    104  C         -1.0040  -10.3940   -2.5650 C.2   135  PHE135      0.2264
    105  O         -0.2280   -9.5890   -3.1170 O.2   135  PHE135     -0.2867
    106  CB         0.3720  -12.4100   -3.2140 C.3   135  PHE135      0.0534
    107  CG         1.0460  -13.6630   -2.7460 C.ar  135  PHE135     -0.0203
    108  CD1        2.2930  -13.6110   -2.1430 C.ar  135  PHE135     -0.0042
    109  CD2        0.4490  -14.9120   -2.8940 C.ar  135  PHE135     -0.0042
    110  CE1        2.9060  -14.7720   -1.6990 C.ar  135  PHE135     -0.0003
    111  CE2        1.0560  -16.0570   -2.4330 C.ar  135  PHE135     -0.0003
    112  CZ         2.2930  -15.9900   -1.8480 C.ar  135  PHE135     -0.0000
    113  N          1.1540  -24.3190   -2.5450 N.3   171  GLU171     -0.1245
    114  CA         0.6080  -23.1400   -3.2070 C.3   171  GLU171      0.1567
    115  C          0.1860  -23.4050   -4.6590 C.2   171  GLU171      0.2260
    116  O         -0.1470  -22.4580   -5.3830 O.2   171  GLU171     -0.2867
    117  CB         1.6580  -22.0340   -3.1640 C.3   171  GLU171      0.0388
    118  CG         1.9370  -21.5550   -1.7550 C.3   171  GLU171      0.1160
    119  CD         2.9730  -20.4740   -1.7160 C.2   171  GLU171      0.3649
    120  OE1        4.0720  -20.7010   -2.2590 O.co2 171  GLU171     -0.2457
    121  OE2        2.6840  -19.3920   -1.1630 O.co2 171  GLU171     -0.2457
    122  N          1.9010  -23.9520   -7.3230 N.3   173  GLU173     -0.1245
    123  CA         2.6430  -22.8570   -7.9320 C.3   173  GLU173      0.1567
    124  C          3.1990  -23.2190   -9.3050 C.2   173  GLU173      0.2260
    125  O          3.8710  -24.2430   -9.4740 O.2   173  GLU173     -0.2867
    126  CB         3.7770  -22.4130   -7.0050 C.3   173  GLU173      0.0388
    127  CG         4.4810  -21.1900   -7.5070 C.3   173  GLU173      0.1160
    128  CD         5.4580  -20.5470   -6.5380 C.2   173  GLU173      0.3649
    129  OE1        5.5850  -21.0090   -5.4000 O.co2 173  GLU173     -0.2457
    130  OE2        6.1130  -19.5660   -6.9670 O.co2 173  GLU173     -0.2457
@<TRIPOS>BOND
     1    83    81    1
     2    68    66   ar
     3    68    70   ar
     4    82    81    1
     5    66    65   ar
     6    61    62    1
     7    61    60    1
     8    61    64    1
     9    62    63    2
    10    81    78    1
    11    70    69   ar
    12    65    64    1
    13    65    67   ar
    14    44    45    1
    15    44    43    1
    16    69    67   ar
    17    42    43    1
    18    42    39    1
    19    28    27    1
    20    28    29    1
    21    28    31    1
    22    71    72    1
    23    45    46    2
    24    38    39    1
    25    30    29    2
    26    78    77    1
    27    78    79    1
    28    77    73   am
    29    87    86    2
    30    32    31    1
    31    32    33    1
    32    73    72    1
    33    73    74    2
    34    41    40    2
    35    39    40    1
    36    72    75    1
    37   125   124    2
    38    46    48    1
    39    46    47    1
    40    86    85    1
    41    79    84   am
    42    79    80    2
    43   124   123    1
    44    59    57    1
    45    84    85    1
    46    33    34    1
    47    40    49   am
    48    25    24    2
    49    85    88    1
    50    22    21    2
    51    75    76    1
    52   123   122    1
    53   123   126    1
    54    57    58    1
    55    57    54    1
    56    24    26   am
    57    24    23    1
    58    49    50    1
    59    34    35    2
    60    20    21    1
    61    20    23    1
    62    20    19    1
    63   127   126    1
    64   127   128    1
    65    36    35    1
    66    88    89    1
    67    50    51    1
    68   130   128   ar
    69    53    54    1
    70    53    51   am
    71    35    37    1
    72   101    98    1
    73    54    55    1
    74    51    52    2
    75    55    56    2
    76   128   129   ar
    77    98    97    1
    78    98    99    1
    79   116   115    2
    80    10     9    2
    81    97    92   am
    82    11     8    1
    83    11    12    1
    84    99   100    2
    85   115   114    1
    86     8     9    1
    87     8     7    1
    88    14    12   ar
    89    14    16   ar
    90    12    13   ar
    91     6     5    1
    92    92    91    1
    93    92    93    2
    94    94    95    1
    95    94    91    1
    96    94    96    1
    97    90    91    1
    98   106   107    1
    99   106   103    1
   100   114   117    1
   101   114   113    1
   102   117   118    1
   103   105   104    2
   104    16    17   ar
   105   109   107   ar
   106   109   111   ar
   107     1     2    1
   108   107   108   ar
   109   104   103    1
   110    13    15   ar
   111     5     2    1
   112   111   112   ar
   113     2     3    1
   114   120   119   ar
   115   108   110   ar
   116   103   102    1
   117   112   110   ar
   118    17    15   ar
   119    17    18    1
   120   118   119    1
   121   119   121   ar
   122     3     4    2
