@<TRIPOS>MOLECULE
tmp/4yc4A01.pdb
 104 104 0 0 0
SMALL
GASTEIGER

@<TRIPOS>ATOM
      1  N          8.3520  220.4250   66.5240 N.3   348  ARG348     -0.1245
      2  CA         7.4180  220.9860   67.4800 C.3   348  ARG348      0.1563
      3  C          8.0350  222.1510   68.2430 C.2   348  ARG348      0.2260
      4  O          8.2370  222.1080   69.4750 O.2   348  ARG348     -0.2867
      5  CB         6.8410  219.9410   68.4350 C.3   348  ARG348      0.0307
      6  CG         5.9130  220.5890   69.4570 C.3   348  ARG348      0.0489
      7  CD         4.7500  221.1710   68.7170 C.3   348  ARG348      0.2205
      8  NE         3.7040  221.8480   69.5060 N.pl3 348  ARG348     -0.0865
      9  CZ         3.6810  223.1240   69.8940 C.cat 348  ARG348      0.5346
     10  NH1        4.6470  223.9620   69.5530 N.pl3 348  ARG348      0.1354
     11  NH2        2.6430  223.5690   70.5980 N.pl3 348  ARG348      0.1354
     12  N         -2.7630  225.1880   74.3350 N.3   391  TRP391     -0.1227
     13  CA        -2.1190  225.5360   73.0700 C.3   391  TRP391      0.1737
     14  C         -1.8400  227.0380   73.0080 C.2   391  TRP391      0.2595
     15  O         -0.9330  227.4810   72.2960 O.2   391  TRP391     -0.2718
     16  CB        -2.8990  225.0230   71.8510 C.3   391  TRP391      0.0564
     17  CG        -4.2340  225.6510   71.6370 C.ar  391  TRP391      0.0003
     18  CD1       -5.4570  225.1340   71.9620 C.ar  391  TRP391      0.0946
     19  CD2       -4.4910  226.8740   70.9330 C.ar  391  TRP391      0.0152
     20  NE1       -6.4590  225.9970   71.5670 N.ar  391  TRP391     -0.2442
     21  CE2       -5.8910  227.0650   70.9210 C.ar  391  TRP391      0.0810
     22  CE3       -3.6720  227.8360   70.3300 C.ar  391  TRP391      0.0012
     23  CZ2       -6.4860  228.1820   70.3360 C.ar  391  TRP391      0.0191
     24  CZ3       -4.2660  228.9440   69.7490 C.ar  391  TRP391      0.0001
     25  CH2       -5.6600  229.1080   69.7550 C.ar  391  TRP391      0.0015
     26  N         -2.6140  227.8110   73.7670 N.am  392  ARG392     -0.1980
     27  CA        -2.4130  229.2600   73.8470 C.3   392  ARG392      0.1597
     28  C         -1.0840  229.6790   74.5210 C.2   392  ARG392      0.2287
     29  O         -0.4750  230.6790   74.1140 O.2   392  ARG392     -0.2864
     30  CB        -3.5960  229.9250   74.5570 C.3   392  ARG392      0.0334
     31  CG        -4.7840  230.1000   73.6290 C.3   392  ARG392      0.0492
     32  CD        -5.9830  230.7810   74.2790 C.3   392  ARG392      0.2205
     33  NE        -6.9890  231.0540   73.2590 N.pl3 392  ARG392     -0.0865
     34  CZ        -7.8370  230.1390   72.8020 C.cat 392  ARG392      0.5346
     35  NH1       -7.8210  228.9100   73.3070 N.pl3 392  ARG392      0.1354
     36  NH2       -8.7100  230.4530   71.8510 N.pl3 392  ARG392      0.1354
     37  N          2.0090  228.5480   71.4650 N.3   395  PRO395     -0.2102
     38  CA         1.4310  228.3270   70.1450 C.3   395  PRO395      0.1504
     39  C          2.4960  228.2930   69.0810 C.2   395  PRO395      0.2575
     40  O          3.6900  228.3600   69.3920 O.2   395  PRO395     -0.2718
     41  CB         0.5540  229.5600   69.9490 C.3   395  PRO395      0.0282
     42  CG         1.3410  230.6470   70.6520 C.3   395  PRO395      0.0208
     43  CD         1.9840  229.9710   71.8510 C.3   395  PRO395      0.0893
     44  N          2.0530  228.2250   67.8310 N.am  396  PHE396     -0.1977
     45  CA         2.9120  228.5240   66.7150 C.3   396  PHE396      0.1639
     46  C          2.5840  229.9410   66.2750 C.2   396  PHE396      0.2290
     47  O          1.5290  230.2020   65.7070 O.2   396  PHE396     -0.2864
     48  CB         2.6270  227.5220   65.5920 C.3   396  PHE396      0.0560
     49  CG         3.1080  226.1100   65.8680 C.ar  396  PHE396     -0.0200
     50  CD1        4.4600  225.7830   65.7800 C.ar  396  PHE396     -0.0042
     51  CD2        2.2050  225.1090   66.1790 C.ar  396  PHE396     -0.0042
     52  CE1        4.8900  224.4920   66.0140 C.ar  396  PHE396     -0.0003
     53  CE2        2.6230  223.8200   66.4160 C.ar  396  PHE396     -0.0003
     54  CZ         3.9640  223.5060   66.3320 C.ar  396  PHE396     -0.0000
     55  N          1.3390  231.1000   62.7660 N.3   399  ALA399     -0.1231
     56  CA        -0.0320  230.7310   62.3900 C.3   399  ALA399      0.1694
     57  C         -0.9720  231.9130   62.1980 C.2   399  ALA399      0.2592
     58  O         -1.9310  231.8080   61.4400 O.2   399  ALA399     -0.2718
     59  CB        -0.6180  229.7560   63.3850 C.3   399  ALA399      0.0304
     60  N         -0.7170  233.0070   62.9130 N.am  400  TRP400     -0.1976
     61  CA        -1.5320  234.2190   62.8170 C.3   400  TRP400      0.1640
     62  C         -1.0400  235.1800   61.7600 C.2   400  TRP400      0.2290
     63  O         -1.5530  236.2860   61.6660 O.2   400  TRP400     -0.2864
     64  CB        -1.5610  234.9860   64.1270 C.3   400  TRP400      0.0576
     65  CG        -2.3950  234.3570   65.1480 C.ar  400  TRP400      0.0006
     66  CD1       -3.7520  234.3140   65.1710 C.ar  400  TRP400      0.0946
     67  CD2       -1.9410  233.6890   66.3340 C.ar  400  TRP400      0.0152
     68  NE1       -4.1770  233.6310   66.2880 N.ar  400  TRP400     -0.2442
     69  CE2       -3.0890  233.2520   67.0290 C.ar  400  TRP400      0.0810
     70  CE3       -0.6740  233.4080   66.8680 C.ar  400  TRP400      0.0012
     71  CZ2       -3.0170  232.5610   68.2340 C.ar  400  TRP400      0.0191
     72  CZ3       -0.6040  232.7260   68.0840 C.ar  400  TRP400      0.0001
     73  CH2       -1.7680  232.3110   68.7490 C.ar  400  TRP400      0.0015
     74  N         -1.9310  227.1550   58.3430 N.3   473  LEU473     -0.1245
     75  CA        -2.8800  227.4270   59.4280 C.3   473  LEU473      0.1561
     76  C         -3.8220  226.2480   59.7170 C.2   473  LEU473      0.2260
     77  O         -3.9780  225.8620   60.8900 O.2   473  LEU473     -0.2867
     78  CB        -3.6880  228.6800   59.1010 C.3   473  LEU473      0.0270
     79  CG        -4.9690  228.8550   59.8980 C.3   473  LEU473      0.0019
     80  CD1       -4.5830  229.1430   61.3370 C.3   473  LEU473      0.0001
     81  CD2       -5.7030  230.0260   59.3170 C.3   473  LEU473      0.0001
     82  N         -2.1630  223.5300   61.7650 N.3   476  VAL476     -0.1231
     83  CA        -2.0430  223.6360   63.2070 C.3   476  VAL476      0.1692
     84  C         -3.3980  223.4190   63.9310 C.2   476  VAL476      0.2591
     85  O         -3.4320  223.0690   65.1010 O.2   476  VAL476     -0.2718
     86  CB        -1.3110  224.9390   63.6490 C.3   476  VAL476      0.0266
     87  CG1        0.0700  224.9910   63.0050 C.3   476  VAL476      0.0020
     88  CG2       -2.1110  226.1650   63.2980 C.3   476  VAL476      0.0020
     89  N         -4.5040  223.6170   63.2250 N.am  477  GLN477     -0.1979
     90  CA        -5.8330  223.3100   63.7690 C.3   477  GLN477      0.1601
     91  C         -6.0900  221.7950   63.8690 C.2   477  GLN477      0.2287
     92  O         -6.9900  221.3500   64.5790 O.2   477  GLN477     -0.2864
     93  CB        -6.9070  224.0430   62.9630 C.3   477  GLN477      0.0394
     94  CG        -6.8020  225.5310   63.1900 C.3   477  GLN477      0.0908
     95  CD        -7.5630  226.3530   62.2120 C.2   477  GLN477      0.2608
     96  OE1       -8.1390  225.8390   61.2610 O.2   477  GLN477     -0.2717
     97  NE2       -7.5550  227.6580   62.4190 N.am  477  GLN477     -0.0878
     98  N         -3.4980  217.8830   67.8210 N.3   480  PRO480     -0.2116
     99  CA        -2.2210  217.2120   68.1160 C.3   480  PRO480      0.1372
    100  C         -2.3430  215.7450   68.5380 C.2   480  PRO480      0.2244
    101  O         -3.1940  215.4230   69.3430 O.2   480  PRO480     -0.2868
    102  CB        -1.6930  218.0200   69.2880 C.3   480  PRO480      0.0268
    103  CG        -2.2460  219.4180   69.0450 C.3   480  PRO480      0.0207
    104  CD        -3.5340  219.2750   68.3080 C.3   480  PRO480      0.0892
@<TRIPOS>BOND
     1    74    75    1
     2    78    75    1
     3    78    79    1
     4    81    79    1
     5    75    76    1
     6    76    77    2
     7    79    80    1
     8    96    95    2
     9    58    57    2
    10    63    62    2
    11    62    61    1
    12    82    83    1
    13    57    56    1
    14    57    60   am
    15    95    97   am
    16    95    94    1
    17    56    55    1
    18    56    59    1
    19    61    60    1
    20    61    64    1
    21    93    94    1
    22    93    90    1
    23    87    86    1
    24    83    86    1
    25    83    84    1
    26    89    90    1
    27    89    84   am
    28    88    86    1
    29    90    91    1
    30    91    92    2
    31    84    85    2
    32    64    65    1
    33    65    66   ar
    34    65    67   ar
    35    66    68   ar
    36    48    49    1
    37    48    45    1
    38    47    46    2
    39    50    49   ar
    40    50    52   ar
    41    49    51   ar
    42    52    54   ar
    43    51    53   ar
    44    46    45    1
    45    68    69   ar
    46    54    53   ar
    47    67    70   ar
    48    67    69   ar
    49     1     2    1
    50    45    44    1
    51    70    72   ar
    52    69    71   ar
    53     2     3    1
    54     2     5    1
    55    98    99    1
    56    98   104    1
    57    44    39   am
    58    72    73   ar
    59    99   100    1
    60    99   102    1
    61    71    73   ar
    62     3     4    2
    63   104   103    1
    64     5     6    1
    65   100   101    2
    66     7     6    1
    67     7     8    1
    68   103   102    1
    69    39    40    2
    70    39    38    1
    71     8     9    2
    72    10     9    1
    73    24    25   ar
    74    24    22   ar
    75    25    23   ar
    76     9    11    1
    77    41    38    1
    78    41    42    1
    79    38    37    1
    80    22    19   ar
    81    23    21   ar
    82    42    43    1
    83    21    19   ar
    84    21    20   ar
    85    19    17   ar
    86    37    43    1
    87    20    18   ar
    88    17    16    1
    89    17    18   ar
    90    16    13    1
    91    36    34    1
    92    15    14    2
    93    34    33    2
    94    34    35    1
    95    14    13    1
    96    14    26   am
    97    13    12    1
    98    33    32    1
    99    31    32    1
   100    31    30    1
   101    26    27    1
   102    27    28    1
   103    27    30    1
   104    29    28    2
