@<TRIPOS>MOLECULE
tmp/4yc4A00.pdb
 148 139 0 0 0
SMALL
GASTEIGER

@<TRIPOS>ATOM
      1  N         26.8460  237.8020   74.2600 N.3    30  ILE30      -0.1245
      2  CA        25.7260  238.5080   73.6620 C.3    30  ILE30       0.1561
      3  C         24.9800  239.2390   74.7790 C.2    30  ILE30       0.2260
      4  O         24.5840  238.6190   75.7850 O.2    30  ILE30      -0.2867
      5  CB        24.7840  237.5380   72.9640 C.3    30  ILE30       0.0252
      6  CG1       25.6210  236.6410   72.0290 C.3    30  ILE30       0.0019
      7  CG2       23.6310  238.2880   72.2950 C.3    30  ILE30       0.0019
      8  CD1       24.9190  236.1010   70.8060 C.3    30  ILE30       0.0001
      9  N         22.1840  241.0330   73.7310 N.3    32  GLN32      -0.1231
     10  CA        20.8440  240.9360   73.1410 C.3    32  GLN32       0.1698
     11  C         19.9430  239.7430   73.4800 C.2    32  GLN32       0.2592
     12  O         18.7320  239.8470   73.3240 O.2    32  GLN32      -0.2718
     13  CB        20.9550  240.9710   71.6160 C.3    32  GLN32       0.0381
     14  CG        21.3140  242.2980   71.0000 C.3    32  GLN32       0.0905
     15  CD        20.5860  242.5130   69.6850 C.2    32  GLN32       0.2608
     16  OE1       20.0360  241.5690   69.1110 O.2    32  GLN32      -0.2717
     17  NE2       20.5960  243.7500   69.1880 N.am   32  GLN32      -0.0878
     18  N         20.4880  238.6370   73.9750 N.am   33  GLY33      -0.1957
     19  CA        19.6440  237.6680   74.6510 C.3    33  GLY33       0.1869
     20  C         19.8110  237.5050   76.1340 C.2    33  GLY33       0.2309
     21  O         20.7010  238.1130   76.7310 O.2    33  GLY33      -0.2863
     22  N         24.5760  232.9010   75.7320 N.3    37  SER37      -0.1217
     23  CA        24.9760  233.0590   74.3280 C.3    37  SER37       0.1889
     24  C         26.1890  233.9320   73.9590 C.2    37  SER37       0.2288
     25  O         26.3130  235.0740   74.4030 O.2    37  SER37      -0.2866
     26  CB        23.8050  233.6640   73.6000 C.3    37  SER37       0.2089
     27  OG        22.6740  232.8490   73.8000 O.3    37  SER37      -0.2183
     28  N         29.1180  235.4190   70.8680 N.3    39  PHE39      -0.1241
     29  CA        29.5850  235.6190   69.5090 C.3    39  PHE39       0.1605
     30  C         30.9940  235.1270   69.4100 C.2    39  PHE39       0.2264
     31  O         31.8830  235.6930   70.0180 O.2    39  PHE39      -0.2867
     32  CB        29.5090  237.0840   69.0880 C.3    39  PHE39       0.0534
     33  CG        28.1530  237.5080   68.6700 C.ar   39  PHE39      -0.0203
     34  CD1       27.2890  236.5990   68.0820 C.ar   39  PHE39      -0.0042
     35  CD2       27.6920  238.7730   68.9670 C.ar   39  PHE39      -0.0042
     36  CE1       26.0230  236.9740   67.7260 C.ar   39  PHE39      -0.0003
     37  CE2       26.4100  239.1490   68.6270 C.ar   39  PHE39      -0.0003
     38  CZ        25.5770  238.2490   68.0040 C.ar   39  PHE39      -0.0000
     39  N         27.5960  231.5300   66.5760 N.3    50  VAL50      -0.1245
     40  CA        26.8670  231.7470   67.8240 C.3    50  VAL50       0.1561
     41  C         27.0000  230.4770   68.6590 C.2    50  VAL50       0.2260
     42  O         26.8030  229.3680   68.1370 O.2    50  VAL50      -0.2867
     43  CB        25.3920  232.0830   67.5720 C.3    50  VAL50       0.0252
     44  CG1       24.6960  232.2840   68.9030 C.3    50  VAL50       0.0019
     45  CG2       25.2830  233.3590   66.7620 C.3    50  VAL50       0.0019
     46  N         26.2590  228.4080   72.4260 N.3    52  LYS52      -0.1245
     47  CA        25.3770  228.3470   73.5920 C.3    52  LYS52       0.1561
     48  C         25.7860  227.1610   74.4460 C.2    52  LYS52       0.2260
     49  O         25.3110  226.0530   74.2380 O.2    52  LYS52      -0.2867
     50  CB        23.9330  228.2340   73.1310 C.3    52  LYS52       0.0271
     51  CG        23.3990  229.4820   72.4950 C.3    52  LYS52       0.0035
     52  CD        21.9980  229.2500   72.0310 C.3    52  LYS52       0.0206
     53  CE        21.4710  230.4810   71.3440 C.3    52  LYS52       0.1093
     54  NZ        20.1250  230.2710   70.7130 N.3    52  LYS52      -0.1314
     55  N         21.0280  227.5510   59.7320 N.3   268  PRO268     -0.2116
     56  CA        22.4860  227.6320   59.6140 C.3   268  PRO268      0.1372
     57  C         23.1180  226.4630   60.3700 C.2   268  PRO268      0.2244
     58  O         22.6970  226.1350   61.4830 O.2   268  PRO268     -0.2868
     59  CB        22.8370  228.9540   60.3130 C.3   268  PRO268      0.0268
     60  CG        21.5600  229.7710   60.3150 C.3   268  PRO268      0.0207
     61  CD        20.4500  228.7370   60.3980 C.3   268  PRO268      0.0892
     62  N         26.5570  227.3910   66.1940 N.3   304  GLN304     -0.1231
     63  CA        25.7520  227.6950   65.0380 C.3   304  GLN304      0.1698
     64  C         26.4470  228.7250   64.1810 C.2   304  GLN304      0.2592
     65  O         26.8080  229.8020   64.6640 O.2   304  GLN304     -0.2718
     66  CB        24.3950  228.2350   65.4690 C.3   304  GLN304      0.0381
     67  CG        23.5770  228.8350   64.3210 C.3   304  GLN304      0.0905
     68  CD        22.0880  228.9130   64.6290 C.2   304  GLN304      0.2608
     69  OE1       21.4950  229.9750   64.5120 O.2   304  GLN304     -0.2717
     70  NE2       21.4670  227.7760   64.9410 N.am  304  GLN304     -0.0878
     71  N         26.6610  228.3850   62.9170 N.am  305  LEU305     -0.1966
     72  CA        27.3090  229.2970   61.9790 C.3   305  LEU305      0.1728
     73  C         26.5290  230.5850   61.9290 C.2   305  LEU305      0.2616
     74  O         25.3050  230.5760   61.9590 O.2   305  LEU305     -0.2715
     75  CB        27.3810  228.7020   60.5790 C.3   305  LEU305      0.0311
     76  CG        28.2410  227.4530   60.4980 C.3   305  LEU305      0.0022
     77  CD1       28.3450  226.9680   59.0610 C.3   305  LEU305      0.0001
     78  CD2       29.6020  227.7740   61.1200 C.3   305  LEU305      0.0001
     79  N         27.2440  231.6730   61.7380 N.am  306  PHE306     -0.1960
     80  CA        26.6780  233.0080   61.6670 C.3   306  PHE306      0.1771
     81  C         26.3700  233.4050   60.2260 C.2   306  PHE306      0.2619
     82  O         27.1420  233.1380   59.3060 O.2   306  PHE306     -0.2715
     83  CB        27.6550  234.0110   62.2820 C.3   306  PHE306      0.0574
     84  CG        27.1150  235.3980   62.3360 C.ar  306  PHE306     -0.0200
     85  CD1       27.0810  236.1660   61.1820 C.ar  306  PHE306     -0.0042
     86  CD2       26.5200  235.8930   63.4770 C.ar  306  PHE306     -0.0042
     87  CE1       26.5460  237.4430   61.1990 C.ar  306  PHE306     -0.0003
     88  CE2       25.9610  237.1580   63.4970 C.ar  306  PHE306     -0.0003
     89  CZ        25.9740  237.9360   62.3720 C.ar  306  PHE306     -0.0000
     90  N         25.2070  233.9970   60.0150 N.am  307  VAL307     -0.1977
     91  CA        24.8320  234.3730   58.6710 C.3   307  VAL307      0.1596
     92  C         24.7140  235.8710   58.6420 C.2   307  VAL307      0.2287
     93  O         24.1300  236.4630   59.5490 O.2   307  VAL307     -0.2864
     94  CB        23.5230  233.7130   58.1930 C.3   307  VAL307      0.0276
     95  CG1       23.6150  232.1890   58.1600 C.3   307  VAL307      0.0022
     96  CG2       22.3360  234.2200   59.0610 C.3   307  VAL307      0.0022
     97  N         21.0430  239.5330   57.1280 N.3   310  TYR310     -0.1241
     98  CA        19.6720  239.2130   57.5350 C.3   310  TYR310      0.1605
     99  C         19.1330  240.1950   58.5640 C.2   310  TYR310      0.2264
    100  O         19.8740  240.7280   59.3770 O.2   310  TYR310     -0.2867
    101  CB        19.6330  237.8130   58.1340 C.3   310  TYR310      0.0534
    102  CG        19.7990  236.6770   57.1480 C.ar  310  TYR310     -0.0201
    103  CD1       21.0760  236.2640   56.7380 C.ar  310  TYR310     -0.0009
    104  CD2       18.6950  235.9550   56.6860 C.ar  310  TYR310     -0.0009
    105  CE1       21.2430  235.1960   55.8630 C.ar  310  TYR310      0.0417
    106  CE2       18.8540  234.8790   55.8130 C.ar  310  TYR310      0.0417
    107  CZ        20.1270  234.5120   55.4110 C.ar  310  TYR310      0.1957
    108  OH        20.2850  233.4650   54.5490 O.3   310  TYR310     -0.2866
    109  N         15.3090  240.8560   61.1400 N.3   312  ASP312     -0.1239
    110  CA        14.2050  240.1550   61.8010 C.3   312  ASP312      0.1674
    111  C         13.0950  239.8760   60.8470 C.2   312  ASP312      0.2266
    112  O         12.7410  240.7580   60.0680 O.2   312  ASP312     -0.2867
    113  CB        13.5940  240.9840   62.9420 C.3   312  ASP312      0.1410
    114  CG        14.3930  240.9730   64.1550 C.2   312  ASP312      0.3668
    115  OD1       15.0810  239.9610   64.3780 O.co2 312  ASP312     -0.2456
    116  OD2       14.3230  241.9830   64.8930 O.co2 312  ASP312     -0.2456
    117  N         10.9610  237.2640   66.0010 N.3   355  ASP355     -0.1239
    118  CA        12.3520  237.5880   66.2910 C.3   355  ASP355      0.1674
    119  C         13.2660  236.3640   66.1680 C.2   355  ASP355      0.2266
    120  O         14.4820  236.4740   66.1620 O.2   355  ASP355     -0.2867
    121  CB        12.4580  238.1540   67.7200 C.3   355  ASP355      0.1410
    122  CG        11.8810  237.2050   68.8120 C.2   355  ASP355      0.3668
    123  OD1       10.9760  236.3730   68.5410 O.co2 355  ASP355     -0.2456
    124  OD2       12.3550  237.2760   69.9650 O.co2 355  ASP355     -0.2456
    125  N         14.8450  234.9730   60.5480 N.3   358  LEU358     -0.1245
    126  CA        15.4470  236.1060   59.8730 C.3   358  LEU358      0.1561
    127  C         15.1780  236.0350   58.3990 C.2   358  LEU358      0.2260
    128  O         15.0970  234.9410   57.8260 O.2   358  LEU358     -0.2867
    129  CB        16.9480  236.0990   60.0890 C.3   358  LEU358      0.0270
    130  CG        17.4300  235.8900   61.4990 C.3   358  LEU358      0.0019
    131  CD1       18.8910  235.5640   61.4620 C.3   358  LEU358      0.0001
    132  CD2       17.1410  237.1180   62.3250 C.3   358  LEU358      0.0001
    133  N         16.8400  230.7020   63.2800 N.3   377  ILE377     -0.1231
    134  CA        17.8160  230.6690   64.3830 C.3   377  ILE377      0.1692
    135  C         17.1460  230.2580   65.6990 C.2   377  ILE377      0.2592
    136  O         15.9400  229.9490   65.6960 O.2   377  ILE377     -0.2718
    137  CB        18.5990  231.9850   64.5230 C.3   377  ILE377      0.0266
    138  CG1       17.6210  233.1590   64.5750 C.3   377  ILE377      0.0019
    139  CG2       19.5250  232.2080   63.3220 C.3   377  ILE377      0.0020
    140  CD1       18.1900  234.4010   65.2020 C.3   377  ILE377      0.0001
    141  N         17.9170  230.2040   66.7970 N.am  378  ASP378     -0.1974
    142  CA        17.3360  230.0870   68.1570 C.3   378  ASP378      0.1709
    143  C         16.3640  228.9060   68.2860 C.2   378  ASP378      0.2293
    144  O         15.2030  229.0940   68.5360 O.2   378  ASP378     -0.2864
    145  CB        16.6670  231.3980   68.5830 C.3   378  ASP378      0.1436
    146  CG        17.6750  232.4840   68.9850 C.2   378  ASP378      0.3671
    147  OD1       18.9180  232.2940   68.8550 O.co2 378  ASP378     -0.2456
    148  OD2       17.2020  233.5480   69.4490 O.co2 378  ASP378     -0.2456
@<TRIPOS>BOND
     1   108   107    1
     2   107   106   ar
     3   107   105   ar
     4   106   104   ar
     5   105   103   ar
     6   104   102   ar
     7   103   102   ar
     8    97    98    1
     9   102   101    1
    10    98   101    1
    11    98    99    1
    12   128   127    2
    13    95    94    1
    14    94    91    1
    15    94    96    1
    16   127   126    1
    17    99   100    2
    18    92    91    1
    19    92    93    2
    20    91    90    1
    21    77    76    1
    22    82    81    2
    23    56    55    1
    24    56    59    1
    25    56    57    1
    26    55    61    1
    27   126   129    1
    28   126   125    1
    29    90    81   am
    30   112   111    2
    31   129   130    1
    32    81    80    1
    33    59    60    1
    34    60    61    1
    35    57    58    2
    36    76    75    1
    37    76    78    1
    38    75    72    1
    39   111   110    1
    40   109   110    1
    41    85    87   ar
    42    85    84   ar
    43    87    89   ar
    44   131   130    1
    45   130   132    1
    46    80    79    1
    47    80    83    1
    48    79    73   am
    49   110   113    1
    50    73    74    2
    51    73    72    1
    52    72    71    1
    53    83    84    1
    54    84    86   ar
    55    89    88   ar
    56    71    64   am
    57   113   114    1
    58   133   134    1
    59   139   137    1
    60    86    88   ar
    61   114   115   ar
    62   114   116   ar
    63    64    65    2
    64    64    63    1
    65    67    68    1
    66    67    66    1
    67   134   137    1
    68   134   135    1
    69    69    68    2
    70   137   138    1
    71   138   140    1
    72    68    70   am
    73    63    66    1
    74    63    62    1
    75   136   135    2
    76   135   141   am
    77   117   118    1
    78   120   119    2
    79   119   118    1
    80   118   121    1
    81    39    40    1
    82    45    43    1
    83   141   142    1
    84    43    40    1
    85    43    44    1
    86   121   122    1
    87    36    38   ar
    88    36    34   ar
    89    40    41    1
    90    38    37   ar
    91    34    33   ar
    92    42    41    2
    93   142   143    1
    94   142   145    1
    95   143   144    2
    96   123   122   ar
    97   145   146    1
    98    37    35   ar
    99    33    35   ar
   100    33    32    1
   101   122   124   ar
   102   147   146   ar
   103   146   148   ar
   104    32    29    1
   105    16    15    2
   106    17    15   am
   107    30    29    1
   108    30    31    2
   109    29    28    1
   110    15    14    1
   111    54    53    1
   112     8     6    1
   113    14    13    1
   114    53    52    1
   115    13    10    1
   116     6     5    1
   117    52    51    1
   118     7     5    1
   119    46    47    1
   120    51    50    1
   121     5     2    1
   122    50    47    1
   123    10    11    1
   124    10     9    1
   125    12    11    2
   126    11    18   am
   127    47    48    1
   128    26    27    1
   129    26    23    1
   130     2     1    1
   131     2     3    1
   132    24    23    1
   133    24    25    2
   134    18    19    1
   135    49    48    2
   136    23    22    1
   137    19    20    1
   138     3     4    2
   139    20    21    2
