@<TRIPOS>MOLECULE
tmp/4yc8B00.pdb
 178 170 0 0 0
SMALL
GASTEIGER

@<TRIPOS>ATOM
      1  N         47.7510   33.5990   24.8130 N.3    16  LEU16      -0.1245
      2  CA        47.1230   32.2830   24.9510 C.3    16  LEU16       0.1561
      3  C         48.0190   31.2310   24.3160 C.2    16  LEU16       0.2260
      4  O         48.0080   30.0800   24.7330 O.2    16  LEU16      -0.2867
      5  CB        45.7270   32.2670   24.3020 C.3    16  LEU16       0.0270
      6  CG        44.6360   33.0630   25.0170 C.3    16  LEU16       0.0019
      7  CD1       43.3900   33.0480   24.1630 C.3    16  LEU16       0.0001
      8  CD2       44.3130   32.4890   26.3730 C.3    16  LEU16       0.0001
      9  N         50.4580   32.5820   20.3910 N.3    18  VAL18      -0.1245
     10  CA        49.0850   33.0060   20.0820 C.3    18  VAL18       0.1561
     11  C         48.6510   34.0610   21.1190 C.2    18  VAL18       0.2260
     12  O         48.8270   33.8510   22.3150 O.2    18  VAL18      -0.2867
     13  CB        48.0840   31.8160   19.9910 C.3    18  VAL18       0.0252
     14  CG1       46.6930   32.2790   19.5560 C.3    18  VAL18       0.0019
     15  CG2       48.5980   30.7300   19.0460 C.3    18  VAL18       0.0019
     16  N         42.2130   36.6830   17.2580 N.3    31  ALA31      -0.1231
     17  CA        43.2470   35.7450   17.6920 C.3    31  ALA31       0.1694
     18  C         44.4190   35.9560   16.7710 C.2    31  ALA31       0.2592
     19  O         44.2280   35.9670   15.5510 O.2    31  ALA31      -0.2718
     20  CB        42.7320   34.3190   17.6210 C.3    31  ALA31       0.0304
     21  N         45.6020   36.2460   17.3320 N.am   32  VAL32      -0.1966
     22  CA        46.7780   36.5680   16.5210 C.3    32  VAL32       0.1727
     23  C         47.9260   35.5850   16.7780 C.2    32  VAL32       0.2616
     24  O         48.1780   35.2330   17.9210 O.2    32  VAL32      -0.2715
     25  CB        47.2410   38.0350   16.7560 C.3    32  VAL32       0.0290
     26  CG1       48.1370   38.5230   15.6160 C.3    32  VAL32       0.0023
     27  CG2       46.0540   38.9770   16.9440 C.3    32  VAL32       0.0023
     28  N         48.6260   35.1520   15.7210 N.am   33  LYS33      -0.1977
     29  CA        49.7780   34.2540   15.8540 C.3    33  LYS33       0.1596
     30  C         51.0020   34.9550   15.2720 C.2    33  LYS33       0.2287
     31  O         51.0500   35.2410   14.0740 O.2    33  LYS33      -0.2864
     32  CB        49.5290   32.8820   15.2040 C.3    33  LYS33       0.0298
     33  CG        50.4270   31.7940   15.6860 C.3    33  LYS33       0.0038
     34  CD        50.1470   30.5310   14.8910 C.3    33  LYS33       0.0206
     35  CE        51.3980   29.6640   14.7590 C.3    33  LYS33       0.1093
     36  NZ        52.5510   30.3710   14.0780 N.3    33  LYS33      -0.1314
     37  N         54.2500   28.2210    7.2470 N.3    45  PHE45      -0.1241
     38  CA        53.1310   28.8730    7.9220 C.3    45  PHE45       0.1605
     39  C         52.3830   29.7780    6.9450 C.2    45  PHE45       0.2264
     40  O         51.1550   29.8070    6.9700 O.2    45  PHE45      -0.2867
     41  CB        53.6010   29.6650    9.1620 C.3    45  PHE45       0.0534
     42  CG        53.9700   28.8670   10.4060 C.ar   45  PHE45      -0.0203
     43  CD1       53.5780   27.5390   10.5510 C.ar   45  PHE45      -0.0042
     44  CD2       54.6830   29.4580   11.4470 C.ar   45  PHE45      -0.0042
     45  CE1       53.9250   26.8100   11.6960 C.ar   45  PHE45      -0.0003
     46  CE2       55.0210   28.7290   12.5930 C.ar   45  PHE45      -0.0003
     47  CZ        54.6340   27.4140   12.7120 C.ar   45  PHE45      -0.0000
     48  N         50.3860   27.5440    4.6290 N.3    48  GLU48      -0.1231
     49  CA        49.2150   27.0260    5.3280 C.3    48  GLU48       0.1699
     50  C         48.2010   28.1270    5.6080 C.2    48  GLU48       0.2592
     51  O         47.0150   27.8260    5.7370 O.2    48  GLU48      -0.2718
     52  CB        49.6070   26.2930    6.6190 C.3    48  GLU48       0.0402
     53  CG        50.3370   24.9720    6.4070 C.3    48  GLU48       0.1161
     54  CD        49.5710   23.7990    5.8150 C.2    48  GLU48       0.3649
     55  OE1       49.6430   22.7040    6.4150 O.co2  48  GLU48      -0.2457
     56  OE2       48.9790   23.9410    4.7190 O.co2  48  GLU48      -0.2457
     57  N         48.6460   29.3930    5.6860 N.am   49  ALA49      -0.1980
     58  CA        47.7450   30.5290    5.8930 C.3    49  ALA49       0.1597
     59  C         47.0670   30.8650    4.5750 C.2    49  ALA49       0.2287
     60  O         45.9110   31.2880    4.5700 O.2    49  ALA49      -0.2864
     61  CB        48.5040   31.7340    6.4340 C.3    49  ALA49       0.0319
     62  N         43.8660   28.9240    3.9680 N.3    52  MET52      -0.1245
     63  CA        42.7580   29.5140    4.7320 C.3    52  MET52       0.1570
     64  C         42.0010   30.6390    3.9770 C.2    52  MET52       0.2261
     65  O         40.9280   31.0830    4.4260 O.2    52  MET52      -0.2867
     66  CB        43.2720   30.0470    6.0670 C.3    52  MET52       0.0387
     67  CG        43.5690   28.9860    7.0560 C.3    52  MET52       0.0595
     68  SD        43.8920   29.7160    8.6630 S.3    52  MET52      -0.1393
     69  CE        42.2390   30.0240    9.2250 C.3    52  MET52       0.0692
     70  N         37.1970   27.5640   11.2160 N.3    61  VAL61      -0.1245
     71  CA        37.7600   28.8170   11.7640 C.3    61  VAL61       0.1561
     72  C         38.1930   29.7200   10.6010 C.2    61  VAL61       0.2260
     73  O         38.9280   29.2810    9.7220 O.2    61  VAL61      -0.2867
     74  CB        38.9150   28.5790   12.7750 C.3    61  VAL61       0.0252
     75  CG1       39.5450   29.8970   13.2280 C.3    61  VAL61       0.0019
     76  CG2       38.4410   27.7550   13.9740 C.3    61  VAL61       0.0019
     77  N         49.2820   36.4840   11.6910 N.3    75  ILE75      -0.1245
     78  CA        48.2010   35.7130   11.0690 C.3    75  ILE75       0.1561
     79  C         47.0120   35.9140   11.9990 C.2    75  ILE75       0.2260
     80  O         47.0860   35.5920   13.1870 O.2    75  ILE75      -0.2867
     81  CB        48.5340   34.2310   10.7670 C.3    75  ILE75       0.0252
     82  CG1       49.7200   34.1130    9.7860 C.3    75  ILE75       0.0019
     83  CG2       47.3050   33.5100   10.2070 C.3    75  ILE75       0.0019
     84  CD1       50.7720   33.1250   10.2150 C.3    75  ILE75       0.0001
     85  N         42.9750   35.4080   12.8210 N.3    77  THR77      -0.1203
     86  CA        41.7640   34.6130   12.6150 C.3    77  THR77       0.1994
     87  C         40.7100   35.0860   13.5880 C.2    77  THR77       0.2618
     88  O         41.0200   35.8690   14.4920 O.2    77  THR77      -0.2717
     89  CB        41.9940   33.0890   12.7810 C.3    77  THR77       0.1784
     90  OG1       42.1060   32.7640   14.1630 O.3    77  THR77      -0.2211
     91  CG2       43.1500   32.5500   11.9630 C.3    77  THR77       0.0376
     92  N         39.4800   34.5610   13.4460 N.am   78  GLU78      -0.1965
     93  CA        38.3730   34.8480   14.3510 C.3    78  GLU78       0.1733
     94  C         38.6940   34.3270   15.7610 C.2    78  GLU78       0.2616
     95  O         39.4740   33.3700   15.9060 O.2    78  GLU78      -0.2715
     96  CB        37.0660   34.2390   13.8250 C.3    78  GLU78       0.0429
     97  CG        37.0480   32.7230   13.7220 C.3    78  GLU78       0.1163
     98  CD        35.6920   32.1570   13.3590 C.2    78  GLU78       0.3649
     99  OE1       35.5830   31.4930   12.3020 O.co2  78  GLU78      -0.2457
    100  OE2       34.7230   32.4260   14.1050 O.co2  78  GLU78      -0.2457
    101  N         38.1330   34.9760   16.7950 N.am   79  PHE79      -0.1960
    102  CA        38.3940   34.5180   18.1490 C.3    79  PHE79       0.1771
    103  C         37.2690   33.6050   18.6000 C.2    79  PHE79       0.2619
    104  O         36.1000   33.9920   18.5900 O.2    79  PHE79      -0.2715
    105  CB        38.6180   35.6720   19.1370 C.3    79  PHE79       0.0574
    106  CG        38.9930   35.1860   20.5220 C.ar   79  PHE79      -0.0200
    107  CD1       40.2740   34.7060   20.7870 C.ar   79  PHE79      -0.0042
    108  CD2       38.0570   35.1770   21.5530 C.ar   79  PHE79      -0.0042
    109  CE1       40.6170   34.2460   22.0640 C.ar   79  PHE79      -0.0003
    110  CE2       38.4000   34.7170   22.8270 C.ar   79  PHE79      -0.0003
    111  CZ        39.6790   34.2580   23.0760 C.ar   79  PHE79      -0.0000
    112  N         37.6350   32.3830   18.9900 N.am   80  MET80      -0.1963
    113  CA        36.6820   31.3900   19.4630 C.3    80  MET80       0.1736
    114  C         36.6260   31.4860   20.9990 C.2    80  MET80       0.2617
    115  O         37.5470   31.0420   21.6840 O.2    80  MET80      -0.2715
    116  CB        37.0450   29.9740   18.9440 C.3    80  MET80       0.0427
    117  CG        37.0800   29.8440   17.4050 C.3    80  MET80       0.0599
    118  SD        35.5940   30.3480   16.4750 S.3    80  MET80      -0.1393
    119  CE        34.3220   29.2830   17.1960 C.3    80  MET80       0.0692
    120  N         35.5590   32.1250   21.5150 N.am   81  THR81      -0.1937
    121  CA        35.2980   32.4280   22.9290 C.3    81  THR81       0.2028
    122  C         35.6510   31.3060   23.9270 C.2    81  THR81       0.2642
    123  O         36.2800   31.6230   24.9390 O.2    81  THR81      -0.2714
    124  CB        33.8160   32.8250   23.1340 C.3    81  THR81       0.1808
    125  OG1       33.4870   33.8830   22.2460 O.3    81  THR81      -0.2208
    126  CG2       33.5100   33.2790   24.5520 C.3    81  THR81       0.0379
    127  N         35.2180   30.0420   23.6890 N.am   82  TYR82      -0.1959
    128  CA        35.3610   28.9650   24.6770 C.3    82  TYR82       0.1771
    129  C         36.5450   28.0050   24.4660 C.2    82  TYR82       0.2620
    130  O         36.5990   26.9640   25.1430 O.2    82  TYR82      -0.2715
    131  CB        34.0570   28.1580   24.7690 C.3    82  TYR82       0.0574
    132  CG        32.9130   28.9780   25.3200 C.ar   82  TYR82      -0.0198
    133  CD1       32.1030   29.7380   24.4770 C.ar   82  TYR82      -0.0009
    134  CD2       32.6660   29.0360   26.6870 C.ar   82  TYR82      -0.0009
    135  CE1       31.0700   30.5250   24.9810 C.ar   82  TYR82       0.0417
    136  CE2       31.6400   29.8290   27.2050 C.ar   82  TYR82       0.0417
    137  CZ        30.8480   30.5790   26.3480 C.ar   82  TYR82       0.1957
    138  OH        29.8310   31.3560   26.8550 O.3    82  TYR82      -0.2866
    139  N         37.5000   28.3750   23.6060 N.am   83  GLY83      -0.1940
    140  CA        38.6870   27.5580   23.3600 C.3    83  GLY83       0.2014
    141  C         38.3650   26.2050   22.7590 C.2    83  GLY83       0.2638
    142  O         37.3540   26.0870   22.0530 O.2    83  GLY83      -0.2714
    143  N         39.2150   25.1710   23.0340 N.am   84  ASN84      -0.1972
    144  CA        39.0360   23.8280   22.4480 C.3    84  ASN84       0.1688
    145  C         37.7930   23.1100   23.0110 C.2    84  ASN84       0.2292
    146  O         37.2780   23.4820   24.0710 O.2    84  ASN84      -0.2864
    147  CB        40.2830   22.9610   22.5700 C.3    84  ASN84       0.1181
    148  CG        40.5390   22.4710   23.9560 C.2    84  ASN84       0.2629
    149  OD1       39.9920   21.4610   24.3860 O.2    84  ASN84      -0.2716
    150  ND2       41.3590   23.1880   24.6950 N.am   84  ASN84      -0.0877
    151  N         34.7490   20.4770   31.2940 N.3    91  GLU91      -0.1196
    152  CA        34.3540   21.5530   32.2100 C.3    91  GLU91       0.1783
    153  C         32.8850   22.0070   32.0720 C.2    91  GLU91       0.2306
    154  O         32.4280   22.7670   32.9200 O.2    91  GLU91      -0.2863
    155  CB        35.2660   22.7870   31.9730 C.2    91  GLU91       0.0071
    156  CG        36.7580   22.5530   32.2020 C.2    91  GLU91       0.0834
    157  CD        37.7150   23.5770   31.6090 C.2    91  GLU91       0.3877
    158  OE1       37.3050   24.3470   30.7080 O.co2  91  GLU91      -0.2406
    159  OE2       38.8980   23.5800   32.0240 O.co2  91  GLU91      -0.2406
    160  N         37.3480   24.1310   17.9570 N.3   132  LEU132     -0.1245
    161  CA        37.1710   25.2940   18.8180 C.3   132  LEU132      0.1561
    162  C         35.6840   25.6080   18.9470 C.2   132  LEU132      0.2260
    163  O         34.9230   25.3490   18.0130 O.2   132  LEU132     -0.2867
    164  CB        37.9730   26.4940   18.2910 C.3   132  LEU132      0.0270
    165  CG        39.5090   26.4040   18.3920 C.3   132  LEU132      0.0019
    166  CD1       40.1720   27.2670   17.3420 C.3   132  LEU132      0.0001
    167  CD2       40.0060   26.8110   19.7630 C.3   132  LEU132      0.0001
    168  N         44.1840   25.3080   10.3910 N.3   144  PHE144     -0.1241
    169  CA        45.4540   26.0350   10.3680 C.3   144  PHE144      0.1605
    170  C         46.5870   25.2340    9.7220 C.2   144  PHE144      0.2264
    171  O         47.6870   25.7610    9.5540 O.2   144  PHE144     -0.2867
    172  CB        45.8380   26.4480   11.7940 C.3   144  PHE144      0.0534
    173  CG        44.6940   26.9810   12.6260 C.ar  144  PHE144     -0.0203
    174  CD1       43.8760   28.0080   12.1460 C.ar  144  PHE144     -0.0042
    175  CD2       44.4400   26.4690   13.8910 C.ar  144  PHE144     -0.0042
    176  CE1       42.8110   28.4910   12.9030 C.ar  144  PHE144     -0.0003
    177  CE2       43.3920   26.9740   14.6630 C.ar  144  PHE144     -0.0003
    178  CZ        42.5840   27.9830   14.1620 C.ar  144  PHE144     -0.0000
@<TRIPOS>BOND
     1    62    63    1
     2    64    65    2
     3    64    63    1
     4    60    59    2
     5    59    58    1
     6    48    49    1
     7    56    54   ar
     8    63    66    1
     9    49    50    1
    10    49    52    1
    11    50    57   am
    12    50    51    2
    13    57    58    1
    14    54    53    1
    15    54    55   ar
    16    58    61    1
    17    66    67    1
    18    53    52    1
    19    39    40    2
    20    39    38    1
    21    67    68    1
    22    37    38    1
    23    38    41    1
    24    68    69    1
    25    41    42    1
    26   171   170    2
    27   170   169    1
    28    73    72    2
    29    82    84    1
    30    82    81    1
    31    83    81    1
    32   169   168    1
    33   169   172    1
    34    42    43   ar
    35    42    44   ar
    36    43    45   ar
    37    72    71    1
    38    81    78    1
    39    78    77    1
    40    78    79    1
    41    70    71    1
    42    44    46   ar
    43    45    47   ar
    44    71    74    1
    45   172   173    1
    46    91    89    1
    47    79    80    2
    48   174   173   ar
    49   174   176   ar
    50    99    98   ar
    51    46    47   ar
    52    86    89    1
    53    86    85    1
    54    86    87    1
    55   173   175   ar
    56    74    75    1
    57    74    76    1
    58    89    90    1
    59   176   178   ar
    60    98    97    1
    61    98   100   ar
    62    92    87   am
    63    92    93    1
    64    87    88    2
    65    97    96    1
    66    96    93    1
    67   175   177   ar
    68    31    30    2
    69    36    35    1
    70   178   177   ar
    71    93    94    1
    72    35    34    1
    73    34    33    1
    74    32    33    1
    75    32    29    1
    76    30    29    1
    77    19    18    2
    78    26    25    1
    79    28    29    1
    80    28    23   am
    81    94    95    2
    82    94   101   am
    83   118   119    1
    84   118   117    1
    85    22    25    1
    86    22    23    1
    87    22    21    1
    88    25    27    1
    89    18    21   am
    90    18    17    1
    91    23    24    2
    92   101   102    1
    93    16    17    1
    94   166   165    1
    95   117   116    1
    96    20    17    1
    97   160   161    1
    98   163   162    2
    99   102   103    1
   100   102   105    1
   101   164   165    1
   102   164   161    1
   103   165   167    1
   104   104   103    2
   105   103   112   am
   106   161   162    1
   107   116   113    1
   108   112   113    1
   109    15    13    1
   110   105   106    1
   111   113   114    1
   112    14    13    1
   113    13    10    1
   114    10     9    1
   115    10    11    1
   116   106   107   ar
   117   106   108   ar
   118   107   109   ar
   119   114   120   am
   120   114   115    2
   121    11    12    2
   122   120   121    1
   123   108   110   ar
   124   142   141    2
   125   109   111   ar
   126   125   124    1
   127   144   147    1
   128   144   145    1
   129   144   143    1
   130   147   148    1
   131   141   143   am
   132   141   140    1
   133   110   111   ar
   134   121   124    1
   135   121   122    1
   136   145   146    2
   137   124   126    1
   138   140   139    1
   139   139   129   am
   140   127   122   am
   141   127   128    1
   142   122   123    2
   143   148   149    2
   144   148   150   am
   145     7     6    1
   146     5     2    1
   147     5     6    1
   148     3     4    2
   149     3     2    1
   150   129   128    1
   151   129   130    2
   152   133   135   ar
   153   133   132   ar
   154   128   131    1
   155   131   132    1
   156     1     2    1
   157   135   137   ar
   158     6     8    1
   159   132   134   ar
   160   137   138    1
   161   137   136   ar
   162   134   136   ar
   163   158   157   ar
   164   151   152    1
   165   157   159   ar
   166   157   156    1
   167   155   156    2
   168   155   152    1
   169   153   152    1
   170   153   154    2
