@<TRIPOS>MOLECULE
tmp/4ycnA00.pdb
 214 202 0 0 0
SMALL
GASTEIGER

@<TRIPOS>ATOM
      1  N         18.6260  -18.2900   58.1960 N.3    55  GLN55      -0.1245
      2  CA        19.8630  -18.0980   58.9440 C.3    55  GLN55       0.1566
      3  C         19.9610  -19.0890   60.0990 C.2    55  GLN55       0.2260
      4  O         21.0520  -19.4140   60.5690 O.2    55  GLN55      -0.2867
      5  CB        19.9560  -16.6630   59.4630 C.3    55  GLN55       0.0367
      6  CG        20.2160  -15.6420   58.3750 C.3    55  GLN55       0.0905
      7  CD        21.5610  -15.8400   57.7110 C.2    55  GLN55       0.2608
      8  OE1       22.5580  -16.1350   58.3720 O.2    55  GLN55      -0.2717
      9  NE2       21.5950  -15.6850   56.3940 N.am   55  GLN55      -0.0878
     10  N         25.2580  -25.8420   63.1260 N.3    60  LEU60      -0.1231
     11  CA        26.0380  -25.1430   64.1440 C.3    60  LEU60       0.1693
     12  C         25.2600  -23.9930   64.7740 C.2    60  LEU60       0.2591
     13  O         25.3570  -23.7580   65.9790 O.2    60  LEU60      -0.2718
     14  CB        27.3470  -24.6160   63.5540 C.3    60  LEU60       0.0284
     15  CG        28.6220  -25.1030   64.2480 C.3    60  LEU60       0.0019
     16  CD1       29.8100  -24.2230   63.8850 C.3    60  LEU60       0.0001
     17  CD2       28.4320  -25.1670   65.7570 C.3    60  LEU60       0.0001
     18  N         24.4920  -23.2740   63.9600 N.am   61  VAL61      -0.1980
     19  CA        23.7110  -22.1490   64.4610 C.3    61  VAL61       0.1595
     20  C         22.6010  -22.6450   65.3800 C.2    61  VAL61       0.2287
     21  O         22.1530  -21.9280   66.2750 O.2    61  VAL61      -0.2864
     22  CB        23.1020  -21.3180   63.3160 C.3    61  VAL61       0.0276
     23  CG1       22.1060  -22.1500   62.5230 C.3    61  VAL61       0.0022
     24  CG2       22.4370  -20.0680   63.8690 C.3    61  VAL61       0.0022
     25  N         24.3530  -23.3160   68.8280 N.3    64  LEU64      -0.1245
     26  CA        24.5080  -22.0870   69.5940 C.3    64  LEU64       0.1561
     27  C         23.1460  -21.5900   70.0680 C.2    64  LEU64       0.2260
     28  O         23.0230  -21.0290   71.1570 O.2    64  LEU64      -0.2867
     29  CB        25.2130  -21.0170   68.7550 C.3    64  LEU64       0.0270
     30  CG        26.0120  -19.9470   69.5030 C.3    64  LEU64       0.0019
     31  CD1       26.8300  -19.1180   68.5270 C.3    64  LEU64       0.0001
     32  CD2       25.1020  -19.0530   70.3280 C.3    64  LEU64       0.0001
     33  N         23.5200  -14.0240   68.0810 N.3    97  LEU97      -0.1245
     34  CA        22.6150  -14.7550   67.2040 C.3    97  LEU97       0.1561
     35  C         21.7210  -13.7930   66.4290 C.2    97  LEU97       0.2260
     36  O         21.2980  -14.0890   65.3120 O.2    97  LEU97      -0.2867
     37  CB        21.7670  -15.7420   68.0080 C.3    97  LEU97       0.0270
     38  CG        22.5240  -16.9080   68.6480 C.3    97  LEU97       0.0019
     39  CD1       21.5780  -17.7890   69.4480 C.3    97  LEU97       0.0001
     40  CD2       23.2520  -17.7230   67.5890 C.3    97  LEU97       0.0001
     41  N         24.5580  -11.7400   64.0800 N.3   100  ASN100     -0.1240
     42  CA        25.0310  -12.6380   63.0300 C.3   100  ASN100      0.1653
     43  C         23.9490  -12.9410   61.9990 C.2   100  ASN100      0.2266
     44  O         24.2310  -13.0510   60.8060 O.2   100  ASN100     -0.2867
     45  CB        25.5490  -13.9420   63.6360 C.3   100  ASN100      0.1155
     46  CG        27.0400  -13.9060   63.9030 C.2   100  ASN100      0.2627
     47  OD1       27.7060  -12.9020   63.6470 O.2   100  ASN100     -0.2716
     48  ND2       27.5730  -15.0050   64.4230 N.am  100  ASN100     -0.0877
     49  N         23.4390  -10.0740   59.5990 N.3   103  VAL103     -0.1231
     50  CA        24.4760   -9.9940   58.5790 C.3   103  VAL103      0.1692
     51  C         24.1440  -10.8930   57.3940 C.2   103  VAL103      0.2592
     52  O         24.4090  -10.5440   56.2430 O.2   103  VAL103     -0.2718
     53  CB        25.8540  -10.3870   59.1380 C.3   103  VAL103      0.0266
     54  CG1       26.8930  -10.3820   58.0290 C.3   103  VAL103      0.0020
     55  CG2       26.2600   -9.4470   60.2620 C.3   103  VAL103      0.0020
     56  N         23.5640  -12.0530   57.6840 N.am  104  GLY104     -0.1957
     57  CA        23.2220  -13.0160   56.6550 C.3   104  GLY104      0.1869
     58  C         21.9680  -12.6270   55.9010 C.2   104  GLY104      0.2309
     59  O         21.8310  -12.9090   54.7110 O.2   104  GLY104     -0.2863
     60  N         21.2600   -9.6950   55.3250 N.3   106  TRP106     -0.1241
     61  CA        21.6110   -8.4420   54.6690 C.3   106  TRP106      0.1605
     62  C         21.7240   -8.6090   53.1580 C.2   106  TRP106      0.2264
     63  O         22.8060   -8.8610   52.6280 O.2   106  TRP106     -0.2867
     64  CB        22.9230   -7.8910   55.2320 C.3   106  TRP106      0.0550
     65  CG        23.0230   -6.4000   55.1500 C.ar  106  TRP106      0.0003
     66  CD1       21.9920   -5.5070   55.1820 C.ar  106  TRP106      0.0946
     67  CD2       24.2210   -5.6250   55.0140 C.ar  106  TRP106      0.0152
     68  NE1       22.4730   -4.2240   55.0800 N.ar  106  TRP106     -0.2442
     69  CE2       23.8380   -4.2700   54.9750 C.ar  106  TRP106      0.0810
     70  CE3       25.5780   -5.9470   54.9230 C.ar  106  TRP106      0.0012
     71  CZ2       24.7640   -3.2360   54.8490 C.ar  106  TRP106      0.0191
     72  CZ3       26.4960   -4.9190   54.7980 C.ar  106  TRP106      0.0001
     73  CH2       26.0850   -3.5800   54.7620 C.ar  106  TRP106      0.0015
     74  N         29.9450  -18.4090   46.4280 N.3   246  THR246     -0.1218
     75  CA        31.3910  -18.3570   46.2290 C.3   246  THR246      0.1862
     76  C         32.0870  -19.5010   46.9600 C.2   246  THR246      0.2287
     77  O         31.6450  -19.9100   48.0340 O.2   246  THR246     -0.2866
     78  CB        31.9770  -17.0100   46.7030 C.3   246  THR246      0.1770
     79  OG1       33.4030  -17.1080   46.7930 O.3   246  THR246     -0.2211
     80  CG2       31.4210  -16.6360   48.0660 C.3   246  THR246      0.0375
     81  N         34.5820  -19.8300   48.8120 N.3   248  LEU248     -0.1231
     82  CA        34.8990  -19.5820   50.2130 C.3   248  LEU248      0.1693
     83  C         33.6830  -19.8120   51.1040 C.2   248  LEU248      0.2591
     84  O         33.7920  -20.4060   52.1770 O.2   248  LEU248     -0.2718
     85  CB        35.4230  -18.1580   50.4030 C.3   248  LEU248      0.0284
     86  CG        35.6690  -17.7300   51.8520 C.3   248  LEU248      0.0019
     87  CD1       36.6710  -18.6550   52.5250 C.3   248  LEU248      0.0001
     88  CD2       36.1430  -16.2880   51.9100 C.3   248  LEU248      0.0001
     89  N         32.5260  -19.3350   50.6530 N.am  249  GLN249     -0.1979
     90  CA        31.2870  -19.4960   51.4050 C.3   249  GLN249      0.1601
     91  C         30.9360  -20.9660   51.5970 C.2   249  GLN249      0.2287
     92  O         30.4040  -21.3550   52.6370 O.2   249  GLN249     -0.2864
     93  CB        30.1350  -18.7700   50.7060 C.3   249  GLN249      0.0394
     94  CG        30.1420  -17.2650   50.9080 C.3   249  GLN249      0.0908
     95  CD        28.9630  -16.5810   50.2440 C.2   249  GLN249      0.2608
     96  OE1       28.4360  -17.0600   49.2400 O.2   249  GLN249     -0.2717
     97  NE2       28.5410  -15.4550   50.8080 N.am  249  GLN249     -0.0878
     98  N         33.1880  -22.2930   54.3580 N.3   252  LEU252     -0.1245
     99  CA        32.7850  -21.8260   55.6790 C.3   252  LEU252      0.1561
    100  C         31.5460  -22.5810   56.1510 C.2   252  LEU252      0.2260
    101  O         31.3710  -22.8230   57.3460 O.2   252  LEU252     -0.2867
    102  CB        32.5250  -20.3190   55.6660 C.3   252  LEU252      0.0270
    103  CG        33.7270  -19.4410   55.3040 C.3   252  LEU252      0.0019
    104  CD1       33.4190  -17.9730   55.5520 C.3   252  LEU252      0.0001
    105  CD2       34.9660  -19.8720   56.0770 C.3   252  LEU252      0.0001
    106  N         32.9190  -25.9290   56.9560 N.3   255  PHE255     -0.1227
    107  CA        33.6270  -25.8410   58.2270 C.3   255  PHE255      0.1736
    108  C         32.6500  -25.8810   59.3950 C.2   255  PHE255      0.2596
    109  O         32.9330  -26.4760   60.4350 O.2   255  PHE255     -0.2718
    110  CB        34.4680  -24.5640   58.2880 C.3   255  PHE255      0.0547
    111  CG        35.0770  -24.3050   59.6360 C.ar  255  PHE255     -0.0202
    112  CD1       36.2500  -24.9360   60.0130 C.ar  255  PHE255     -0.0042
    113  CD2       34.4780  -23.4290   60.5250 C.ar  255  PHE255     -0.0042
    114  CE1       36.8130  -24.7000   61.2520 C.ar  255  PHE255     -0.0003
    115  CE2       35.0360  -23.1890   61.7660 C.ar  255  PHE255     -0.0003
    116  CZ        36.2050  -23.8250   62.1290 C.ar  255  PHE255     -0.0000
    117  N         31.5000  -25.2390   59.2140 N.am  256  GLY256     -0.1957
    118  CA        30.4660  -25.2190   60.2320 C.3   256  GLY256      0.1869
    119  C         29.9170  -26.6060   60.5030 C.2   256  GLY256      0.2309
    120  O         29.4820  -26.9060   61.6140 O.2   256  GLY256     -0.2863
    121  N         33.1410  -22.2180   68.7830 N.3   306  ILE306     -0.1231
    122  CA        32.6310  -21.3670   67.7140 C.3   306  ILE306      0.1678
    123  C         33.3270  -20.0110   67.6640 C.2   306  ILE306      0.2434
    124  O         33.3700  -19.2920   68.6620 O.2   306  ILE306     -0.2733
    125  CB        31.1160  -21.1350   67.8590 C.3   306  ILE306      0.0265
    126  CG1       30.3630  -22.4620   67.7530 C.3   306  ILE306      0.0019
    127  CG2       30.6230  -20.1540   66.8070 C.3   306  ILE306      0.0020
    128  CD1       28.8630  -22.3260   67.8780 C.3   306  ILE306      0.0001
    129  N         33.8900  -19.6670   66.4970 N.am  307  PRO307     -0.2718
    130  CA        34.4420  -18.3330   66.2410 C.3   307  PRO307      0.1535
    131  C         33.3320  -17.3290   65.9380 C.2   307  PRO307      0.2598
    132  O         33.2260  -16.8570   64.8060 O.2   307  PRO307     -0.2715
    133  CB        35.3410  -18.5460   65.0130 C.3   307  PRO307      0.0310
    134  CG        35.4710  -20.0430   64.8600 C.3   307  PRO307      0.0237
    135  CD        34.2020  -20.6030   65.4070 C.3   307  PRO307      0.0939
    136  N         32.5200  -17.0090   66.9410 N.am  308  GLU308     -0.1978
    137  CA        31.3340  -16.1780   66.7400 C.3   308  GLU308      0.1602
    138  C         31.6520  -14.7590   66.2770 C.2   308  GLU308      0.2287
    139  O         30.7540  -14.0150   65.8850 O.2   308  GLU308     -0.2864
    140  CB        30.5040  -16.1140   68.0240 C.3   308  GLU308      0.0415
    141  CG        31.3130  -15.8440   69.2790 C.3   308  GLU308      0.1163
    142  CD        31.7120  -17.1200   69.9870 C.2   308  GLU308      0.3649
    143  OE1       32.7130  -17.1020   70.7340 O.co2 308  GLU308     -0.2457
    144  OE2       31.0190  -18.1430   69.7990 O.co2 308  GLU308     -0.2457
    145  N         33.8730  -14.1370   63.8170 N.3   310  LEU310     -0.1231
    146  CA        34.3810  -14.2280   62.4490 C.3   310  LEU310      0.1678
    147  C         33.5730  -13.4190   61.4310 C.2   310  LEU310      0.2434
    148  O         34.1380  -12.6030   60.7130 O.2   310  LEU310     -0.2733
    149  CB        34.4430  -15.6930   62.0050 C.3   310  LEU310      0.0284
    150  CG        34.9050  -15.9700   60.5720 C.3   310  LEU310      0.0019
    151  CD1       36.2680  -15.3510   60.3100 C.3   310  LEU310      0.0001
    152  CD2       34.9360  -17.4670   60.3070 C.3   310  LEU310      0.0001
    153  N         32.2520  -13.6450   61.3630 N.am  311  PRO311     -0.2729
    154  CA        31.3800  -12.9930   60.3750 C.3   311  PRO311      0.1401
    155  C         31.4650  -11.4680   60.3960 C.2   311  PRO311      0.2269
    156  O         31.5070  -10.8370   59.3390 O.2   311  PRO311     -0.2865
    157  CB        29.9840  -13.4600   60.7880 C.3   311  PRO311      0.0296
    158  CG        30.2230  -14.7400   61.4720 C.3   311  PRO311      0.0237
    159  CD        31.5030  -14.5840   62.2110 C.3   311  PRO311      0.0939
    160  N         34.9490  -10.3990   58.8580 N.3   314  ILE314     -0.1231
    161  CA        35.1160  -10.4810   57.4120 C.3   314  ILE314      0.1692
    162  C         34.2570   -9.4390   56.7030 C.2   314  ILE314      0.2592
    163  O         34.6580   -8.8880   55.6790 O.2   314  ILE314     -0.2718
    164  CB        34.7710  -11.8910   56.8770 C.3   314  ILE314      0.0266
    165  CG1       33.2570  -12.0810   56.7430 C.3   314  ILE314      0.0019
    166  CG2       35.3820  -12.9630   57.7660 C.3   314  ILE314      0.0020
    167  CD1       32.7140  -11.7340   55.3670 C.3   314  ILE314      0.0001
    168  N         33.0770   -9.1690   57.2550 N.am  315  THR315     -0.1953
    169  CA        32.1660   -8.1970   56.6630 C.3   315  THR315      0.1897
    170  C         32.7800   -6.8040   56.6860 C.2   315  THR315      0.2313
    171  O         32.5930   -6.0160   55.7600 O.2   315  THR315     -0.2863
    172  CB        30.8130   -8.1670   57.3950 C.3   315  THR315      0.1794
    173  OG1       30.2290   -9.4750   57.3800 O.3   315  THR315     -0.2208
    174  CG2       29.8670   -7.1860   56.7200 C.3   315  THR315      0.0378
    175  N         35.7600   -6.9220   54.0070 N.3   318  LEU318     -0.1245
    176  CA        35.2760   -6.8300   52.6360 C.3   318  LEU318      0.1561
    177  C         34.6750   -5.4580   52.3560 C.2   318  LEU318      0.2260
    178  O         34.6970   -4.9820   51.2210 O.2   318  LEU318     -0.2867
    179  CB        34.2460   -7.9240   52.3550 C.3   318  LEU318      0.0270
    180  CG        34.8000   -9.3050   52.0000 C.3   318  LEU318      0.0019
    181  CD1       35.7900   -9.7870   53.0490 C.3   318  LEU318      0.0001
    182  CD2       33.6640  -10.3030   51.8330 C.3   318  LEU318      0.0001
    183  N         29.2750   -8.1950   48.3390 N.3   335  LEU335     -0.1231
    184  CA        30.4450   -8.2360   49.2150 C.3   335  LEU335      0.1678
    185  C         31.3570   -9.4350   48.9470 C.2   335  LEU335      0.2434
    186  O         32.5630   -9.2640   48.7720 O.2   335  LEU335     -0.2733
    187  CB        30.0100   -8.2360   50.6840 C.3   335  LEU335      0.0284
    188  CG        29.8170   -6.8630   51.3310 C.3   335  LEU335      0.0019
    189  CD1       31.1480   -6.1350   51.4480 C.3   335  LEU335      0.0001
    190  CD2       28.8210   -6.0340   50.5400 C.3   335  LEU335      0.0001
    191  N         30.7890  -10.6530   48.9170 N.am  336  PRO336     -0.2729
    192  CA        31.6000  -11.8560   48.6890 C.3   336  PRO336      0.1401
    193  C         32.3200  -11.8520   47.3430 C.2   336  PRO336      0.2269
    194  O         33.2440  -12.6400   47.1380 O.2   336  PRO336     -0.2865
    195  CB        30.5710  -12.9910   48.7410 C.3   336  PRO336      0.0296
    196  CG        29.4330  -12.4390   49.5250 C.3   336  PRO336      0.0237
    197  CD        29.3780  -10.9840   49.1780 C.3   336  PRO336      0.0939
    198  N         36.1680  -11.2740   47.2820 N.3   339  GLU339     -0.1245
    199  CA        37.0200  -12.3950   47.6620 C.3   339  GLU339      0.1567
    200  C         37.1420  -13.4010   46.5250 C.2   339  GLU339      0.2260
    201  O         38.2380  -13.8640   46.2080 O.2   339  GLU339     -0.2867
    202  CB        36.4740  -13.0800   48.9190 C.3   339  GLU339      0.0388
    203  CG        37.3260  -14.2390   49.4280 C.3   339  GLU339      0.1160
    204  CD        37.0310  -15.5490   48.7190 C.2   339  GLU339      0.3649
    205  OE1       35.8970  -15.7190   48.2240 O.co2 339  GLU339     -0.2457
    206  OE2       37.9370  -16.4060   48.6540 O.co2 339  GLU339     -0.2457
    207  N         42.5160  -12.3700   54.5400 N.3   756  MET756     -0.1245
    208  CA        41.2650  -12.8480   55.1170 C.3   756  MET756      0.1570
    209  C         41.4430  -14.2360   55.7160 C.2   756  MET756      0.2261
    210  O         41.0410  -14.4900   56.8510 O.2   756  MET756     -0.2867
    211  CB        40.1540  -12.8730   54.0680 C.3   756  MET756      0.0387
    212  CG        38.7780  -13.1680   54.6430 C.3   756  MET756      0.0595
    213  SD        37.5680  -13.5900   53.3770 S.3   756  MET756     -0.1393
    214  CE        37.7680  -12.2150   52.2480 C.3   756  MET756      0.0692
@<TRIPOS>BOND
     1   201   200    2
     2    75    74    1
     3    75    78    1
     4    75    76    1
     5   200   199    1
     6    78    79    1
     7    78    80    1
     8    76    77    2
     9   194   193    2
    10   198   199    1
    11   193   192    1
    12   199   202    1
    13   205   204   ar
    14   183   184    1
    15   206   204   ar
    16   192   195    1
    17   192   191    1
    18   204   203    1
    19   195   196    1
    20   186   185    2
    21    81    82    1
    22   191   185   am
    23   191   197    1
    24   202   203    1
    25   185   184    1
    26   197   196    1
    27   184   187    1
    28    96    95    2
    29    82    85    1
    30    82    83    1
    31    95    97   am
    32    95    94    1
    33    85    86    1
    34   190   188    1
    35    89    83   am
    36    89    90    1
    37   187   188    1
    38    93    94    1
    39    93    90    1
    40    83    84    2
    41   178   177    2
    42   188   189    1
    43    90    91    1
    44    91    92    2
    45   182   180    1
    46    86    88    1
    47    86    87    1
    48   180   179    1
    49   180   181    1
    50   214   213    1
    51   179   176    1
    52   177   176    1
    53    63    62    2
    54   176   175    1
    55    62    61    1
    56   213   212    1
    57   211   212    1
    58   211   208    1
    59    98    99    1
    60   207   208    1
    61    61    64    1
    62    61    60    1
    63    59    58    2
    64    73    72   ar
    65    73    71   ar
    66    72    70   ar
    67    71    69   ar
    68    70    67   ar
    69    69    67   ar
    70    69    68   ar
    71    67    65   ar
    72    68    66   ar
    73   208   209    1
    74    65    66   ar
    75    65    64    1
    76   103   104    1
    77   103   102    1
    78   103   105    1
    79   167   165    1
    80   102    99    1
    81    99   100    1
    82   163   162    2
    83   209   210    2
    84   171   170    2
    85    58    57    1
    86   100   101    2
    87    52    51    2
    88     9     7   am
    89    57    56    1
    90   169   170    1
    91   169   168    1
    92   169   172    1
    93   162   168   am
    94   162   161    1
    95   174   172    1
    96   165   164    1
    97   164   161    1
    98   164   166    1
    99   106   107    1
   100   173   172    1
   101    51    56   am
   102    51    50    1
   103   161   160    1
   104     7     8    2
   105     7     6    1
   106    54    53    1
   107     1     2    1
   108   107   110    1
   109   107   108    1
   110   110   111    1
   111     6     5    1
   112    50    53    1
   113    50    49    1
   114     2     5    1
   115     2     3    1
   116    53    55    1
   117   117   108   am
   118   117   118    1
   119   156   155    2
   120   108   109    2
   121   111   112   ar
   122   111   113   ar
   123   112   114   ar
   124     3     4    2
   125   118   119    1
   126   152   150    1
   127   151   150    1
   128   154   155    1
   129   154   157    1
   130   154   153    1
   131   119   120    2
   132   113   115   ar
   133   150   149    1
   134   148   147    2
   135   157   158    1
   136    44    43    2
   137   114   116   ar
   138   153   147   am
   139   153   159    1
   140   147   146    1
   141   158   159    1
   142   115   116   ar
   143    43    42    1
   144   149   146    1
   145   146   145    1
   146    23    22    1
   147    42    45    1
   148    42    41    1
   149    10    11    1
   150    22    24    1
   151    22    19    1
   152    14    11    1
   153    14    15    1
   154    45    46    1
   155    47    46    2
   156    16    15    1
   157    46    48   am
   158    18    19    1
   159    18    12   am
   160    11    12    1
   161    15    17    1
   162    19    20    1
   163    12    13    2
   164   132   131    2
   165   134   133    1
   166   134   135    1
   167   133   130    1
   168    36    35    2
   169    20    21    2
   170   135   129    1
   171   139   138    2
   172   131   130    1
   173   131   136   am
   174   130   129    1
   175   138   137    1
   176    35    34    1
   177   129   123   am
   178   137   136    1
   179   137   140    1
   180   127   125    1
   181    34    37    1
   182    34    33    1
   183    40    38    1
   184   123   122    1
   185   123   124    2
   186   122   125    1
   187   122   121    1
   188   126   125    1
   189   126   128    1
   190    37    38    1
   191   140   141    1
   192    31    30    1
   193    38    39    1
   194    29    30    1
   195    29    26    1
   196    25    26    1
   197   141   142    1
   198    30    32    1
   199    26    27    1
   200   144   142   ar
   201   142   143   ar
   202    27    28    2
