@<TRIPOS>MOLECULE
tmp/4ycrA00.pdb
 183 175 0 0 0
SMALL
GASTEIGER

@<TRIPOS>ATOM
      1  N        -37.7940   54.7730   17.2220 N.3     3  PRO3       -0.2102
      2  CA       -38.1620   56.1900   17.3120 C.3     3  PRO3        0.1504
      3  C        -38.6610   56.6830   15.9600 C.2     3  PRO3        0.2576
      4  O        -37.9910   56.4790   14.9420 O.2     3  PRO3       -0.2718
      5  CB       -36.8510   56.8810   17.7080 C.3     3  PRO3        0.0282
      6  CG       -35.9700   55.7800   18.2320 C.3     3  PRO3        0.0208
      7  CD       -36.3560   54.5620   17.4460 C.3     3  PRO3        0.0893
      8  N        -39.8340   57.3070   15.9600 N.am    4  THR4       -0.1939
      9  CA       -40.5250   57.6920   14.7400 C.3     4  THR4        0.2028
     10  C        -39.6960   58.6540   13.8820 C.2     4  THR4        0.2643
     11  O        -39.6630   58.5430   12.6410 O.2     4  THR4       -0.2714
     12  CB       -41.8720   58.3100   15.0980 C.3     4  THR4        0.1808
     13  OG1      -42.5720   57.3990   15.9490 O.3     4  THR4       -0.2208
     14  CG2      -42.7030   58.5780   13.8600 C.3     4  THR4        0.0379
     15  N        -38.9880   59.5580   14.5600 N.am    5  GLY5       -0.1939
     16  CA       -38.1260   60.5290   13.9090 C.3     5  GLY5        0.2014
     17  C        -37.0940   59.9200   12.9770 C.2     5  GLY5        0.2638
     18  O        -36.5700   60.5930   12.0890 O.2     5  GLY5       -0.2714
     19  N        -36.8140   58.6370   13.1560 N.am    6  TYR6       -0.1973
     20  CA       -35.8030   57.9760   12.3460 C.3     6  TYR6        0.1639
     21  C        -36.2330   57.9170   10.8910 C.2     6  TYR6        0.2290
     22  O        -35.3850   57.7960    9.9990 O.2     6  TYR6       -0.2864
     23  CB       -35.5100   56.5790   12.8940 C.3     6  TYR6        0.0560
     24  CG       -34.4620   56.6240   13.9810 C.ar    6  TYR6       -0.0198
     25  CD1      -34.6390   57.4180   15.1040 C.ar    6  TYR6       -0.0009
     26  CD2      -33.2930   55.8920   13.8790 C.ar    6  TYR6       -0.0009
     27  CE1      -33.6810   57.4790   16.0970 C.ar    6  TYR6        0.0417
     28  CE2      -32.3290   55.9410   14.8720 C.ar    6  TYR6        0.0417
     29  CZ       -32.5290   56.7360   15.9780 C.ar    6  TYR6        0.1957
     30  OH       -31.5690   56.7890   16.9640 O.3     6  TYR6       -0.2866
     31  N        -36.9260   60.2680    9.2350 N.3     8  GLY8       -0.1225
     32  CA       -36.2260   61.3850    8.6470 C.3     8  GLY8        0.1811
     33  C        -35.0370   60.9720    7.7950 C.2     8  GLY8        0.2280
     34  O        -34.6820   61.6920    6.8490 O.2     8  GLY8       -0.2866
     35  N        -36.2300   59.6960    4.3130 N.3    11  LEU11      -0.1245
     36  CA       -36.7850   60.9270    3.7410 C.3    11  LEU11       0.1561
     37  C        -35.6880   61.7370    3.0290 C.2    11  LEU11       0.2260
     38  O        -35.7220   61.9230    1.7960 O.2    11  LEU11      -0.2867
     39  CB       -37.4540   61.7680    4.8340 C.3    11  LEU11       0.0270
     40  CG       -38.3110   62.9500    4.3760 C.3    11  LEU11       0.0019
     41  CD1      -39.4800   63.1830    5.3140 C.3    11  LEU11       0.0001
     42  CD2      -37.4550   64.1660    4.3220 C.3    11  LEU11       0.0001
     43  N        -47.4420   58.9830   21.6800 N.3    66  GLU66      -0.1245
     44  CA       -46.8620   59.9890   20.7880 C.3    66  GLU66       0.1567
     45  C        -47.9830   60.6010   19.9220 C.2    66  GLU66       0.2260
     46  O        -47.9680   61.7920   19.6300 O.2    66  GLU66      -0.2867
     47  CB       -45.7110   59.4210   19.9280 C.3    66  GLU66       0.0388
     48  CG       -46.0430   58.2980   18.9650 C.3    66  GLU66       0.1160
     49  CD       -44.8380   57.8830   18.0990 C.2    66  GLU66       0.3649
     50  OE1      -43.7810   58.5550   18.1530 O.co2  66  GLU66      -0.2457
     51  OE2      -44.9580   56.8870   17.3460 O.co2  66  GLU66      -0.2457
     52  N        -47.1470   67.6800   20.7690 N.3    71  VAL71      -0.1231
     53  CA       -45.8470   67.9210   20.1510 C.3    71  VAL71       0.1692
     54  C        -45.3660   66.7480   19.2780 C.2    71  VAL71       0.2591
     55  O        -45.0550   66.9360   18.1000 O.2    71  VAL71      -0.2718
     56  CB       -44.7740   68.2270   21.2040 C.3    71  VAL71       0.0266
     57  CG1      -43.3890   68.2280   20.5630 C.3    71  VAL71       0.0020
     58  CG2      -45.0470   69.5660   21.8380 C.3    71  VAL71       0.0020
     59  N        -45.3310   65.5410   19.8400 N.am   72  ARG72      -0.1980
     60  CA       -44.7110   64.4020   19.1560 C.3    72  ARG72       0.1597
     61  C        -45.5270   63.8060   17.9920 C.2    72  ARG72       0.2287
     62  O        -44.9540   63.1680   17.0840 O.2    72  ARG72      -0.2864
     63  CB       -44.3910   63.3190   20.1880 C.3    72  ARG72       0.0334
     64  CG       -43.4780   63.8350   21.2880 C.3    72  ARG72       0.0492
     65  CD       -42.7780   62.7170   21.9980 C.3    72  ARG72       0.2205
     66  NE       -43.6830   62.0190   22.8910 N.pl3  72  ARG72      -0.0865
     67  CZ       -43.7360   60.6950   22.9960 C.cat  72  ARG72       0.5346
     68  NH1      -42.9340   59.9370   22.2550 N.pl3  72  ARG72       0.1354
     69  NH2      -44.5920   60.1310   23.8340 N.pl3  72  ARG72       0.1354
     70  N        -44.4530   63.8110   14.2240 N.3    75  PHE75      -0.1241
     71  CA       -43.4460   62.9840   13.5540 C.3    75  PHE75       0.1605
     72  C        -44.0760   61.7800   12.8480 C.2    75  PHE75       0.2264
     73  O        -43.4950   61.2310   11.9200 O.2    75  PHE75      -0.2867
     74  CB       -42.3670   62.5470   14.5370 C.3    75  PHE75       0.0534
     75  CG       -41.5900   63.6960   15.0930 C.ar   75  PHE75      -0.0203
     76  CD1      -40.6660   64.3590   14.3040 C.ar   75  PHE75      -0.0042
     77  CD2      -41.8150   64.1500   16.3860 C.ar   75  PHE75      -0.0042
     78  CE1      -39.9600   65.4420   14.8000 C.ar   75  PHE75      -0.0003
     79  CE2      -41.1080   65.2390   16.8880 C.ar   75  PHE75      -0.0003
     80  CZ       -40.1820   65.8780   16.0950 C.ar   75  PHE75      -0.0000
     81  N        -44.1670   61.7480    9.1360 N.3    78  LEU78      -0.1245
     82  CA       -42.9980   61.2910    8.3780 C.3    78  LEU78       0.1561
     83  C        -43.2740   59.9710    7.6520 C.2    78  LEU78       0.2260
     84  O        -42.6460   59.6650    6.6390 O.2    78  LEU78      -0.2867
     85  CB       -41.7810   61.1190    9.3000 C.3    78  LEU78       0.0270
     86  CG       -41.0680   62.3500    9.8710 C.3    78  LEU78       0.0019
     87  CD1      -39.9360   61.9270   10.8100 C.3    78  LEU78       0.0001
     88  CD2      -40.5120   63.2340    8.7700 C.3    78  LEU78       0.0001
     89  N        -44.5490   69.4540    9.6750 N.3   137  LEU137     -0.1245
     90  CA       -44.6080   68.1510    8.9970 C.3   137  LEU137      0.1561
     91  C        -46.0360   67.7110    8.6010 C.2   137  LEU137      0.2260
     92  O        -46.2710   67.4230    7.4280 O.2   137  LEU137     -0.2867
     93  CB       -43.9350   67.0690    9.8540 C.3   137  LEU137      0.0270
     94  CG       -42.4360   67.2790   10.0510 C.3   137  LEU137      0.0019
     95  CD1      -41.8560   66.1840   10.9280 C.3   137  LEU137      0.0001
     96  CD2      -41.7400   67.3230    8.6860 C.3   137  LEU137      0.0001
     97  N        -32.6060   69.9380   23.7130 N.3   189  GLN189     -0.1231
     98  CA       -32.9010   68.6190   23.1820 C.3   189  GLN189      0.1698
     99  C        -33.8730   68.7080   22.0160 C.2   189  GLN189      0.2592
    100  O        -34.1220   67.7160   21.3380 O.2   189  GLN189     -0.2718
    101  CB       -33.4620   67.6990   24.2740 C.3   189  GLN189      0.0381
    102  CG       -34.7720   68.1440   24.8840 C.3   189  GLN189      0.0905
    103  CD       -34.5800   69.1140   26.0320 C.2   189  GLN189      0.2608
    104  OE1      -33.5350   69.7580   26.1510 O.2   189  GLN189     -0.2717
    105  NE2      -35.5930   69.2250   26.8890 N.am  189  GLN189     -0.0878
    106  N        -34.4250   69.8990   21.7940 N.am  190  PHE190     -0.1976
    107  CA       -35.3240   70.1380   20.6670 C.3   190  PHE190      0.1639
    108  C        -34.6280   70.9460   19.5770 C.2   190  PHE190      0.2290
    109  O        -35.1470   71.1070   18.4660 O.2   190  PHE190     -0.2864
    110  CB       -36.5860   70.8660   21.1330 C.3   190  PHE190      0.0560
    111  CG       -37.4370   70.0610   22.0690 C.ar  190  PHE190     -0.0200
    112  CD1      -37.7530   68.7480   21.7770 C.ar  190  PHE190     -0.0042
    113  CD2      -37.9100   70.6170   23.2480 C.ar  190  PHE190     -0.0042
    114  CE1      -38.5310   68.0030   22.6430 C.ar  190  PHE190     -0.0003
    115  CE2      -38.6890   69.8790   24.1160 C.ar  190  PHE190     -0.0003
    116  CZ       -38.9990   68.5700   23.8110 C.ar  190  PHE190     -0.0000
    117  N        -32.2810   70.7020   17.4550 N.3   192  ALA192     -0.1231
    118  CA       -31.9900   70.1650   16.1290 C.3   192  ALA192      0.1694
    119  C        -33.1860   70.3220   15.1850 C.2   192  ALA192      0.2592
    120  O        -33.0130   70.4660   13.9640 O.2   192  ALA192     -0.2718
    121  CB       -31.5830   68.7000   16.2250 C.3   192  ALA192      0.0304
    122  N        -34.3950   70.3090   15.7480 N.am  193  THR193     -0.1953
    123  CA       -35.5870   70.4370   14.9160 C.3   193  THR193      0.1897
    124  C        -35.6830   71.8300   14.2770 C.2   193  THR193      0.2313
    125  O        -36.4890   72.0240   13.3620 O.2   193  THR193     -0.2863
    126  CB       -36.8760   70.1490   15.7090 C.3   193  THR193      0.1794
    127  OG1      -37.1030   71.1890   16.6700 O.3   193  THR193     -0.2208
    128  CG2      -36.7660   68.8040   16.4170 C.3   193  THR193      0.0378
    129  N        -35.8940   71.9840   10.5100 N.3   196  ILE196     -0.1245
    130  CA       -37.1480   71.9130    9.7810 C.3   196  ILE196      0.1561
    131  C        -37.5860   73.3030    9.3100 C.2   196  ILE196      0.2260
    132  O        -38.2570   73.4320    8.2740 O.2   196  ILE196     -0.2867
    133  CB       -38.2560   71.2580   10.6470 C.3   196  ILE196      0.0252
    134  CG1      -37.7700   69.9100   11.1990 C.3   196  ILE196      0.0019
    135  CG2      -39.5490   71.0710    9.8500 C.3   196  ILE196      0.0019
    136  CD1      -38.8080   69.1790   12.0920 C.3   196  ILE196      0.0001
    137  N        -37.0070   73.9630    5.7020 N.3   199  ALA199     -0.1245
    138  CA       -37.7170   73.2350    4.6400 C.3   199  ALA199      0.1562
    139  C        -38.8170   73.9830    3.8330 C.2   199  ALA199      0.2260
    140  O        -38.8090   73.8900    2.6140 O.2   199  ALA199     -0.2867
    141  CB       -38.3120   71.9780    5.2180 C.3   199  ALA199      0.0290
    142  N        -28.1900   62.8110   16.0030 N.3   248  ILE248     -0.1231
    143  CA       -28.8650   62.2620   14.8410 C.3   248  ILE248      0.1692
    144  C        -30.0240   63.1790   14.4200 C.2   248  ILE248      0.2592
    145  O        -30.4650   63.1720   13.2580 O.2   248  ILE248     -0.2718
    146  CB       -29.3700   60.8200   15.1350 C.3   248  ILE248      0.0266
    147  CG1      -29.4160   59.9950   13.8540 C.3   248  ILE248      0.0019
    148  CG2      -30.7170   60.8360   15.8460 C.3   248  ILE248      0.0020
    149  CD1      -28.0870   59.9480   13.1340 C.3   248  ILE248      0.0001
    150  N        -30.4850   63.9900   15.3700 N.am  249  GLY249     -0.1957
    151  CA       -31.5450   64.9490   15.1350 C.3   249  GLY249      0.1869
    152  C        -31.2280   65.9180   14.0080 C.2   249  GLY249      0.2309
    153  O        -32.1340   66.4580   13.3740 O.2   249  GLY249     -0.2863
    154  N        -30.5970   65.2970   11.2420 N.3   251  TRP251     -0.1227
    155  CA       -31.2380   64.8460   10.0120 C.3   251  TRP251      0.1737
    156  C        -32.4390   65.7320    9.6340 C.2   251  TRP251      0.2595
    157  O        -32.8570   65.7310    8.4850 O.2   251  TRP251     -0.2718
    158  CB       -31.6500   63.3720   10.1120 C.3   251  TRP251      0.0564
    159  CG       -30.5500   62.4550    9.6220 C.ar  251  TRP251      0.0003
    160  CD1      -29.6050   61.8180   10.3860 C.ar  251  TRP251      0.0946
    161  CD2      -30.2560   62.1110    8.2540 C.ar  251  TRP251      0.0152
    162  NE1      -28.7570   61.0920    9.5800 N.ar  251  TRP251     -0.2442
    163  CE2      -29.1280   61.2570    8.2700 C.ar  251  TRP251      0.0810
    164  CE3      -30.8400   62.4330    7.0230 C.ar  251  TRP251      0.0012
    165  CZ2      -28.5780   60.7210    7.1040 C.ar  251  TRP251      0.0191
    166  CZ3      -30.2870   61.9020    5.8560 C.ar  251  TRP251      0.0001
    167  CH2      -29.1680   61.0510    5.9080 C.ar  251  TRP251      0.0015
    168  N        -32.9610   66.5140   10.5830 N.am  252  ALA252     -0.1980
    169  CA       -33.9800   67.5220   10.2590 C.3   252  ALA252      0.1597
    170  C        -33.5620   68.3530    9.0310 C.2   252  ALA252      0.2287
    171  O        -34.2990   68.4310    7.9920 O.2   252  ALA252     -0.2864
    172  CB       -34.2290   68.4190   11.4580 C.3   252  ALA252      0.0319
    173  N        -34.2070   67.5490    5.0760 N.3   255  PHE255     -0.1241
    174  CA       -35.3270   67.6810    4.1340 C.3   255  PHE255      0.1605
    175  C        -35.1340   69.0000    3.3440 C.2   255  PHE255      0.2264
    176  O        -35.1210   69.0060    2.0830 O.2   255  PHE255     -0.2867
    177  CB       -36.6880   67.6080    4.8460 C.3   255  PHE255      0.0534
    178  CG       -37.8610   67.4060    3.9100 C.ar  255  PHE255     -0.0203
    179  CD1      -37.6600   66.9710    2.6020 C.ar  255  PHE255     -0.0042
    180  CD2      -39.1610   67.5780    4.3550 C.ar  255  PHE255     -0.0042
    181  CE1      -38.7310   66.7640    1.7460 C.ar  255  PHE255     -0.0003
    182  CE2      -40.2450   67.3630    3.5010 C.ar  255  PHE255     -0.0003
    183  CZ       -40.0320   66.9580    2.2030 C.ar  255  PHE255     -0.0000
@<TRIPOS>BOND
     1   181   183   ar
     2   181   179   ar
     3    38    37    2
     4   176   175    2
     5   183   182   ar
     6   179   178   ar
     7   140   139    2
     8    37    36    1
     9   175   174    1
    10   182   180   ar
    11    36    35    1
    12    36    39    1
    13   139   138    1
    14   178   180   ar
    15   178   177    1
    16   174   177    1
    17   174   173    1
    18    42    40    1
    19    40    39    1
    20    40    41    1
    21   138   141    1
    22   138   137    1
    23   166   167   ar
    24   166   164   ar
    25   167   165   ar
    26    84    83    2
    27    34    33    2
    28   164   161   ar
    29   165   163   ar
    30    92    91    2
    31    83    82    1
    32    33    32    1
    33   171   170    2
    34   161   163   ar
    35   161   159   ar
    36   163   162   ar
    37   132   131    2
    38    82    81    1
    39    82    85    1
    40   157   156    2
    41    91    90    1
    42    32    31    1
    43    96    94    1
    44    88    86    1
    45    90    89    1
    46    90    93    1
    47   170   169    1
    48    85    86    1
    49   131   130    1
    50   162   160   ar
    51   159   158    1
    52   159   160   ar
    53   156   155    1
    54   156   168   am
    55   130   129    1
    56   130   133    1
    57   135   133    1
    58    93    94    1
    59    86    87    1
    60    22    21    2
    61   155   158    1
    62   155   154    1
    63    94    95    1
    64   169   168    1
    65   169   172    1
    66   133   134    1
    67    21    20    1
    68   134   136    1
    69    73    72    2
    70    18    17    2
    71    20    23    1
    72    20    19    1
    73    11    10    2
    74    72    71    1
    75    23    24    1
    76    17    19   am
    77    17    16    1
    78   149   147    1
    79   145   144    2
    80   125   124    2
    81   153   152    2
    82    71    70    1
    83    71    74    1
    84   147   146    1
    85    14    12    1
    86    26    24   ar
    87    26    28   ar
    88    10    15   am
    89    10     9    1
    90    16    15    1
    91   120   119    2
    92    24    25   ar
    93   152   151    1
    94   124   123    1
    95    76    78   ar
    96    76    75   ar
    97   144   143    1
    98   144   150   am
    99    74    75    1
   100     9    12    1
   101     9     8    1
   102    78    80   ar
   103   143   146    1
   104   143   142    1
   105    28    29   ar
   106   123   126    1
   107   123   122    1
   108     4     3    2
   109    75    77   ar
   110    12    13    1
   111    25    27   ar
   112   146   148    1
   113   151   150    1
   114   119   122   am
   115   119   118    1
   116   126   128    1
   117   126   127    1
   118     3     8   am
   119     3     2    1
   120    29    27   ar
   121    29    30    1
   122    80    79   ar
   123   118   121    1
   124   118   117    1
   125    77    79   ar
   126    62    61    2
   127     1     2    1
   128     1     7    1
   129     2     5    1
   130    51    49   ar
   131     7     6    1
   132     5     6    1
   133    61    60    1
   134    49    50   ar
   135    49    48    1
   136    55    54    2
   137   109   108    2
   138    48    47    1
   139    60    59    1
   140    60    63    1
   141    54    59   am
   142    54    53    1
   143   108   107    1
   144    46    45    2
   145    45    44    1
   146    47    44    1
   147    53    52    1
   148    53    56    1
   149    63    64    1
   150    57    56    1
   151   107   110    1
   152   107   106    1
   153    44    43    1
   154   110   111    1
   155    56    58    1
   156    64    65    1
   157   100    99    2
   158   112   111   ar
   159   112   114   ar
   160   106    99   am
   161    65    66    1
   162    99    98    1
   163   111   113   ar
   164    68    67    1
   165   114   116   ar
   166    66    67    2
   167    67    69    1
   168    98    97    1
   169    98   101    1
   170   113   115   ar
   171   116   115   ar
   172   101   102    1
   173   102   103    1
   174   103   104    2
   175   103   105   am
