@<TRIPOS>MOLECULE
tmp/4ycuA00.pdb
 158 149 0 0 0
SMALL
GASTEIGER

@<TRIPOS>ATOM
      1  N          5.1250    1.7170   31.3950 N.3   250  GLN250     -0.1245
      2  CA         5.7430    0.4190   31.5620 C.3   250  GLN250      0.1566
      3  C          6.9020    0.5930   32.5070 C.2   250  GLN250      0.2260
      4  O          7.3670    1.7120   32.7240 O.2   250  GLN250     -0.2867
      5  CB         6.2600   -0.1330   30.2280 C.3   250  GLN250      0.0367
      6  CG         5.3560    0.0990   29.0340 C.3   250  GLN250      0.0905
      7  CD         4.0030   -0.5460   29.2040 C.2   250  GLN250      0.2608
      8  OE1        3.8850   -1.6120   29.8060 O.2   250  GLN250     -0.2717
      9  NE2        2.9690    0.0960   28.6750 N.am  250  GLN250     -0.0878
     10  N         10.6800   -0.9700   33.6670 N.3   252  ARG252     -0.1245
     11  CA        11.7560   -1.8870   33.3780 C.3   252  ARG252      0.1563
     12  C         12.8260   -1.5010   34.3760 C.2   252  ARG252      0.2260
     13  O         13.2320   -0.3410   34.4400 O.2   252  ARG252     -0.2867
     14  CB        12.1820   -1.7910   31.9090 C.3   252  ARG252      0.0307
     15  CG        11.1610   -2.4880   30.9960 C.3   252  ARG252      0.0489
     16  CD        11.3230   -2.2030   29.5090 C.3   252  ARG252      0.2205
     17  NE        10.1000   -2.5440   28.7790 N.pl3 252  ARG252     -0.0865
     18  CZ        10.0220   -2.7000   27.4600 C.cat 252  ARG252      0.5346
     19  NH1       11.1020   -2.5620   26.7050 N.pl3 252  ARG252      0.1354
     20  NH2        8.8590   -3.0040   26.8970 N.pl3 252  ARG252      0.1354
     21  N         16.0820   -1.3300   34.7510 N.3   254  GLU254     -0.1231
     22  CA        17.4130   -1.3480   34.1530 C.3   254  GLU254      0.1699
     23  C         18.1270   -0.0080   34.2880 C.2   254  GLU254      0.2592
     24  O         17.8270    0.7800   35.1850 O.2   254  GLU254     -0.2718
     25  CB        17.3300   -1.7500   32.6780 C.3   254  GLU254      0.0402
     26  CG        16.2600   -2.7870   32.3770 C.3   254  GLU254      0.1161
     27  CD        16.0550   -2.9980   30.8900 C.2   254  GLU254      0.3649
     28  OE1       16.2510   -4.1370   30.4170 O.co2 254  GLU254     -0.2457
     29  OE2       15.6990   -2.0240   30.1930 O.co2 254  GLU254     -0.2457
     30  N         19.0760    0.2410   33.3910 N.am  255  GLY255     -0.1957
     31  CA        19.8550    1.4740   33.4250 C.3   255  GLY255      0.1869
     32  C         19.1780    2.8030   33.1010 C.2   255  GLY255      0.2309
     33  O         18.1470    2.8410   32.5320 O.2   255  GLY255     -0.2863
     34  N         18.5280    7.9780   26.7530 N.3   259  THR259     -0.1203
     35  CA        17.3050    7.4690   26.1290 C.3   259  THR259      0.1994
     36  C         16.5590    6.4140   26.9440 C.2   259  THR259      0.2618
     37  O         15.6720    5.7370   26.4220 O.2   259  THR259     -0.2717
     38  CB        17.6160    6.8480   24.7510 C.3   259  THR259      0.1784
     39  OG1       18.7540    5.9840   24.8610 O.3   259  THR259     -0.2211
     40  CG2       17.9060    7.9310   23.7280 C.3   259  THR259      0.0376
     41  N         16.9220    6.2680   28.2130 N.am  260  HIS260     -0.1961
     42  CA        16.3150    5.2520   29.0720 C.3   260  HIS260      0.1787
     43  C         15.8820    5.7190   30.4540 C.2   260  HIS260      0.2620
     44  O         16.6830    6.2640   31.2120 O.2   260  HIS260     -0.2715
     45  CB        17.2570    4.0550   29.2550 C.3   260  HIS260      0.0785
     46  CG        17.5650    3.3170   27.9910 C.ar  260  HIS260      0.0821
     47  ND1       18.6940    3.5560   27.2390 N.ar  260  HIS260     -0.2267
     48  CD2       16.9020    2.3150   27.3650 C.ar  260  HIS260      0.1154
     49  CE1       18.7040    2.7470   26.1940 C.ar  260  HIS260      0.1986
     50  NE2       17.6280    1.9830   26.2480 N.ar  260  HIS260     -0.2212
     51  N         14.6120    5.5130   30.7820 N.am  261  ASN261     -0.1959
     52  CA        14.1610    5.7940   32.1330 C.3   261  ASN261      0.1804
     53  C         13.4040    4.5420   32.5620 C.2   261  ASN261      0.2463
     54  O         12.7430    3.9100   31.7420 O.2   261  ASN261     -0.2730
     55  CB        13.2880    7.0500   32.1920 C.3   261  ASN261      0.1195
     56  CG        13.1140    7.5760   33.6080 C.2   261  ASN261      0.2630
     57  OD1       14.0480    8.1210   34.1960 O.2   261  ASN261     -0.2716
     58  ND2       11.9150    7.4210   34.1570 N.am  261  ASN261     -0.0877
     59  N         13.4770    4.1930   33.8530 N.am  262  PRO262     -0.2727
     60  CA        12.8420    2.9780   34.3790 C.3   262  PRO262      0.1402
     61  C         11.3310    2.9600   34.2160 C.2   262  PRO262      0.2269
     62  O         10.7610    1.8760   34.0990 O.2   262  PRO262     -0.2865
     63  CB        13.2680    2.9900   35.8370 C.3   262  PRO262      0.0296
     64  CG        14.6540    3.5550   35.7340 C.3   262  PRO262      0.0237
     65  CD        14.4930    4.7010   34.7860 C.3   262  PRO262      0.0939
     66  N          8.4310    4.6350   31.6930 N.3   264  PHE264     -0.1241
     67  CA         8.3420    5.3690   30.4520 C.3   264  PHE264      0.1605
     68  C          6.9960    5.0470   29.8430 C.2   264  PHE264      0.2264
     69  O          6.3250    4.1140   30.2850 O.2   264  PHE264     -0.2867
     70  CB         9.5180    5.0370   29.5240 C.3   264  PHE264      0.0534
     71  CG         9.6200    3.5880   29.1420 C.ar  264  PHE264     -0.0203
     72  CD1       10.2770    2.6830   29.9590 C.ar  264  PHE264     -0.0042
     73  CD2        9.1240    3.1460   27.9290 C.ar  264  PHE264     -0.0042
     74  CE1       10.3890    1.3520   29.5950 C.ar  264  PHE264     -0.0003
     75  CE2        9.2400    1.8210   27.5580 C.ar  264  PHE264     -0.0003
     76  CZ         9.8700    0.9230   28.3920 C.ar  264  PHE264     -0.0000
     77  N          4.4960    4.0650   26.6710 N.3   266  THR266     -0.1218
     78  CA         4.3930    3.5110   25.3340 C.3   266  THR266      0.1862
     79  C          2.9640    3.4450   24.8440 C.2   266  THR266      0.2287
     80  O          2.0160    3.4780   25.6280 O.2   266  THR266     -0.2866
     81  CB         4.9670    2.0810   25.2630 C.3   266  THR266      0.1770
     82  OG1        4.1560    1.1990   26.0490 O.3   266  THR266     -0.2211
     83  CG2        6.3890    2.0440   25.7720 C.3   266  THR266      0.0375
     84  N          0.8810    0.6700   22.5810 N.3   268  GLU268     -0.1245
     85  CA         0.8410   -0.5690   21.8260 C.3   268  GLU268      0.1567
     86  C         -0.5420   -0.7120   21.2160 C.2   268  GLU268      0.2260
     87  O         -1.5360   -0.3730   21.8550 O.2   268  GLU268     -0.2867
     88  CB         1.1600   -1.7770   22.7150 C.3   268  GLU268      0.0388
     89  CG         2.5730   -1.8070   23.2840 C.3   268  GLU268      0.1160
     90  CD         3.0570   -3.2200   23.5720 C.2   268  GLU268      0.3649
     91  OE1        2.3030   -4.1780   23.2980 O.co2 268  GLU268     -0.2457
     92  OE2        4.1860   -3.3730   24.0830 O.co2 268  GLU268     -0.2457
     93  N         15.6380    3.4450   18.2960 N.3   423  GLU423     -0.1231
     94  CA        14.4150    2.7770   17.8370 C.3   423  GLU423      0.1699
     95  C         13.1390    3.3460   18.4740 C.2   423  GLU423      0.2592
     96  O         12.9410    3.2470   19.6850 O.2   423  GLU423     -0.2718
     97  CB        14.5010    1.2710   18.0950 C.3   423  GLU423      0.0402
     98  CG        14.2370    0.8720   19.5380 C.3   423  GLU423      0.1161
     99  CD        15.4640    1.0170   20.4160 C.2   423  GLU423      0.3649
    100  OE1       15.3980    0.6290   21.6020 O.co2 423  GLU423     -0.2457
    101  OE2       16.4960    1.5190   19.9210 O.co2 423  GLU423     -0.2457
    102  N         12.2810    3.9410   17.6440 N.am  424  ILE424     -0.1966
    103  CA        11.0230    4.5390   18.1060 C.3   424  ILE424      0.1727
    104  C          9.7830    3.6390   18.0140 C.2   424  ILE424      0.2616
    105  O          8.7420    3.9500   18.5930 O.2   424  ILE424     -0.2715
    106  CB        10.7290    5.8590   17.3650 C.3   424  ILE424      0.0290
    107  CG1       10.6530    5.6170   15.8560 C.3   424  ILE424      0.0022
    108  CG2       11.7880    6.9010   17.6900 C.3   424  ILE424      0.0023
    109  CD1       10.0780    6.7810   15.0790 C.3   424  ILE424      0.0001
    110  N          9.8990    2.5300   17.2920 N.am  425  CYS425     -0.1954
    111  CA         8.8110    1.5650   17.1520 C.3   425  CYS425      0.1843
    112  C          9.3290    0.1390   17.0060 C.2   425  CYS425      0.2625
    113  O         10.4010   -0.0940   16.4480 O.2   425  CYS425     -0.2714
    114  CB         7.9370    1.8950   15.9360 C.3   425  CYS425      0.0997
    115  SG         7.0500    3.4610   15.9970 S.3   425  CYS425     -0.0797
    116  N          8.5570   -0.8090   17.5280 N.am  426  ASN426     -0.1972
    117  CA         8.8220   -2.2290   17.3400 C.3   426  ASN426      0.1688
    118  C          7.5140   -2.9440   17.0230 C.2   426  ASN426      0.2292
    119  O          6.5250   -2.7800   17.7370 O.2   426  ASN426     -0.2864
    120  CB         9.4790   -2.8230   18.5910 C.3   426  ASN426      0.1181
    121  CG         9.7740   -4.3060   18.4570 C.2   426  ASN426      0.2629
    122  OD1       10.1320   -4.7880   17.3820 O.2   426  ASN426     -0.2716
    123  ND2        9.6330   -5.0370   19.5580 N.am  426  ASN426     -0.0877
    124  N          4.4130   -1.4070   18.8560 N.3   477  GLY477     -0.1225
    125  CA         4.6770   -0.5800   20.0210 C.3   477  GLY477      0.1811
    126  C          5.4680    0.6690   19.6900 C.2   477  GLY477      0.2280
    127  O          6.3320    0.6370   18.8190 O.2   477  GLY477     -0.2866
    128  N          7.6720    4.0400   21.5550 N.3   479  GLY479     -0.1225
    129  CA         8.1810    4.7360   22.7220 C.3   479  GLY479      0.1811
    130  C          7.7880    6.1990   22.6400 C.2   479  GLY479      0.2280
    131  O          8.3770    6.9660   21.8780 O.2   479  GLY479     -0.2866
    132  N          8.0350    8.7000   24.7840 N.3   481  ASP481     -0.1225
    133  CA         9.0290    9.6470   25.2770 C.3   481  ASP481      0.1805
    134  C         10.1030    9.9680   24.2420 C.2   481  ASP481      0.2597
    135  O         10.5070   11.1200   24.0900 O.2   481  ASP481     -0.2718
    136  CB         9.6870    9.0890   26.5390 C.3   481  ASP481      0.1424
    137  CG         8.6810    8.4860   27.4980 C.2   481  ASP481      0.3668
    138  OD1        8.0080    9.2460   28.2250 O.co2 481  ASP481     -0.2456
    139  OD2        8.5530    7.2440   27.5130 O.co2 481  ASP481     -0.2456
    140  N         10.5560    8.9410   23.5300 N.am  482  ARG482     -0.1979
    141  CA        11.5520    9.1070   22.4750 C.3   482  ARG482      0.1597
    142  C         11.0400    9.9250   21.2970 C.2   482  ARG482      0.2287
    143  O         11.7610   10.7650   20.7600 O.2   482  ARG482     -0.2864
    144  CB        12.0550    7.7450   22.0070 C.3   482  ARG482      0.0334
    145  CG        12.6400    6.9310   23.1460 C.3   482  ARG482      0.0492
    146  CD        13.3730    5.7090   22.6470 C.3   482  ARG482      0.2205
    147  NE        14.1850    5.1090   23.7000 N.pl3 482  ARG482     -0.0865
    148  CZ        14.9200    4.0160   23.5350 C.cat 482  ARG482      0.5346
    149  NH1       14.9400    3.4130   22.3570 N.pl3 482  ARG482      0.1354
    150  NH2       15.6330    3.5280   24.5400 N.pl3 482  ARG482      0.1354
    151  N         16.1950   12.1350   27.6880 N.3   493  ILE493     -0.1245
    152  CA        14.8130   11.7500   27.9640 C.3   493  ILE493      0.1561
    153  C         14.2230   12.5580   29.1270 C.2   493  ILE493      0.2260
    154  O         13.0080   12.7160   29.2270 O.2   493  ILE493     -0.2867
    155  CB        14.6990   10.2330   28.2560 C.3   493  ILE493      0.0252
    156  CG1       13.2540    9.7600   28.0750 C.3   493  ILE493      0.0019
    157  CG2       15.2020    9.8990   29.6550 C.3   493  ILE493      0.0019
    158  CD1       13.0870    8.2580   28.1640 C.3   493  ILE493      0.0001
@<TRIPOS>BOND
     1   109   107    1
     2   107   106    1
     3   114   115    1
     4   114   111    1
     5   113   112    2
     6   112   111    1
     7   112   116   am
     8   118   117    1
     9   118   119    2
    10   111   110    1
    11   110   104   am
    12   117   116    1
    13   117   120    1
    14   106   108    1
    15   106   103    1
    16   122   121    2
    17   102   103    1
    18   102    95   am
    19    94    97    1
    20    94    93    1
    21    94    95    1
    22   104   103    1
    23   104   105    2
    24    97    98    1
    25   121   120    1
    26   121   123   am
    27    95    96    2
    28   127   126    2
    29   124   125    1
    30    98    99    1
    31   126   125    1
    32   101    99   ar
    33    99   100   ar
    34   143   142    2
    35    86    85    1
    36    86    87    2
    37   142   141    1
    38   128   129    1
    39    85    84    1
    40    85    88    1
    41   131   130    2
    42   144   141    1
    43   144   145    1
    44   149   148    1
    45   141   140    1
    46   130   129    1
    47   146   145    1
    48   146   147    1
    49    88    89    1
    50    89    90    1
    51    91    90   ar
    52   140   134   am
    53   148   147    2
    54   148   150    1
    55    90    92   ar
    56    40    38    1
    57   135   134    2
    58   134   133    1
    59    38    39    1
    60    38    35    1
    61   132   133    1
    62    79    78    1
    63    79    80    2
    64    81    78    1
    65    81    83    1
    66    81    82    1
    67   133   136    1
    68    78    77    1
    69    35    34    1
    70    35    36    1
    71    49    50   ar
    72    49    47   ar
    73    50    48   ar
    74    37    36    2
    75   136   137    1
    76    19    18    1
    77    20    18    1
    78    36    41   am
    79    47    46   ar
    80    48    46   ar
    81    18    17    2
    82   137   139   ar
    83   137   138   ar
    84    75    73   ar
    85    75    76   ar
    86   151   152    1
    87    73    71   ar
    88   152   155    1
    89   152   153    1
    90    46    45    1
    91   156   158    1
    92   156   155    1
    93    41    42    1
    94   155   157    1
    95    76    74   ar
    96     9     7   am
    97    17    16    1
    98     6     7    1
    99     6     5    1
   100    42    45    1
   101    42    43    1
   102   153   154    2
   103    71    70    1
   104    71    72   ar
   105     7     8    2
   106    16    15    1
   107    70    67    1
   108    74    72   ar
   109    68    69    2
   110    68    67    1
   111    29    27   ar
   112     5     2    1
   113    28    27   ar
   114    67    66    1
   115    43    51   am
   116    43    44    2
   117    51    52    1
   118    27    26    1
   119    15    14    1
   120     1     2    1
   121     2     3    1
   122    54    53    2
   123    14    11    1
   124    52    55    1
   125    52    53    1
   126    55    56    1
   127    26    25    1
   128     3     4    2
   129    33    32    2
   130    53    59   am
   131    25    22    1
   132    32    31    1
   133    11    10    1
   134    11    12    1
   135    30    31    1
   136    30    23   am
   137    56    58   am
   138    56    57    2
   139    59    60    1
   140    59    65    1
   141    62    61    2
   142    22    23    1
   143    22    21    1
   144    61    60    1
   145    23    24    2
   146    12    13    2
   147    60    63    1
   148    65    64    1
   149    64    63    1
