@<TRIPOS>MOLECULE
tmp/4ycwB00.pdb
 123 116 0 0 0
SMALL
GASTEIGER

@<TRIPOS>ATOM
      1  N         -5.2370  -11.7400  -29.7940 N.3    27  LYS27      -0.1245
      2  CA        -6.5080  -11.5150  -29.1160 C.3    27  LYS27       0.1561
      3  C         -7.5110  -12.6450  -29.3100 C.2    27  LYS27       0.2260
      4  O         -7.8050  -13.0500  -30.4340 O.2    27  LYS27      -0.2867
      5  CB        -7.1280  -10.1980  -29.5950 C.3    27  LYS27       0.0271
      6  CG        -8.5570   -9.9670  -29.1240 C.3    27  LYS27       0.0035
      7  CD        -8.6220   -9.6880  -27.6310 C.3    27  LYS27       0.0206
      8  CE       -10.0490   -9.4090  -27.1850 C.3    27  LYS27       0.1093
      9  NZ       -10.1270   -9.0310  -25.7460 N.3    27  LYS27      -0.1314
     10  N        -11.4840  -13.4590  -27.9160 N.3    29  HIS29      -0.1226
     11  CA       -12.6040  -12.8310  -27.2280 C.3    29  HIS29       0.1752
     12  C        -13.3230  -13.8550  -26.3650 C.2    29  HIS29       0.2596
     13  O        -13.9460  -14.7840  -26.8750 O.2    29  HIS29      -0.2718
     14  CB       -13.5730  -12.2000  -28.2350 C.3    29  HIS29       0.0759
     15  CG       -14.6870  -11.4190  -27.6060 C.ar   29  HIS29       0.0818
     16  ND1      -15.5980  -11.9810  -26.7360 N.ar   29  HIS29      -0.2268
     17  CD2      -15.0400  -10.1180  -27.7270 C.ar   29  HIS29       0.1154
     18  CE1      -16.4600  -11.0590  -26.3460 C.ar   29  HIS29       0.1986
     19  NE2      -16.1440   -9.9190  -26.9340 N.ar   29  HIS29      -0.2212
     20  N        -13.2320  -13.6760  -25.0530 N.am   30  VAL30      -0.1966
     21  CA       -13.9330  -14.5410  -24.1170 C.3    30  VAL30       0.1727
     22  C        -15.3120  -13.9660  -23.8270 C.2    30  VAL30       0.2616
     23  O        -15.4360  -12.8360  -23.3570 O.2    30  VAL30      -0.2715
     24  CB       -13.1520  -14.7080  -22.8000 C.3    30  VAL30       0.0290
     25  CG1      -13.9870  -15.4610  -21.7780 C.3    30  VAL30       0.0023
     26  CG2      -11.8310  -15.4200  -23.0510 C.3    30  VAL30       0.0023
     27  N        -16.3480  -14.7430  -24.1230 N.am   31  ASP31      -0.1957
     28  CA       -17.7200  -14.3020  -23.9040 C.3    31  ASP31       0.1840
     29  C        -18.1190  -14.4180  -22.4400 C.2    31  ASP31       0.2622
     30  O        -18.8050  -13.5480  -21.9020 O.2    31  ASP31      -0.2715
     31  CB       -18.6900  -15.1120  -24.7670 C.3    31  ASP31       0.1450
     32  CG       -18.7090  -14.6540  -26.2100 C.2    31  ASP31       0.3671
     33  OD1      -18.4930  -13.4470  -26.4550 O.co2  31  ASP31      -0.2456
     34  OD2      -18.9430  -15.5000  -27.0990 O.co2  31  ASP31      -0.2456
     35  N        -17.6800  -15.4940  -21.7980 N.am   32  ILE32      -0.1963
     36  CA       -18.1320  -15.8060  -20.4510 C.3    32  ILE32       0.1727
     37  C        -17.0320  -16.4950  -19.6440 C.2    32  ILE32       0.2616
     38  O        -16.2330  -17.2590  -20.1890 O.2    32  ILE32      -0.2715
     39  CB       -19.4040  -16.6930  -20.4980 C.3    32  ILE32       0.0290
     40  CG1      -20.0020  -16.8830  -19.1040 C.3    32  ILE32       0.0022
     41  CG2      -19.1120  -18.0350  -21.1630 C.3    32  ILE32       0.0023
     42  CD1      -21.2740  -17.7050  -19.0980 C.3    32  ILE32       0.0001
     43  N        -16.9800  -16.2020  -18.3480 N.am   33  SER33      -0.1950
     44  CA       -16.0120  -16.8340  -17.4580 C.3    33  SER33       0.1924
     45  C        -16.3990  -18.2840  -17.1950 C.2    33  SER33       0.2314
     46  O        -17.5590  -18.6640  -17.3600 O.2    33  SER33      -0.2863
     47  CB       -15.9090  -16.0690  -16.1380 C.3    33  SER33       0.2116
     48  OG       -17.0870  -16.2230  -15.3650 O.3    33  SER33      -0.2180
     49  N        -16.5200  -19.7760  -14.3310 N.3    35  THR35      -0.1203
     50  CA       -17.4140  -19.7840  -13.1780 C.3    35  THR35       0.1994
     51  C        -18.8600  -19.5430  -13.6040 C.2    35  THR35       0.2617
     52  O        -19.7590  -20.3390  -13.2960 O.2    35  THR35      -0.2717
     53  CB       -17.0040  -18.7160  -12.1460 C.3    35  THR35       0.1784
     54  OG1      -15.6480  -18.9370  -11.7350 O.3    35  THR35      -0.2211
     55  CG2      -17.9150  -18.7670  -10.9290 C.3    35  THR35       0.0376
     56  N        -19.0700  -18.4420  -14.3210 N.am   36  ASP36      -0.1973
     57  CA       -20.3890  -18.0780  -14.8230 C.3    36  ASP36       0.1709
     58  C        -20.9660  -19.1660  -15.7210 C.2    36  ASP36       0.2293
     59  O        -22.1560  -19.4580  -15.6540 O.2    36  ASP36      -0.2864
     60  CB       -20.3270  -16.7510  -15.5820 C.3    36  ASP36       0.1436
     61  CG       -20.3900  -15.5480  -14.6620 C.2    36  ASP36       0.3671
     62  OD1      -20.2810  -15.7300  -13.4310 O.co2  36  ASP36      -0.2456
     63  OD2      -20.5480  -14.4180  -15.1710 O.co2  36  ASP36      -0.2456
     64  N         -9.6970  -19.8700  -12.8660 N.3    79  GLU79      -0.1245
     65  CA       -10.5100  -19.2130  -11.8400 C.3    79  GLU79       0.1567
     66  C        -10.7700  -20.1150  -10.6330 C.2    79  GLU79       0.2260
     67  O        -11.7510  -19.9290   -9.9130 O.2    79  GLU79      -0.2867
     68  CB       -11.8460  -18.7480  -12.4250 C.3    79  GLU79       0.0388
     69  CG       -11.7370  -18.0360  -13.7590 C.3    79  GLU79       0.1160
     70  CD       -13.0720  -17.9420  -14.4690 C.2    79  GLU79       0.3649
     71  OE1      -14.1160  -18.0420  -13.7900 O.co2  79  GLU79      -0.2457
     72  OE2      -13.0790  -17.7770  -15.7080 O.co2  79  GLU79      -0.2457
     73  N         -4.1950  -20.1420   -4.1030 N.3   167  ARG167     -0.1245
     74  CA        -5.0570  -19.0590   -4.5520 C.3   167  ARG167      0.1563
     75  C         -5.9640  -18.5930   -3.4250 C.2   167  ARG167      0.2260
     76  O         -6.0960  -17.3980   -3.1850 O.2   167  ARG167     -0.2867
     77  CB        -5.9000  -19.4980   -5.7520 C.3   167  ARG167      0.0307
     78  CG        -6.9270  -18.4630   -6.1870 C.3   167  ARG167      0.0489
     79  CD        -7.9140  -19.0360   -7.1900 C.3   167  ARG167      0.2205
     80  NE        -7.2740  -19.3920   -8.4520 N.pl3 167  ARG167     -0.0865
     81  CZ        -7.2190  -18.5920   -9.5110 C.cat 167  ARG167      0.5346
     82  NH1       -6.6160  -18.9970  -10.6200 N.pl3 167  ARG167      0.1354
     83  NH2       -7.7660  -17.3850   -9.4620 N.pl3 167  ARG167      0.1354
     84  N         -6.0980  -14.9760   -1.6260 N.3   171  ILE171     -0.1245
     85  CA        -7.4100  -14.3410   -1.6300 C.3   171  ILE171      0.1561
     86  C         -7.7710  -13.9150   -0.2130 C.2   171  ILE171      0.2260
     87  O         -8.2370  -12.7980    0.0070 O.2   171  ILE171     -0.2867
     88  CB        -8.5040  -15.2780   -2.1830 C.3   171  ILE171      0.0252
     89  CG1       -8.3950  -15.3930   -3.7030 C.3   171  ILE171      0.0019
     90  CG2       -9.8870  -14.7670   -1.8160 C.3   171  ILE171      0.0019
     91  CD1       -9.3610  -16.3890   -4.3030 C.3   171  ILE171      0.0001
     92  N         -5.6810  -10.8620    0.7660 N.3   174  SER174     -0.1202
     93  CA        -6.2720   -9.6790    0.1490 C.3   174  SER174      0.2020
     94  C         -7.5300   -9.2350    0.8910 C.2   174  SER174      0.2618
     95  O         -7.7420   -8.0410    1.1160 O.2   174  SER174     -0.2717
     96  CB        -6.5980   -9.9500   -1.3200 C.3   174  SER174      0.2103
     97  OG        -7.1920   -8.8170   -1.9280 O.3   174  SER174     -0.2182
     98  N         -8.3560  -10.2050    1.2720 N.am  175  LYS175     -0.1979
     99  CA        -9.5750   -9.9330    2.0230 C.3   175  LYS175      0.1596
    100  C         -9.2650   -9.2780    3.3630 C.2   175  LYS175      0.2287
    101  O         -9.9800   -8.3790    3.8000 O.2   175  LYS175     -0.2864
    102  CB       -10.3720  -11.2200    2.2440 C.3   175  LYS175      0.0298
    103  CG       -11.0890  -11.7350    1.0080 C.3   175  LYS175      0.0038
    104  CD       -11.9220  -12.9640    1.3350 C.3   175  LYS175      0.0206
    105  CE       -12.7380  -13.4170    0.1360 C.3   175  LYS175      0.1093
    106  NZ       -13.5970  -14.5900    0.4550 N.3   175  LYS175     -0.1314
    107  N         -8.0350   -5.5650    2.6250 N.3   178  THR178     -0.1218
    108  CA        -9.1870   -4.7750    2.2020 C.3   178  THR178      0.1862
    109  C        -10.1540   -4.5350    3.3610 C.2   178  THR178      0.2287
    110  O        -10.7420   -3.4570    3.4760 O.2   178  THR178     -0.2866
    111  CB        -9.9390   -5.4550    1.0380 C.3   178  THR178      0.1770
    112  OG1       -9.0500   -5.6260   -0.0730 O.3   178  THR178     -0.2211
    113  CG2      -11.1240   -4.6100    0.5960 C.3   178  THR178      0.0375
    114  N        -16.0540  -12.1710    9.6300 N.3   290  HIS290     -0.1241
    115  CA       -16.4570  -11.8160    8.2750 C.3   290  HIS290      0.1621
    116  C        -15.8270  -12.7470    7.2460 C.2   290  HIS290      0.2264
    117  O        -16.4980  -13.2150    6.3260 O.2   290  HIS290     -0.2867
    118  CB       -16.0810  -10.3630    7.9710 C.3   290  HIS290      0.0745
    119  CG       -16.4280   -9.9240    6.5820 C.ar  290  HIS290      0.0817
    120  ND1      -15.5710  -10.0860    5.5150 N.ar  290  HIS290     -0.2268
    121  CD2      -17.5360   -9.3250    6.0870 C.ar  290  HIS290      0.1154
    122  CE1      -16.1380   -9.6070    4.4220 C.ar  290  HIS290      0.1986
    123  NE2      -17.3310   -9.1390    4.7420 N.ar  290  HIS290     -0.2212
@<TRIPOS>BOND
     1     4     3    2
     2     1     2    1
     3     5     6    1
     4     5     2    1
     5     3     2    1
     6     6     7    1
     7    14    15    1
     8    14    11    1
     9    10    11    1
    10    17    15   ar
    11    17    19   ar
    12     7     8    1
    13    15    16   ar
    14    11    12    1
    15     8     9    1
    16    34    32   ar
    17    19    18   ar
    18    13    12    2
    19    16    18   ar
    20    33    32   ar
    21    12    20   am
    22    32    31    1
    23    20    21    1
    24    31    28    1
    25    27    28    1
    26    27    22   am
    27    21    22    1
    28    21    24    1
    29    28    29    1
    30    22    23    2
    31    26    24    1
    32    24    25    1
    33    29    30    2
    34    29    35   am
    35    35    36    1
    36    41    39    1
    37    39    36    1
    38    39    40    1
    39    36    37    1
    40    38    37    2
    41    37    43   am
    42    40    42    1
    43    43    44    1
    44    44    45    1
    45    44    47    1
    46    46    45    2
    47    47    48    1
    48    58    59    2
    49    58    57    1
    50    72    70   ar
    51    60    57    1
    52    60    61    1
    53    63    61   ar
    54    57    56    1
    55    61    62   ar
    56    70    71   ar
    57    70    69    1
    58    49    50    1
    59    56    51   am
    60    69    68    1
    61    51    52    2
    62    51    50    1
    63    50    53    1
    64    64    65    1
    65    68    65    1
    66    53    54    1
    67    53    55    1
    68    65    66    1
    69    66    67    2
    70    82    81    1
    71    81    83    1
    72    81    80    2
    73    80    79    1
    74    79    78    1
    75    78    77    1
    76    77    74    1
    77    74    73    1
    78    74    75    1
    79    91    89    1
    80    89    88    1
    81    75    76    2
    82    88    90    1
    83    88    85    1
    84    97    96    1
    85    85    84    1
    86    85    86    1
    87    96    93    1
    88    86    87    2
    89   112   111    1
    90   105   106    1
    91   105   104    1
    92    93    92    1
    93    93    94    1
    94   113   111    1
    95    94    95    2
    96    94    98   am
    97   103   104    1
    98   103   102    1
    99   111   108    1
   100    98    99    1
   101    99   102    1
   102    99   100    1
   103   108   107    1
   104   108   109    1
   105   109   110    2
   106   100   101    2
   107   122   123   ar
   108   122   120   ar
   109   123   121   ar
   110   120   119   ar
   111   121   119   ar
   112   117   116    2
   113   119   118    1
   114   116   115    1
   115   118   115    1
   116   115   114    1
