@<TRIPOS>MOLECULE
tmp/4ycyA00.pdb
 88 79 0 0 0
SMALL
GASTEIGER

@<TRIPOS>ATOM
      1  N          5.5410   -2.1220    9.7840 N.3    35  ASP35      -0.1239
      2  CA         5.1750   -0.7470    9.5060 C.3    35  ASP35       0.1674
      3  C          6.3920    0.1690    9.5190 C.2    35  ASP35       0.2266
      4  O          6.8500    0.5710   10.5860 O.2    35  ASP35      -0.2867
      5  CB         4.1440   -0.2810   10.5390 C.3    35  ASP35       0.1410
      6  CG         3.6610    1.1390   10.3120 C.2    35  ASP35       0.3668
      7  OD1        3.9820    1.7560    9.2730 O.co2  35  ASP35      -0.2456
      8  OD2        2.9040    1.6300   11.1830 O.co2  35  ASP35      -0.2456
      9  N          6.4560    3.1500    8.9650 N.3    37  GLY37      -0.1210
     10  CA         6.0030    4.4790    9.3430 C.3    37  GLY37       0.1956
     11  C          5.7310    4.6440   10.8330 C.2    37  GLY37       0.2612
     12  O          5.2100    5.6710   11.2510 O.2    37  GLY37      -0.2717
     13  N          6.0750    3.6380   11.6340 N.am   38  SER38      -0.1952
     14  CA         5.9750    3.7610   13.0920 C.3    38  SER38       0.1924
     15  C          7.0570    2.9280   13.7530 C.2    38  SER38       0.2314
     16  O          7.8090    2.2330   13.0760 O.2    38  SER38      -0.2863
     17  CB         4.5830    3.3580   13.5890 C.3    38  SER38       0.2116
     18  OG         4.3270    1.9790   13.3800 O.3    38  SER38      -0.2180
     19  N         -0.5070    5.2560   21.8010 N.3    77  ILE77      -0.1245
     20  CA        -0.5130    5.6500   20.4000 C.3    77  ILE77       0.1561
     21  C         -1.8820    6.1880   20.0240 C.2    77  ILE77       0.2260
     22  O         -2.8970    5.5920   20.3790 O.2    77  ILE77      -0.2867
     23  CB        -0.1560    4.4630   19.4790 C.3    77  ILE77       0.0252
     24  CG1        1.2600    3.9650   19.7830 C.3    77  ILE77       0.0019
     25  CG2       -0.3020    4.8590   18.0180 C.3    77  ILE77       0.0019
     26  CD1        1.6910    2.7600   18.9690 C.3    77  ILE77       0.0001
     27  N          1.3350   -4.6190   15.5500 N.3   118  LEU118     -0.1245
     28  CA         2.2100   -3.9020   14.6420 C.3   118  LEU118      0.1561
     29  C          3.6610   -4.1530   14.9910 C.2   118  LEU118      0.2260
     30  O          4.0050   -4.2900   16.1660 O.2   118  LEU118     -0.2867
     31  CB         1.9340   -2.3920   14.6940 C.3   118  LEU118      0.0270
     32  CG         0.9830   -1.8260   13.6340 C.3   118  LEU118      0.0019
     33  CD1       -0.4510   -2.2650   13.8980 C.3   118  LEU118      0.0001
     34  CD2        1.0940   -0.3180   13.5740 C.3   118  LEU118      0.0001
     35  N         11.1790    9.3800   10.1960 N.3   187  PHE187     -0.1241
     36  CA        10.6800    8.5290    9.1110 C.3   187  PHE187      0.1605
     37  C         11.7810    8.1950    8.1170 C.2   187  PHE187      0.2264
     38  O         12.8410    8.8120    8.1330 O.2   187  PHE187     -0.2867
     39  CB         9.5310    9.2170    8.3640 C.3   187  PHE187      0.0534
     40  CG         8.3120    9.4690    9.2020 C.ar  187  PHE187     -0.0203
     41  CD1        7.8690   10.7640    9.4220 C.ar  187  PHE187     -0.0042
     42  CD2        7.5950    8.4160    9.7540 C.ar  187  PHE187     -0.0042
     43  CE1        6.7400   11.0060   10.1870 C.ar  187  PHE187     -0.0003
     44  CE2        6.4620    8.6530   10.5230 C.ar  187  PHE187     -0.0003
     45  CZ         6.0380    9.9540   10.7370 C.ar  187  PHE187     -0.0000
     46  N          7.6280    9.9620    2.5160 N.3   210  ILE210     -0.1245
     47  CA         8.1370    8.8640    3.3340 C.3   210  ILE210      0.1561
     48  C          7.8060    7.5230    2.7150 C.2   210  ILE210      0.2260
     49  O          6.7860    7.3610    2.0560 O.2   210  ILE210     -0.2867
     50  CB         7.5960    8.9270    4.7750 C.3   210  ILE210      0.0252
     51  CG1        6.0830    8.7110    4.8270 C.3   210  ILE210      0.0019
     52  CG2        7.9170   10.2810    5.4030 C.3   210  ILE210      0.0019
     53  CD1        5.5730    8.5050    6.2430 C.3   210  ILE210      0.0001
     54  N          6.4830    4.2010    3.4840 N.3   212  ASP212     -0.1239
     55  CA         5.6380    3.7840    4.6090 C.3   212  ASP212      0.1674
     56  C          4.8510    2.5170    4.2880 C.2   212  ASP212      0.2266
     57  O          3.7810    2.5620    3.6780 O.2   212  ASP212     -0.2867
     58  CB         4.6870    4.9340    4.9920 C.3   212  ASP212      0.1410
     59  CG         3.7890    4.6050    6.1700 C.2   212  ASP212      0.3668
     60  OD1        2.9100    5.4320    6.4860 O.co2 212  ASP212     -0.2456
     61  OD2        3.9370    3.5230    6.7740 O.co2 212  ASP212     -0.2456
     62  N          3.1650    0.8020    6.1890 N.3   214  GLY214     -0.1210
     63  CA         1.9530    0.7990    6.9940 C.3   214  GLY214      0.1956
     64  C          0.8030    1.6330    6.4470 C.2   214  GLY214      0.2612
     65  O         -0.2540    1.7380    7.0710 O.2   214  GLY214     -0.2717
     66  N          1.0120    2.2270    5.2780 N.am  215  THR215     -0.1952
     67  CA        -0.0170    3.0250    4.6120 C.3   215  THR215      0.1897
     68  C         -0.3720    2.3050    3.3190 C.2   215  THR215      0.2313
     69  O          0.5120    1.8150    2.6090 O.2   215  THR215     -0.2863
     70  CB         0.4640    4.4600    4.3310 C.3   215  THR215      0.1794
     71  OG1        0.5340    5.1920    5.5640 O.3   215  THR215     -0.2208
     72  CG2       -0.4830    5.1950    3.3550 C.3   215  THR215      0.0378
     73  N         -2.9020   15.9780    4.9940 N.3   293  ILE293     -0.1245
     74  CA        -2.0690   15.0400    5.7560 C.3   293  ILE293      0.1561
     75  C         -0.8490   15.7410    6.3210 C.2   293  ILE293      0.2260
     76  O         -0.4430   15.4940    7.4590 O.2   293  ILE293     -0.2867
     77  CB        -1.5660   13.8570    4.8970 C.3   293  ILE293      0.0252
     78  CG1       -2.6940   12.9060    4.5390 C.3   293  ILE293      0.0019
     79  CG2       -0.4800   13.0830    5.6320 C.3   293  ILE293      0.0019
     80  CD1       -2.1810   11.6640    3.8320 C.3   293  ILE293      0.0001
     81  N          3.1240   10.4960    1.1150 N.3   297  ILE297     -0.1245
     82  CA         3.3490    9.1340    1.5980 C.3   297  ILE297      0.1561
     83  C          3.4300    8.1390    0.4510 C.2   297  ILE297      0.2260
     84  O          2.4400    7.9220   -0.2510 O.2   297  ILE297     -0.2867
     85  CB         2.2400    8.6860    2.5620 C.3   297  ILE297      0.0252
     86  CG1        2.1290    9.6650    3.7340 C.3   297  ILE297      0.0019
     87  CG2        2.5360    7.2900    3.1060 C.3   297  ILE297      0.0019
     88  CD1        0.9850    9.3390    4.6880 C.3   297  ILE297      0.0001
@<TRIPOS>BOND
     1    84    83    2
     2    83    82    1
     3    81    82    1
     4    82    85    1
     5    49    48    2
     6    46    47    1
     7    85    87    1
     8    85    86    1
     9    69    68    2
    10    48    47    1
    11    68    67    1
    12    47    50    1
    13    72    70    1
    14    54    55    1
    15    57    56    2
    16    86    88    1
    17    80    78    1
    18    56    55    1
    19    70    67    1
    20    70    71    1
    21    78    77    1
    22    55    58    1
    23    67    66    1
    24    50    51    1
    25    50    52    1
    26    51    53    1
    27    77    79    1
    28    77    74    1
    29    58    59    1
    30    73    74    1
    31    66    64   am
    32    74    75    1
    33    59    60   ar
    34    59    61   ar
    35    62    63    1
    36    75    76    2
    37    64    63    1
    38    64    65    2
    39    37    38    2
    40    37    36    1
    41    39    36    1
    42    39    40    1
    43     9    10    1
    44    36    35    1
    45    40    41   ar
    46    40    42   ar
    47     7     6   ar
    48    10    11    1
    49    41    43   ar
    50     2     3    1
    51     2     1    1
    52     2     5    1
    53     3     4    2
    54    42    44   ar
    55    43    45   ar
    56     6     5    1
    57     6     8   ar
    58    44    45   ar
    59    11    12    2
    60    11    13   am
    61    13    14    1
    62    16    15    2
    63    14    17    1
    64    14    15    1
    65    18    17    1
    66    34    32    1
    67    32    33    1
    68    32    31    1
    69    28    31    1
    70    28    29    1
    71    28    27    1
    72    29    30    2
    73    25    23    1
    74    26    24    1
    75    23    24    1
    76    23    20    1
    77    21    22    2
    78    21    20    1
    79    20    19    1
