@<TRIPOS>MOLECULE
tmp/4yd0A00.pdb
 147 140 0 0 0
SMALL
GASTEIGER

@<TRIPOS>ATOM
      1  N        -56.3170    1.0870    0.9060 N.3     1  SER1       -0.1217
      2  CA       -55.9140    0.4000    2.1370 C.3     1  SER1        0.1889
      3  C        -55.0820    1.2840    3.0920 C.2     1  SER1        0.2288
      4  O        -54.1040    1.9080    2.6680 O.2     1  SER1       -0.2866
      5  CB       -55.2020   -0.9240    1.8370 C.3     1  SER1        0.2089
      6  OG       -54.0760   -0.7920    0.9820 O.3     1  SER1       -0.2183
      7  N        -53.1820    0.6330    6.5670 N.3     3  PHE3       -0.1227
      8  CA       -52.5750   -0.3340    7.5060 C.3     3  PHE3        0.1736
      9  C        -51.3390    0.1850    8.2950 C.2     3  PHE3        0.2596
     10  O        -50.8140    1.2610    8.0040 O.2     3  PHE3       -0.2718
     11  CB       -52.2180   -1.6340    6.7570 C.3     3  PHE3        0.0547
     12  CG       -51.2940   -1.4440    5.5740 C.ar    3  PHE3       -0.0202
     13  CD1      -49.9210   -1.6280    5.7080 C.ar    3  PHE3       -0.0042
     14  CD2      -51.7940   -1.0510    4.3310 C.ar    3  PHE3       -0.0042
     15  CE1      -49.0700   -1.4460    4.6240 C.ar    3  PHE3       -0.0003
     16  CE2      -50.9380   -0.8670    3.2420 C.ar    3  PHE3       -0.0003
     17  CZ       -49.5850   -1.0780    3.3920 C.ar    3  PHE3       -0.0000
     18  N        -50.8840   -0.6070    9.2910 N.am    4  SER4       -0.1938
     19  CA       -49.7540   -0.3150   10.1760 C.3     4  SER4        0.2055
     20  C        -48.5620   -1.2850    9.9350 C.2     4  SER4        0.2643
     21  O        -48.7810   -2.4820    9.7800 O.2     4  SER4       -0.2714
     22  CB       -50.2090   -0.3910   11.6280 C.3     4  SER4        0.2130
     23  OG       -49.1590   -0.0840   12.5300 O.3     4  SER4       -0.2179
     24  N        -47.3120   -0.7520    9.9030 N.am    5  PHE5       -0.1973
     25  CA       -46.0670   -1.5030    9.6990 C.3     5  PHE5        0.1639
     26  C        -44.8980   -0.6870   10.2080 C.2     5  PHE5        0.2290
     27  O        -44.7870    0.4900    9.8660 O.2     5  PHE5       -0.2864
     28  CB       -45.8610   -1.8750    8.2130 C.3     5  PHE5        0.0560
     29  CG       -44.6580   -2.7530    7.9280 C.ar    5  PHE5       -0.0200
     30  CD1      -44.5050   -3.9840    8.5650 C.ar    5  PHE5       -0.0042
     31  CD2      -43.6800   -2.3480    7.0270 C.ar    5  PHE5       -0.0042
     32  CE1      -43.3760   -4.7690    8.3400 C.ar    5  PHE5       -0.0003
     33  CE2      -42.5630   -3.1500    6.7760 C.ar    5  PHE5       -0.0003
     34  CZ       -42.4250   -4.3590    7.4280 C.ar    5  PHE5       -0.0000
     35  N        -52.5780    4.2640    0.9330 N.3    12  ARG12      -0.1245
     36  CA       -52.3810    4.2430   -0.5140 C.3    12  ARG12       0.1563
     37  C        -53.1020    5.4010   -1.1790 C.2    12  ARG12       0.2260
     38  O        -54.3070    5.6000   -0.9760 O.2    12  ARG12      -0.2867
     39  CB       -52.7840    2.8980   -1.1210 C.3    12  ARG12       0.0307
     40  CG       -52.3140    2.7150   -2.5620 C.3    12  ARG12       0.0489
     41  CD       -52.6240    1.3400   -3.1040 C.3    12  ARG12       0.2205
     42  NE       -54.0380    1.0020   -2.9530 N.pl3  12  ARG12      -0.0865
     43  CZ       -54.5510   -0.2030   -3.1680 C.cat  12  ARG12       0.5346
     44  NH1      -53.7720   -1.2060   -3.5470 N.pl3  12  ARG12       0.1354
     45  NH2      -55.8480   -0.4160   -3.0020 N.pl3  12  ARG12       0.1354
     46  N        -52.7860   -3.4540   -6.2870 N.3    17  SER17      -0.1217
     47  CA       -51.9330   -4.6300   -6.1450 C.3    17  SER17       0.1889
     48  C        -52.7000   -5.8950   -5.8660 C.2    17  SER17       0.2288
     49  O        -53.6960   -5.8920   -5.1320 O.2    17  SER17      -0.2866
     50  CB       -50.8620   -4.4370   -5.0740 C.3    17  SER17       0.2089
     51  OG       -51.2980   -4.6790   -3.7420 O.3    17  SER17      -0.2183
     52  N        -45.3710  -12.7280    1.0540 N.3    35  ARG35      -0.1245
     53  CA       -46.5970  -12.3280    0.3650 C.3    35  ARG35       0.1563
     54  C        -46.2960  -11.0730   -0.4650 C.2    35  ARG35       0.2260
     55  O        -46.3770   -9.9430    0.0220 O.2    35  ARG35      -0.2867
     56  CB       -47.7490  -12.1300    1.3750 C.3    35  ARG35       0.0307
     57  CG       -49.0990  -11.8010    0.7490 C.3    35  ARG35       0.0489
     58  CD       -50.2450  -12.0620    1.7090 C.3    35  ARG35       0.2205
     59  NE       -50.7610  -13.4280    1.5900 N.pl3  35  ARG35      -0.0865
     60  CZ       -51.9130  -13.8430    2.1070 C.cat  35  ARG35       0.5346
     61  NH1      -52.6850  -13.0040    2.7870 N.pl3  35  ARG35       0.1354
     62  NH2      -52.3080  -15.0980    1.9380 N.pl3  35  ARG35       0.1354
     63  N        -46.7840   -8.1840   -3.1540 N.3    37  HIS37      -0.1241
     64  CA       -47.8350   -7.3450   -3.7330 C.3    37  HIS37       0.1621
     65  C        -47.3470   -6.8610   -5.1000 C.2    37  HIS37       0.2264
     66  O        -46.2190   -6.3820   -5.2330 O.2    37  HIS37      -0.2867
     67  CB       -48.2480   -6.1920   -2.8090 C.3    37  HIS37       0.0745
     68  CG       -48.7710   -6.6580   -1.4850 C.ar   37  HIS37       0.0817
     69  ND1      -50.1260   -6.6610   -1.2040 N.ar   37  HIS37      -0.2268
     70  CD2      -48.1020   -7.1500   -0.4140 C.ar   37  HIS37       0.1154
     71  CE1      -50.2330   -7.1060    0.0410 C.ar   37  HIS37       0.1986
     72  NE2      -49.0420   -7.4250    0.5530 N.ar   37  HIS37      -0.2212
     73  N        -47.6840    1.2150   -6.8370 N.3    41  GLU41      -0.1245
     74  CA       -48.4530    1.8050   -5.7370 C.3    41  GLU41       0.1567
     75  C        -47.7490    3.0020   -5.1470 C.2    41  GLU41       0.2260
     76  O        -46.5220    3.0220   -5.0450 O.2    41  GLU41      -0.2867
     77  CB       -48.7090    0.7780   -4.6260 C.3    41  GLU41       0.0388
     78  CG       -49.7980   -0.2190   -4.9510 C.3    41  GLU41       0.1160
     79  CD       -49.9190   -1.3710   -3.9770 C.2    41  GLU41       0.3649
     80  OE1      -48.9240   -2.1070   -3.7930 O.co2  41  GLU41      -0.2457
     81  OE2      -51.0420   -1.6000   -3.4750 O.co2  41  GLU41      -0.2457
     82  N        -47.8020    5.4780   -1.6900 N.3    43  PHE43      -0.1241
     83  CA       -48.2480    5.5260   -0.2930 C.3    43  PHE43       0.1605
     84  C        -47.7500    6.7360    0.4690 C.2    43  PHE43       0.2264
     85  O        -46.6220    7.1970    0.2320 O.2    43  PHE43      -0.2867
     86  CB       -47.6860    4.3060    0.4930 C.3    43  PHE43       0.0534
     87  CG       -48.1960    2.9380    0.1260 C.ar   43  PHE43      -0.0203
     88  CD1      -49.3440    2.4240    0.7190 C.ar   43  PHE43      -0.0042
     89  CD2      -47.5190    2.1530   -0.7930 C.ar   43  PHE43      -0.0042
     90  CE1      -49.8310    1.1580    0.3670 C.ar   43  PHE43      -0.0003
     91  CE2      -48.0000    0.8820   -1.1360 C.ar   43  PHE43      -0.0003
     92  CZ       -49.1470    0.3900   -0.5460 C.ar   43  PHE43      -0.0000
     93  N        -43.6200    2.8370   -5.2870 N.3    56  LYS56      -0.1245
     94  CA       -43.0430    1.5090   -5.4720 C.3    56  LYS56       0.1561
     95  C        -43.7200    0.6500   -6.5380 C.2    56  LYS56       0.2260
     96  O        -44.9410    0.6750   -6.6670 O.2    56  LYS56      -0.2867
     97  CB       -42.9830    0.7500   -4.1330 C.3    56  LYS56       0.0271
     98  CG       -44.3320    0.2920   -3.5540 C.3    56  LYS56       0.0035
     99  CD       -44.1210   -0.7670   -2.4920 C.3    56  LYS56       0.0206
    100  CE       -43.6330   -2.0950   -3.0300 C.3    56  LYS56       0.1093
    101  NZ       -44.7040   -3.0990   -2.9470 N.3    56  LYS56      -0.1314
    102  N        -40.4400   -2.9170    3.3970 N.3    84  PHE84      -0.1241
    103  CA       -41.7600   -2.9250    2.7560 C.3    84  PHE84       0.1605
    104  C        -41.6960   -3.0590    1.2300 C.2    84  PHE84       0.2264
    105  O        -42.6050   -3.6520    0.6470 O.2    84  PHE84      -0.2867
    106  CB       -42.5230   -1.6590    3.1450 C.3    84  PHE84       0.0534
    107  CG       -43.9130   -1.5390    2.5810 C.ar   84  PHE84      -0.0203
    108  CD1      -44.9950   -2.1100    3.2330 C.ar   84  PHE84      -0.0042
    109  CD2      -44.1570   -0.7660    1.4490 C.ar   84  PHE84      -0.0042
    110  CE1      -46.2900   -1.9320    2.7500 C.ar   84  PHE84      -0.0003
    111  CE2      -45.4560   -0.5990    0.9600 C.ar   84  PHE84      -0.0003
    112  CZ       -46.5130   -1.1880    1.6080 C.ar   84  PHE84      -0.0000
    113  N        -39.8730   -4.9190   -0.4630 N.3    86  GLN86      -0.1245
    114  CA       -39.6560   -6.3450   -0.7240 C.3    86  GLN86       0.1566
    115  C        -38.5280   -6.5800   -1.7450 C.2    86  GLN86       0.2260
    116  O        -38.3820   -7.7010   -2.2600 O.2    86  GLN86      -0.2867
    117  CB       -40.9630   -7.0450   -1.1780 C.3    86  GLN86       0.0367
    118  CG       -42.0170   -7.2150   -0.1100 C.3    86  GLN86       0.0905
    119  CD       -43.3610   -7.6610   -0.6720 C.2    86  GLN86       0.2608
    120  OE1      -43.8480   -7.1810   -1.7160 O.2    86  GLN86      -0.2717
    121  NE2      -44.0460   -8.5200    0.0720 N.am   86  GLN86      -0.0878
    122  N        -43.9450  -12.5530   11.4090 N.3   109  ASN109     -0.1240
    123  CA       -44.0910  -12.9780   10.0060 C.3   109  ASN109      0.1653
    124  C        -42.7690  -12.6750    9.2790 C.2   109  ASN109      0.2266
    125  O        -41.9690  -11.9360    9.8590 O.2   109  ASN109     -0.2867
    126  CB       -45.3350  -12.3240    9.3410 C.3   109  ASN109      0.1155
    127  CG       -45.1320  -11.0990    8.4560 C.2   109  ASN109      0.2627
    128  OD1      -44.5680  -10.0750    8.8610 O.2   109  ASN109     -0.2716
    129  ND2      -45.6910  -11.1460    7.2520 N.am  109  ASN109     -0.0877
    130  N        -41.8210  -10.6390    6.9210 N.3   111  MET111     -0.1230
    131  CA       -41.7090   -9.1800    6.7950 C.3   111  MET111      0.1702
    132  C        -41.3920   -8.5290    8.1460 C.2   111  MET111      0.2592
    133  O        -40.6100   -7.5770    8.2070 O.2   111  MET111     -0.2718
    134  CB       -42.9850   -8.5830    6.1890 C.3   111  MET111      0.0401
    135  CG       -43.2250   -8.9990    4.7490 C.3   111  MET111      0.0596
    136  SD       -41.9230   -8.5160    3.6020 S.3   111  MET111     -0.1393
    137  CE       -42.1060   -6.7730    3.6400 C.3   111  MET111      0.0692
    138  N        -41.9760   -9.0520    9.2260 N.am  112  HIS112     -0.1976
    139  CA       -41.6840   -8.5300   10.5590 C.3   112  HIS112      0.1656
    140  C        -40.2980   -8.9860   11.0680 C.2   112  HIS112      0.2291
    141  O        -39.6330   -8.2400   11.7850 O.2   112  HIS112     -0.2864
    142  CB       -42.8100   -8.8590   11.5320 C.3   112  HIS112      0.0771
    143  CG       -43.9430   -7.8860   11.4700 C.ar  112  HIS112      0.0820
    144  ND1      -45.1560   -8.2220   10.8780 N.ar  112  HIS112     -0.2267
    145  CD2      -44.0220   -6.6190   11.9370 C.ar  112  HIS112      0.1154
    146  CE1      -45.9300   -7.1570   11.0130 C.ar  112  HIS112      0.1986
    147  NE2      -45.2960   -6.1700   11.6520 N.ar  112  HIS112     -0.2212
@<TRIPOS>BOND
     1    73    74    1
     2    96    95    2
     3    95    94    1
     4    46    47    1
     5    47    48    1
     6    47    50    1
     7    48    49    2
     8    74    75    1
     9    74    77    1
    10    94    93    1
    11    94    97    1
    12    66    65    2
    13    75    76    2
    14    65    64    1
    15    50    51    1
    16    78    77    1
    17    78    79    1
    18    97    98    1
    19    79    80   ar
    20    79    81   ar
    21    64    63    1
    22    64    67    1
    23    98    99    1
    24    44    43    1
    25    43    45    1
    26    43    42    2
    27    41    42    1
    28    41    40    1
    29   100   101    1
    30   100    99    1
    31    67    68    1
    32    40    39    1
    33   116   115    2
    34   115   114    1
    35   120   119    2
    36    82    83    1
    37    68    69   ar
    38    68    70   ar
    39    69    71   ar
    40    37    38    2
    41    37    36    1
    42   117   114    1
    43   117   118    1
    44    91    89   ar
    45    91    92   ar
    46    39    36    1
    47    89    87   ar
    48   114   113    1
    49   119   118    1
    50   119   121   am
    51    92    90   ar
    52    36    35    1
    53    54    55    2
    54    54    53    1
    55    70    72   ar
    56    83    84    1
    57    83    86    1
    58    71    72   ar
    59    87    86    1
    60    87    88   ar
    61    85    84    2
    62    53    52    1
    63    53    56    1
    64    90    88   ar
    65   105   104    2
    66    57    56    1
    67    57    58    1
    68     1     2    1
    69   111   109   ar
    70   111   112   ar
    71     6     5    1
    72   104   103    1
    73   109   107   ar
    74    59    58    1
    75    59    60    2
    76   112   110   ar
    77     5     2    1
    78    62    60    1
    79    60    61    1
    80     2     3    1
    81   107   106    1
    82   107   108   ar
    83     4     3    2
    84   110   108   ar
    85   103   106    1
    86   103   102    1
    87    16    17   ar
    88    16    14   ar
    89    17    15   ar
    90   136   137    1
    91   136   135    1
    92    14    12   ar
    93    15    13   ar
    94   135   134    1
    95    12    13   ar
    96    12    11    1
    97   134   131    1
    98     7     8    1
    99    11     8    1
   100    33    31   ar
   101    33    34   ar
   102   131   130    1
   103   131   132    1
   104    31    29   ar
   105   129   127   am
   106    34    32   ar
   107     8     9    1
   108    29    28    1
   109    29    30   ar
   110    10     9    2
   111   132   133    2
   112   132   138   am
   113    28    25    1
   114     9    18   am
   115    32    30   ar
   116   127   128    2
   117   127   126    1
   118   138   139    1
   119   124   125    2
   120   124   123    1
   121    18    19    1
   122   126   123    1
   123    25    24    1
   124    25    26    1
   125    21    20    2
   126    27    26    2
   127    24    20   am
   128    20    19    1
   129   123   122    1
   130    19    22    1
   131   139   140    1
   132   139   142    1
   133   144   146   ar
   134   144   143   ar
   135   146   147   ar
   136   140   141    2
   137   143   142    1
   138   143   145   ar
   139    22    23    1
   140   147   145   ar
