@<TRIPOS>MOLECULE
tmp/4yd1A00.pdb
 117 118 0 0 0
SMALL
GASTEIGER

@<TRIPOS>ATOM
      1  N          6.0030  -11.0490  -25.7230 N.3    37  GLY37      -0.1210
      2  CA         5.6470  -12.4530  -25.6140 C.3    37  GLY37       0.1956
      3  C          6.6670  -13.1880  -24.7690 C.2    37  GLY37       0.2611
      4  O          6.3250  -13.9560  -23.8760 O.2    37  GLY37      -0.2717
      5  N          7.9380  -12.9680  -25.0720 N.am   38  ARG38      -0.1979
      6  CA         9.0070  -13.6060  -24.3150 C.3    38  ARG38       0.1597
      7  C          8.9910  -13.1750  -22.8460 C.2    38  ARG38       0.2287
      8  O          9.2280  -13.9880  -21.9530 O.2    38  ARG38      -0.2864
      9  CB        10.3620  -13.2790  -24.9510 C.3    38  ARG38       0.0334
     10  CG        10.5620  -13.9960  -26.2660 C.3    38  ARG38       0.0492
     11  CD        11.8190  -13.5620  -27.0060 C.3    38  ARG38       0.2205
     12  NE        12.0770  -14.4820  -28.1200 N.pl3  38  ARG38      -0.0865
     13  CZ        11.3600  -14.5580  -29.2460 C.cat  38  ARG38       0.5346
     14  NH1       10.3150  -13.7560  -29.4570 N.pl3  38  ARG38       0.1354
     15  NH2       11.6880  -15.4560  -30.1710 N.pl3  38  ARG38       0.1354
     16  N          6.4030  -12.3340  -21.1310 N.3    40  LEU40      -0.1231
     17  CA         5.2840  -13.0000  -20.4730 C.3    40  LEU40       0.1693
     18  C          5.6450  -14.4460  -20.1210 C.2    40  LEU40       0.2593
     19  O          5.3740  -14.9200  -19.0110 O.2    40  LEU40      -0.2718
     20  CB         4.0540  -12.9390  -21.3760 C.3    40  LEU40       0.0284
     21  CG         2.7420  -13.5110  -20.8900 C.3    40  LEU40       0.0019
     22  CD1        2.3420  -12.9310  -19.5370 C.3    40  LEU40       0.0001
     23  CD2        1.6940  -13.1840  -21.9770 C.3    40  LEU40       0.0001
     24  N          6.2820  -15.1460  -21.0510 N.am   41  THR41      -0.1939
     25  CA         6.6430  -16.5300  -20.7810 C.3    41  THR41       0.2028
     26  C          7.6410  -16.6280  -19.6320 C.2    41  THR41       0.2642
     27  O          7.4680  -17.4800  -18.7400 O.2    41  THR41      -0.2714
     28  CB         7.1930  -17.2240  -22.0390 C.3    41  THR41       0.1808
     29  OG1        6.0920  -17.5600  -22.8950 O.3    41  THR41      -0.2208
     30  CG2        7.9360  -18.5020  -21.6780 C.3    41  THR41       0.0379
     31  N          8.6610  -15.7620  -19.6180 N.am   42  PHE42      -0.1973
     32  CA         9.6430  -15.8300  -18.5350 C.3    42  PHE42       0.1639
     33  C          9.0170  -15.4600  -17.1960 C.2    42  PHE42       0.2290
     34  O          9.3460  -16.0670  -16.1760 O.2    42  PHE42      -0.2864
     35  CB        10.8510  -14.9360  -18.8320 C.3    42  PHE42       0.0560
     36  CG        11.7960  -15.5130  -19.8690 C.ar   42  PHE42      -0.0200
     37  CD1       12.2730  -16.8270  -19.7490 C.ar   42  PHE42      -0.0042
     38  CD2       12.2240  -14.7490  -20.9440 C.ar   42  PHE42      -0.0042
     39  CE1       13.1520  -17.3850  -20.6910 C.ar   42  PHE42      -0.0003
     40  CE2       13.1130  -15.2970  -21.8920 C.ar   42  PHE42      -0.0003
     41  CZ        13.5660  -16.6160  -21.7660 C.ar   42  PHE42      -0.0000
     42  N          5.8160  -16.0170  -16.3830 N.3    44  ARG44      -0.1245
     43  CA         5.0060  -17.1870  -16.0280 C.3    44  ARG44       0.1563
     44  C          5.8480  -18.3200  -15.4730 C.2    44  ARG44       0.2260
     45  O          5.4770  -18.9300  -14.4690 O.2    44  ARG44      -0.2867
     46  CB         4.2270  -17.6990  -17.2410 C.3    44  ARG44       0.0307
     47  CG         3.0920  -16.7800  -17.6860 C.3    44  ARG44       0.0489
     48  CD         2.5200  -17.2970  -18.9920 C.3    44  ARG44       0.2205
     49  NE         1.3570  -16.5280  -19.4760 N.pl3  44  ARG44      -0.0865
     50  CZ         0.9450  -16.5470  -20.7350 C.cat  44  ARG44       0.5346
     51  NH1        1.6130  -17.2590  -21.6510 N.pl3  44  ARG44       0.1354
     52  NH2       -0.1180  -15.8320  -21.1040 N.pl3  44  ARG44       0.1354
     53  N          5.8710  -29.3090  -15.7950 N.3    65  LEU65      -0.1231
     54  CA         5.5320  -27.9670  -15.3250 C.3    65  LEU65       0.1678
     55  C          5.1370  -27.0940  -16.5090 C.2    65  LEU65       0.2434
     56  O          5.8260  -27.0540  -17.5300 O.2    65  LEU65      -0.2733
     57  CB         6.6930  -27.3290  -14.5600 C.3    65  LEU65       0.0284
     58  CG         7.0860  -27.9800  -13.2270 C.3    65  LEU65       0.0019
     59  CD1        8.1670  -27.1650  -12.5170 C.3    65  LEU65       0.0001
     60  CD2        5.8770  -28.1790  -12.3360 C.3    65  LEU65       0.0001
     61  N          4.0260  -26.3750  -16.3770 N.am   66  PRO66      -0.2718
     62  CA         3.6530  -25.4780  -17.4770 C.3    66  PRO66       0.1535
     63  C          4.6610  -24.3380  -17.6350 C.2    66  PRO66       0.2599
     64  O          5.2610  -23.9320  -16.6480 O.2    66  PRO66      -0.2715
     65  CB         2.2720  -24.9550  -17.0460 C.3    66  PRO66       0.0310
     66  CG         2.3040  -25.0140  -15.5500 C.3    66  PRO66       0.0237
     67  CD         3.1180  -26.2580  -15.2220 C.3    66  PRO66       0.0939
     68  N          4.8390  -23.8670  -18.8700 N.am   67  HIS67      -0.1960
     69  CA         5.6710  -22.7060  -19.2140 C.3    67  HIS67       0.1787
     70  C          7.1650  -22.9780  -19.1180 C.2    67  HIS67       0.2620
     71  O          7.9830  -22.0670  -19.2830 O.2    67  HIS67      -0.2715
     72  CB         5.2410  -21.5040  -18.3640 C.3    67  HIS67       0.0785
     73  CG         3.7750  -21.2420  -18.4740 C.ar   67  HIS67       0.0821
     74  ND1        3.1780  -20.9310  -19.6770 N.ar   67  HIS67      -0.2267
     75  CD2        2.7740  -21.3320  -17.5670 C.ar   67  HIS67       0.1154
     76  CE1        1.8740  -20.8060  -19.4990 C.ar   67  HIS67       0.1986
     77  NE2        1.6020  -21.0590  -18.2310 N.ar   67  HIS67      -0.2212
     78  N          7.5360  -24.2430  -18.9170 N.am   68  PHE68      -0.1960
     79  CA         8.9480  -24.6030  -19.0050 C.3    68  PHE68       0.1771
     80  C          9.2550  -25.3630  -20.2730 C.2    68  PHE68       0.2620
     81  O          8.9930  -26.5520  -20.3710 O.2    68  PHE68      -0.2715
     82  CB         9.3910  -25.4010  -17.7720 C.3    68  PHE68       0.0574
     83  CG         9.8070  -24.5160  -16.6500 C.ar   68  PHE68      -0.0200
     84  CD1       11.1220  -24.0740  -16.5520 C.ar   68  PHE68      -0.0042
     85  CD2        8.8720  -24.0610  -15.7330 C.ar   68  PHE68      -0.0042
     86  CE1       11.4970  -23.1950  -15.5330 C.ar   68  PHE68      -0.0003
     87  CE2        9.2400  -23.1860  -14.7210 C.ar   68  PHE68      -0.0003
     88  CZ        10.5530  -22.7520  -14.6170 C.ar   68  PHE68      -0.0000
     89  N          9.8200  -24.6590  -21.2420 N.am   69  GLY69      -0.1940
     90  CA        10.2470  -25.2680  -22.4860 C.3    69  GLY69       0.2014
     91  C         11.7610  -25.3160  -22.5350 C.2    69  GLY69       0.2639
     92  O         12.4190  -25.3190  -21.4920 O.2    69  GLY69      -0.2714
     93  N         12.3180  -25.3280  -23.7400 N.am   70  GLU70      -0.1963
     94  CA        13.7550  -25.5340  -23.9020 C.3    70  GLU70       0.1733
     95  C         14.5440  -24.4320  -23.2200 C.2    70  GLU70       0.2616
     96  O         15.5280  -24.6910  -22.5200 O.2    70  GLU70      -0.2715
     97  CB        14.1210  -25.5920  -25.3870 C.3    70  GLU70       0.0429
     98  CG        15.5420  -26.0420  -25.6740 C.3    70  GLU70       0.1163
     99  CD        15.8710  -27.3840  -25.0340 C.2    70  GLU70       0.3649
    100  OE1       15.0390  -28.3290  -25.1130 O.co2  70  GLU70      -0.2457
    101  OE2       16.9620  -27.4960  -24.4470 O.co2  70  GLU70      -0.2457
    102  N         14.1020  -23.1950  -23.4140 N.am   71  HIS71      -0.1959
    103  CA        14.9000  -22.0630  -22.9820 C.3    71  HIS71       0.1787
    104  C         14.9110  -21.9230  -21.4680 C.2    71  HIS71       0.2620
    105  O         15.9790  -21.8150  -20.8620 O.2    71  HIS71      -0.2715
    106  CB        14.4010  -20.7640  -23.6310 C.3    71  HIS71       0.0785
    107  CG        15.4090  -19.6580  -23.5910 C.ar   71  HIS71       0.0821
    108  ND1       15.6460  -18.8200  -24.6600 N.ar   71  HIS71      -0.2267
    109  CD2       16.2560  -19.2630  -22.6100 C.ar   71  HIS71       0.1154
    110  CE1       16.5940  -17.9550  -24.3380 C.ar   71  HIS71       0.1986
    111  NE2       16.9790  -18.2010  -23.0980 N.ar   71  HIS71      -0.2212
    112  N         13.7240  -21.9050  -20.8590 N.am   72  SER72      -0.1950
    113  CA        13.6100  -21.7770  -19.4230 C.3    72  SER72       0.1924
    114  C         14.2500  -22.9450  -18.6880 C.2    72  SER72       0.2314
    115  O         14.8370  -22.7630  -17.6160 O.2    72  SER72      -0.2863
    116  CB        12.1450  -21.6560  -19.0210 C.3    72  SER72       0.2116
    117  OG        11.6120  -20.4320  -19.5120 O.3    72  SER72      -0.2180
@<TRIPOS>BOND
     1    15    13    1
     2    14    13    1
     3    13    12    2
     4    12    11    1
     5    11    10    1
     6    10     9    1
     7     1     2    1
     8    98    97    1
     9    98    99    1
    10     2     3    1
    11    97    94    1
    12   100    99   ar
    13     5     3   am
    14     5     6    1
    15    99   101   ar
    16     9     6    1
    17     3     4    2
    18   108   110   ar
    19   108   107   ar
    20   110   111   ar
    21     6     7    1
    22    94    93    1
    23    94    95    1
    24    93    91   am
    25   106   107    1
    26   106   103    1
    27   107   109   ar
    28   102    95   am
    29   102   103    1
    30    95    96    2
    31   111   109   ar
    32   103   104    1
    33    29    28    1
    34     7     8    2
    35    91    90    1
    36    91    92    2
    37    90    89    1
    38    28    30    1
    39    28    25    1
    40    23    21    1
    41    40    41   ar
    42    40    38   ar
    43    41    39   ar
    44    51    50    1
    45   104   105    2
    46   104   112   am
    47    20    21    1
    48    20    17    1
    49    89    80   am
    50    16    17    1
    51    52    50    1
    52    24    25    1
    53    24    18   am
    54    38    36   ar
    55    21    22    1
    56   112   113    1
    57    25    26    1
    58    50    49    2
    59    39    37   ar
    60    17    18    1
    61    81    80    2
    62    80    79    1
    63    18    19    2
    64    36    37   ar
    65    36    35    1
    66    74    76   ar
    67    74    73   ar
    68    26    31   am
    69    26    27    2
    70    31    32    1
    71   117   116    1
    72    76    77   ar
    73    49    48    1
    74   113   116    1
    75   113   114    1
    76    71    70    2
    77    69    70    1
    78    69    68    1
    79    69    72    1
    80    70    78   am
    81    79    78    1
    82    79    82    1
    83    48    47    1
    84    68    63   am
    85    35    32    1
    86   114   115    2
    87    32    33    1
    88    73    72    1
    89    73    75   ar
    90    77    75   ar
    91    82    83    1
    92    47    46    1
    93    63    62    1
    94    63    64    2
    95    56    55    2
    96    62    65    1
    97    62    61    1
    98    46    43    1
    99    33    34    2
   100    65    66    1
   101    83    84   ar
   102    83    85   ar
   103    84    86   ar
   104    55    61   am
   105    55    54    1
   106    42    43    1
   107    61    67    1
   108    43    44    1
   109    53    54    1
   110    85    87   ar
   111    66    67    1
   112    86    88   ar
   113    44    45    2
   114    54    57    1
   115    87    88   ar
   116    57    58    1
   117    58    59    1
   118    58    60    1
