@<TRIPOS>MOLECULE
tmp/4yd1A01.pdb
 152 147 0 0 0
SMALL
GASTEIGER

@<TRIPOS>ATOM
      1  N         -2.6280   -2.5010   -3.5830 N.3   182  GLY182     -0.1210
      2  CA        -1.3080   -2.7860   -4.1460 C.3   182  GLY182      0.1956
      3  C         -0.4790   -3.7870   -3.3410 C.2   182  GLY182      0.2612
      4  O         -1.0140   -4.6420   -2.6050 O.2   182  GLY182     -0.2717
      5  N          0.8370   -3.6920   -3.4840 N.am  183  GLY183     -0.1942
      6  CA         1.7130   -4.7380   -2.9740 C.3   183  GLY183      0.2014
      7  C          1.6710   -4.8850   -1.4560 C.2   183  GLY183      0.2638
      8  O          1.7960   -5.9890   -0.9410 O.2   183  GLY183     -0.2714
      9  N          1.4840   -3.7840   -0.7260 N.am  184  PHE184     -0.1973
     10  CA         1.4270   -3.9110    0.7280 C.3   184  PHE184      0.1639
     11  C          0.2070   -4.7100    1.1780 C.2   184  PHE184      0.2290
     12  O          0.2620   -5.3890    2.2080 O.2   184  PHE184     -0.2864
     13  CB         1.4780   -2.5150    1.3720 C.3   184  PHE184      0.0560
     14  CG         2.8490   -1.9000    1.2940 C.ar  184  PHE184     -0.0200
     15  CD1        3.8640   -2.3930    2.1010 C.ar  184  PHE184     -0.0042
     16  CD2        3.1470   -0.8830    0.3880 C.ar  184  PHE184     -0.0042
     17  CE1        5.1630   -1.8490    2.0230 C.ar  184  PHE184     -0.0003
     18  CE2        4.4230   -0.3310    0.2990 C.ar  184  PHE184     -0.0003
     19  CZ         5.4440   -0.8160    1.1170 C.ar  184  PHE184     -0.0000
     20  N         -0.7870   -7.2880   -0.2980 N.3   186  ARG186     -0.1245
     21  CA        -0.3740   -8.6740   -0.5220 C.3   186  ARG186      0.1563
     22  C          0.6770   -9.1200    0.4850 C.2   186  ARG186      0.2260
     23  O          1.1930  -10.2160    0.3770 O.2   186  ARG186     -0.2867
     24  CB         0.1930   -8.8730   -1.9430 C.3   186  ARG186      0.0307
     25  CG        -0.7720   -8.4710   -3.0920 C.3   186  ARG186      0.0489
     26  CD        -0.2590   -9.0780   -4.4230 C.3   186  ARG186      0.2205
     27  NE         1.1300   -8.7310   -4.7250 N.pl3 186  ARG186     -0.0865
     28  CZ         1.5380   -7.5880   -5.3090 C.cat 186  ARG186      0.5346
     29  NH1        2.8390   -7.3740   -5.5430 N.pl3 186  ARG186      0.1354
     30  NH2        0.6590   -6.6420   -5.6710 N.pl3 186  ARG186      0.1354
     31  N          3.6400   -7.5000    1.2660 N.3   188  LYS188     -0.1245
     32  CA         4.9930   -6.9970    0.9990 C.3   188  LYS188      0.1561
     33  C          5.5250   -6.1590    2.1520 C.2   188  LYS188      0.2260
     34  O          4.7880   -5.3950    2.7510 O.2   188  LYS188     -0.2867
     35  CB         5.0280   -6.1670   -0.2910 C.3   188  LYS188      0.0271
     36  CG         4.9180   -7.0410   -1.5620 C.3   188  LYS188      0.0035
     37  CD         5.1300   -6.1960   -2.8280 C.3   188  LYS188      0.0206
     38  CE         6.5810   -5.8570   -3.0890 C.3   188  LYS188      0.1093
     39  NZ         6.7210   -4.9990   -4.3170 N.3   188  LYS188     -0.1314
     40  N          8.0990   -1.5710   -0.8390 N.3   191  GLY191     -0.1210
     41  CA         7.4640   -1.3440   -2.1220 C.3   191  GLY191      0.1956
     42  C          8.0140   -0.1150   -2.8080 C.2   191  GLY191      0.2612
     43  O          8.8950    0.5690   -2.2700 O.2   191  GLY191     -0.2717
     44  N          7.5100    0.1600   -4.0040 N.am  192  HIS192     -0.1961
     45  CA         7.9460    1.3290   -4.7670 C.3   192  HIS192      0.1787
     46  C          7.0570    2.5290   -4.4910 C.2   192  HIS192      0.2620
     47  O          7.4520    3.6840   -4.7310 O.2   192  HIS192     -0.2715
     48  CB         7.9530    1.0310   -6.2690 C.3   192  HIS192      0.0785
     49  CG         8.9530   -0.0050   -6.6690 C.ar  192  HIS192      0.0821
     50  ND1        8.5860   -1.2550   -7.1240 N.ar  192  HIS192     -0.2267
     51  CD2       10.3090    0.0080   -6.6610 C.ar  192  HIS192      0.1154
     52  CE1        9.6710   -1.9580   -7.4000 C.ar  192  HIS192      0.1986
     53  NE2       10.7300   -1.2190   -7.1190 N.ar  192  HIS192     -0.2212
     54  N          5.8570    2.2550   -3.9990 N.am  193  ASP193     -0.1971
     55  CA         4.8710    3.3110   -3.7210 C.3   193  ASP193      0.1709
     56  C          3.8550    2.8110   -2.7310 C.2   193  ASP193      0.2293
     57  O          3.9580    1.6680   -2.2640 O.2   193  ASP193     -0.2864
     58  CB         4.1710    3.7980   -5.0170 C.3   193  ASP193      0.1436
     59  CG         3.1490    2.8030   -5.5770 C.2   193  ASP193      0.3671
     60  OD1        2.9230    1.7230   -4.9810 O.co2 193  ASP193     -0.2456
     61  OD2        2.5410    3.1300   -6.6300 O.co2 193  ASP193     -0.2456
     62  N         -0.4080    2.4090   -2.5390 N.3   195  ASP195     -0.1239
     63  CA        -1.6510    2.5320   -3.3200 C.3   195  ASP195      0.1674
     64  C         -2.8660    2.5270   -2.4220 C.2   195  ASP195      0.2266
     65  O         -3.0070    1.6290   -1.5840 O.2   195  ASP195     -0.2867
     66  CB        -1.7680    1.3790   -4.3300 C.3   195  ASP195      0.1410
     67  CG        -0.5200    1.2160   -5.1790 C.2   195  ASP195      0.3668
     68  OD1       -0.3780    1.9960   -6.1440 O.co2 195  ASP195     -0.2456
     69  OD2        0.3170    0.3220   -4.8920 O.co2 195  ASP195     -0.2456
     70  N         -0.4180    6.5240   -4.8860 N.3   258  ASP258     -0.1239
     71  CA        -1.4940    6.4980   -5.8720 C.3   258  ASP258      0.1674
     72  C         -2.8350    6.4720   -5.1580 C.2   258  ASP258      0.2266
     73  O         -3.0240    5.6860   -4.2280 O.2   258  ASP258     -0.2867
     74  CB        -1.3810    5.2440   -6.7630 C.3   258  ASP258      0.1410
     75  CG        -0.2360    5.3190   -7.7080 C.2   258  ASP258      0.3668
     76  OD1        0.0860    6.4440   -8.1520 O.co2 258  ASP258     -0.2456
     77  OD2        0.3360    4.2540   -8.0290 O.co2 258  ASP258     -0.2456
     78  N         -8.3290   -5.5540   -8.9380 N.3   273  GLY273     -0.1210
     79  CA        -7.3330   -5.1260   -9.9050 C.3   273  GLY273      0.1956
     80  C         -6.1450   -4.4320   -9.2560 C.2   273  GLY273      0.2612
     81  O         -4.9990   -4.6770   -9.6150 O.2   273  GLY273     -0.2717
     82  N         -6.4170   -3.5140   -8.3290 N.am  274  TRP274     -0.1962
     83  CA        -5.3350   -2.7210   -7.7330 C.3   274  TRP274      0.1771
     84  C         -4.5090   -3.4890   -6.7060 C.2   274  TRP274      0.2620
     85  O         -3.4620   -3.0120   -6.2780 O.2   274  TRP274     -0.2715
     86  CB        -5.9150   -1.4730   -7.0800 C.3   274  TRP274      0.0590
     87  CG        -6.1130   -0.3450   -8.0580 C.ar  274  TRP274      0.0006
     88  CD1       -7.0890   -0.2480   -9.0250 C.ar  274  TRP274      0.0946
     89  CD2       -5.3180    0.8360   -8.1690 C.ar  274  TRP274      0.0152
     90  NE1       -6.9370    0.9310   -9.7330 N.ar  274  TRP274     -0.2442
     91  CE2       -5.8660    1.6180   -9.2140 C.ar  274  TRP274      0.0810
     92  CE3       -4.2130    1.3330   -7.4640 C.ar  274  TRP274      0.0012
     93  CZ2       -5.3270    2.8470   -9.5840 C.ar  274  TRP274      0.0191
     94  CZ3       -3.6970    2.5630   -7.8160 C.ar  274  TRP274      0.0001
     95  CH2       -4.2480    3.3120   -8.8730 C.ar  274  TRP274      0.0015
     96  N         -4.9780   -4.6620   -6.3080 N.am  275  THR275     -0.1937
     97  CA        -4.2240   -5.4600   -5.3300 C.3   275  THR275      0.2028
     98  C         -3.1810   -6.3320   -6.0360 C.2   275  THR275      0.2643
     99  O         -2.1840   -6.7020   -5.4350 O.2   275  THR275     -0.2714
    100  CB        -5.1730   -6.3030   -4.4740 C.3   275  THR275      0.1808
    101  OG1       -6.0030   -5.4220   -3.6920 O.3   275  THR275     -0.2208
    102  CG2       -4.4070   -7.2260   -3.4900 C.3   275  THR275      0.0379
    103  N         -3.4120   -6.6410   -7.3090 N.am  276  GLY276     -0.1939
    104  CA        -2.4030   -7.3190   -8.1000 C.3   276  GLY276      0.2014
    105  C         -2.2010   -8.7670   -7.6690 C.2   276  GLY276      0.2640
    106  O         -3.1350   -9.3910   -7.1560 O.2   276  GLY276     -0.2714
    107  N         -1.0030   -9.3240   -7.8780 N.am  277  SER277     -0.1935
    108  CA         0.1140   -8.6890   -8.5890 C.3   277  SER277      0.2055
    109  C         -0.2200   -8.3840  -10.0390 C.2   277  SER277      0.2642
    110  O         -1.2470   -8.8370  -10.5380 O.2   277  SER277     -0.2714
    111  CB         1.3540   -9.6210   -8.5610 C.3   277  SER277      0.2130
    112  OG         1.1090  -10.7980   -9.3380 O.3   277  SER277     -0.2179
    113  N          0.6590   -7.6630  -10.7230 N.am  278  LYS278     -0.1977
    114  CA         0.4450   -7.4200  -12.1520 C.3   278  LYS278      0.1596
    115  C          0.2900   -8.7340  -12.9130 C.2   278  LYS278      0.2287
    116  O         -0.6570   -8.9230  -13.6780 O.2   278  LYS278     -0.2864
    117  CB         1.5870   -6.5980  -12.7270 C.3   278  LYS278      0.0298
    118  CG         1.6070   -6.4430  -14.2360 C.3   278  LYS278      0.0038
    119  CD         2.8520   -5.6020  -14.5840 C.3   278  LYS278      0.0206
    120  CE         3.1500   -5.5360  -16.0630 C.3   278  LYS278      0.1093
    121  NZ         4.4000   -4.7120  -16.2580 N.3   278  LYS278     -0.1314
    122  N         -3.0910  -10.3930  -12.1820 N.3   281  GLN281     -0.1231
    123  CA        -4.2560   -9.8170  -12.8690 C.3   281  GLN281      0.1698
    124  C         -4.2670  -10.1660  -14.3510 C.2   281  GLN281      0.2592
    125  O         -5.3310  -10.4110  -14.8930 O.2   281  GLN281     -0.2718
    126  CB        -4.3030   -8.2930  -12.6940 C.3   281  GLN281      0.0381
    127  CG        -4.4710   -7.8990  -11.2500 C.3   281  GLN281      0.0905
    128  CD        -5.7220   -8.4670  -10.6480 C.2   281  GLN281      0.2608
    129  OE1       -6.8190   -8.3010  -11.1970 O.2   281  GLN281     -0.2717
    130  NE2       -5.5800   -9.1630   -9.5290 N.am  281  GLN281     -0.0878
    131  N         -3.1120  -10.1570  -15.0160 N.am  282  ARG282     -0.1980
    132  CA        -3.0580  -10.5440  -16.4320 C.3   282  ARG282      0.1597
    133  C         -3.5430  -11.9820  -16.5710 C.2   282  ARG282      0.2287
    134  O         -4.3360  -12.3160  -17.4590 O.2   282  ARG282     -0.2864
    135  CB        -1.6390  -10.4510  -16.9930 C.3   282  ARG282      0.0334
    136  CG        -0.9790   -9.1090  -16.9410 C.3   282  ARG282      0.0492
    137  CD         0.4820   -9.3350  -17.3340 C.3   282  ARG282      0.2205
    138  NE         0.5810   -9.5050  -18.7800 N.pl3 282  ARG282     -0.0865
    139  CZ         1.6520   -9.1600  -19.4770 C.cat 282  ARG282      0.5346
    140  NH1        2.7220   -8.6910  -18.8340 N.pl3 282  ARG282      0.1354
    141  NH2        1.6680   -9.2950  -20.7940 N.pl3 282  ARG282      0.1354
    142  N         -7.3560  -12.2470  -15.8960 N.3   285  ARG285     -0.1245
    143  CA        -8.1360  -11.7400  -17.0200 C.3   285  ARG285      0.1563
    144  C         -8.0540  -12.6670  -18.2330 C.2   285  ARG285      0.2260
    145  O         -9.0260  -12.8320  -18.9800 O.2   285  ARG285     -0.2867
    146  CB        -7.6780  -10.3160  -17.3710 C.3   285  ARG285      0.0307
    147  CG        -7.9900   -9.3730  -16.1820 C.3   285  ARG285      0.0489
    148  CD        -7.2580   -8.0440  -16.3150 C.3   285  ARG285      0.2205
    149  NE        -7.5930   -7.2070  -15.1570 N.pl3 285  ARG285     -0.0865
    150  CZ        -7.1470   -5.9660  -14.9670 C.cat 285  ARG285      0.5346
    151  NH1       -6.3430   -5.4000  -15.8570 N.pl3 285  ARG285      0.1354
    152  NH2       -7.5120   -5.2830  -13.8790 N.pl3 285  ARG285      0.1354
@<TRIPOS>BOND
     1   141   139    1
     2   139   140    1
     3   139   138    2
     4   145   144    2
     5   138   137    1
     6   144   143    1
     7   134   133    2
     8   146   143    1
     9   146   147    1
    10   137   136    1
    11   143   142    1
    12   135   136    1
    13   135   132    1
    14   133   132    1
    15   132   131    1
    16   148   147    1
    17   148   149    1
    18   121   120    1
    19   120   119    1
    20   151   150    1
    21   149   150    2
    22   131   124   am
    23   150   152    1
    24   125   124    2
    25   119   118    1
    26   124   123    1
    27   118   117    1
    28   116   115    2
    29   115   114    1
    30   123   126    1
    31   123   122    1
    32   117   114    1
    33   126   127    1
    34   114   113    1
    35   127   128    1
    36   129   128    2
    37   113   109   am
    38   128   130   am
    39   110   109    2
    40   109   108    1
    41    79    80    1
    42    79    78    1
    43    90    91   ar
    44    90    88   ar
    45    81    80    2
    46    93    91   ar
    47    93    95   ar
    48   112   111    1
    49    80    82   am
    50    91    89   ar
    51    88    87   ar
    52    95    94   ar
    53   108   111    1
    54   108   107    1
    55    82    83    1
    56    89    87   ar
    57    89    92   ar
    58    76    75   ar
    59   104   105    1
    60   104   103    1
    61    87    86    1
    62    77    75   ar
    63   107   105   am
    64    94    92   ar
    65    83    86    1
    66    83    84    1
    67    75    74    1
    68   105   106    2
    69    52    50   ar
    70    52    53   ar
    71   103    98   am
    72    50    49   ar
    73    53    51   ar
    74    74    71    1
    75    84    96   am
    76    84    85    2
    77    49    51   ar
    78    49    48    1
    79    61    59   ar
    80    96    97    1
    81    48    45    1
    82    68    67   ar
    83    98    99    2
    84    98    97    1
    85    71    72    1
    86    71    70    1
    87    30    28    1
    88    59    58    1
    89    59    60   ar
    90    29    28    1
    91    97   100    1
    92    28    27    2
    93    67    69   ar
    94    67    66    1
    95    72    73    2
    96    58    55    1
    97    45    46    1
    98    45    44    1
    99    47    46    2
   100    27    26    1
   101    46    54   am
   102   100   101    1
   103   100   102    1
   104    26    25    1
   105    66    63    1
   106    39    38    1
   107     2     1    1
   108     2     3    1
   109    44    42   am
   110    54    55    1
   111    55    56    1
   112     5     3   am
   113     5     6    1
   114     3     4    2
   115    63    62    1
   116    63    64    1
   117    25    24    1
   118    38    37    1
   119     6     7    1
   120    37    36    1
   121    42    43    2
   122    42    41    1
   123    56    57    2
   124    64    65    2
   125    41    40    1
   126    24    21    1
   127    36    35    1
   128     7     8    2
   129     7     9   am
   130     9    10    1
   131    21    20    1
   132    21    22    1
   133    35    32    1
   134    18    16   ar
   135    18    19   ar
   136    23    22    2
   137    16    14   ar
   138    10    11    1
   139    10    13    1
   140    32    31    1
   141    32    33    1
   142    19    17   ar
   143    11    12    2
   144    14    13    1
   145    14    15   ar
   146    17    15   ar
   147    33    34    2
