@<TRIPOS>MOLECULE
tmp/4yd3A00.pdb
 130 119 0 0 0
SMALL
GASTEIGER

@<TRIPOS>ATOM
      1  N         -3.8290   -8.4290    3.4280 N.3    10  ILE10      -0.1231
      2  CA        -4.9300   -8.8130    4.3010 C.3    10  ILE10       0.1692
      3  C         -6.2380   -9.0470    3.5540 C.2    10  ILE10       0.2592
      4  O         -7.1420   -9.6770    4.1010 O.2    10  ILE10      -0.2718
      5  CB        -5.1820   -7.7870    5.4380 C.3    10  ILE10       0.0266
      6  CG1       -5.6150   -6.4150    4.9000 C.3    10  ILE10       0.0019
      7  CG2       -3.9430   -7.6740    6.3190 C.3    10  ILE10       0.0020
      8  CD1       -6.2430   -5.5300    5.9540 C.3    10  ILE10       0.0001
      9  N         -6.3450   -8.5300    2.3310 N.am   11  ASP11      -0.1974
     10  CA        -7.5920   -8.5740    1.5860 C.3    11  ASP11       0.1709
     11  C         -7.3020   -8.3930    0.1110 C.2    11  ASP11       0.2293
     12  O         -6.1540   -8.2320   -0.2830 O.2    11  ASP11      -0.2864
     13  CB        -8.6030   -7.5380    2.1210 C.3    11  ASP11       0.1436
     14  CG        -8.1400   -6.0940    1.9930 C.2    11  ASP11       0.3671
     15  OD1       -7.3190   -5.7810    1.1130 O.co2  11  ASP11      -0.2456
     16  OD2       -8.6290   -5.2570    2.7890 O.co2  11  ASP11      -0.2456
     17  N         -7.7310   -6.0330   -1.8820 N.3    13  LEU13      -0.1245
     18  CA        -7.3270   -4.6950   -2.3000 C.3    13  LEU13       0.1561
     19  C         -5.8870   -4.3390   -1.9330 C.2    13  LEU13       0.2260
     20  O         -5.4190   -3.2460   -2.2590 O.2    13  LEU13      -0.2867
     21  CB        -8.2470   -3.6500   -1.6640 C.3    13  LEU13       0.0270
     22  CG        -9.7500   -3.7610   -1.9430 C.3    13  LEU13       0.0019
     23  CD1      -10.4860   -2.6070   -1.2640 C.3    13  LEU13       0.0001
     24  CD2      -10.0230   -3.7830   -3.4370 C.3    13  LEU13       0.0001
     25  N         -5.0300   -3.6950    1.1330 N.3    15  ASP15      -0.1225
     26  CA        -5.1970   -2.5780    2.0570 C.3    15  ASP15       0.1805
     27  C         -4.0450   -2.4780    3.0580 C.2    15  ASP15       0.2597
     28  O         -3.6920   -1.3840    3.4960 O.2    15  ASP15      -0.2718
     29  CB        -6.5310   -2.6660    2.7800 C.3    15  ASP15       0.1424
     30  CG        -7.6950   -2.1800    1.9190 C.2    15  ASP15       0.3668
     31  OD1       -7.5550   -1.1330    1.2390 O.co2  15  ASP15      -0.2456
     32  OD2       -8.7660   -2.8430    1.9230 O.co2  15  ASP15      -0.2456
     33  N         -3.4850   -3.6280    3.4060 N.am   16  ALA16      -0.1979
     34  CA        -2.3540   -3.7140    4.3100 C.3    16  ALA16       0.1597
     35  C         -1.7380   -5.0870    4.1420 C.2    16  ALA16       0.2287
     36  O         -2.3360   -5.9650    3.5060 O.2    16  ALA16      -0.2864
     37  CB        -2.7810   -3.4960    5.7570 C.3    16  ALA16       0.0319
     38  N          1.4480   -5.9010   11.2850 N.3    33  ASP33      -0.1239
     39  CA         1.5760   -4.9860   10.1540 C.3    33  ASP33       0.1674
     40  C          2.8830   -4.2100   10.3210 C.2    33  ASP33       0.2266
     41  O          3.0110   -3.3710   11.2120 O.2    33  ASP33      -0.2867
     42  CB         0.3610   -4.0560   10.1720 C.3    33  ASP33       0.1410
     43  CG         0.3040   -3.1060    9.0100 C.2    33  ASP33       0.3668
     44  OD1        1.2980   -2.9220    8.2850 O.co2  33  ASP33      -0.2456
     45  OD2       -0.8070   -2.5200    8.8320 O.co2  33  ASP33      -0.2456
     46  N         -4.2840    8.1370   10.1850 N.3    81  ASP81      -0.1239
     47  CA        -5.6840    7.9510    9.8150 C.3    81  ASP81       0.1674
     48  C         -6.6600    8.1490   10.9740 C.2    81  ASP81       0.2266
     49  O         -7.8590    7.9430   10.8070 O.2    81  ASP81      -0.2867
     50  CB        -5.9060    6.5950    9.1280 C.3    81  ASP81       0.1410
     51  CG        -5.6960    5.3970   10.0480 C.2    81  ASP81       0.3668
     52  OD1       -5.5340    5.5840   11.2680 O.co2  81  ASP81      -0.2456
     53  OD2       -5.6880    4.2530    9.5220 O.co2  81  ASP81      -0.2456
     54  N        -10.5880   -4.9140   12.2110 N.3   119  ASP119     -0.1239
     55  CA        -9.6000   -5.5230   11.3200 C.3   119  ASP119      0.1674
     56  C         -9.0970   -6.8250   11.9490 C.2   119  ASP119      0.2266
     57  O         -8.0310   -6.8610   12.5580 O.2   119  ASP119     -0.2867
     58  CB        -8.4400   -4.5540   11.0520 C.3   119  ASP119      0.1410
     59  CG        -8.6490   -3.7240    9.7970 C.2   119  ASP119      0.3668
     60  OD1       -8.5030   -4.2880    8.6960 O.co2 119  ASP119     -0.2456
     61  OD2       -8.9450   -2.5110    9.9040 O.co2 119  ASP119     -0.2456
     62  N         -5.3120   -8.2230   11.5700 N.3   122  ILE122     -0.1245
     63  CA        -4.1340   -7.5170   12.0630 C.3   122  ILE122      0.1561
     64  C         -4.0540   -7.6550   13.5830 C.2   122  ILE122      0.2260
     65  O         -4.9090   -7.1430   14.3100 O.2   122  ILE122     -0.2867
     66  CB        -4.1570   -6.0400   11.6150 C.3   122  ILE122      0.0252
     67  CG1       -4.0250   -5.9670   10.0870 C.3   122  ILE122      0.0019
     68  CG2       -3.0450   -5.2420   12.3050 C.3   122  ILE122      0.0019
     69  CD1       -4.2040   -4.5620    9.5230 C.3   122  ILE122      0.0001
     70  N          3.1460    1.1890    6.1470 N.3   221  GLY221     -0.1225
     71  CA         1.9340    1.0690    6.9380 C.3   221  GLY221      0.1811
     72  C          0.7910    1.9670    6.5020 C.2   221  GLY221      0.2280
     73  O         -0.2160    2.0360    7.2010 O.2   221  GLY221     -0.2866
     74  N         -1.7540    2.6420    3.0900 N.3   223  THR223     -0.1203
     75  CA        -2.1630    1.9480    1.8770 C.3   223  THR223      0.1994
     76  C         -1.8020    2.7000    0.5940 C.2   223  THR223      0.2617
     77  O         -1.2990    2.1100   -0.3720 O.2   223  THR223     -0.2717
     78  CB        -3.6870    1.7310    1.8550 C.3   223  THR223      0.1784
     79  OG1       -4.1520    1.2970    3.1340 O.3   223  THR223     -0.2211
     80  CG2       -4.0770    0.7240    0.7810 C.3   223  THR223      0.0376
     81  N         -2.1260    3.9900    0.5740 N.am  224  LEU224     -0.1979
     82  CA        -2.1650    4.7670   -0.6570 C.3   224  LEU224      0.1596
     83  C         -0.9720    5.6850   -0.8400 C.2   224  LEU224      0.2287
     84  O         -0.0980    5.8030    0.0170 O.2   224  LEU224     -0.2864
     85  CB        -3.4670    5.5760   -0.7280 C.3   224  LEU224      0.0297
     86  CG        -4.7560    4.7460   -0.5810 C.3   224  LEU224      0.0022
     87  CD1       -5.9940    5.5960   -0.8240 C.3   224  LEU224      0.0001
     88  CD2       -4.7910    3.5050   -1.4810 C.3   224  LEU224      0.0001
     89  N         -0.0310    9.4750   -1.3020 N.3   226  TYR226     -0.1241
     90  CA        -0.5520   10.8110   -1.0130 C.3   226  TYR226      0.1605
     91  C          0.4720   11.8510   -1.4690 C.2   226  TYR226      0.2264
     92  O          1.5960   11.8910   -0.9670 O.2   226  TYR226     -0.2867
     93  CB        -0.8560   10.9840    0.4810 C.3   226  TYR226      0.0534
     94  CG        -1.9700   10.0870    0.9780 C.ar  226  TYR226     -0.0201
     95  CD1       -3.2920   10.5030    0.9410 C.ar  226  TYR226     -0.0009
     96  CD2       -1.6970    8.8220    1.4790 C.ar  226  TYR226     -0.0009
     97  CE1       -4.3190    9.6810    1.3730 C.ar  226  TYR226      0.0417
     98  CE2       -2.7090    7.9900    1.9120 C.ar  226  TYR226      0.0417
     99  CZ        -4.0190    8.4260    1.8630 C.ar  226  TYR226      0.1957
    100  OH        -5.0240    7.5970    2.2970 O.3   226  TYR226     -0.2866
    101  N        -17.1090   11.2470   -0.2600 N.3   248  VAL248     -0.1231
    102  CA       -16.3950    9.9840   -0.1540 C.3   248  VAL248      0.1692
    103  C        -15.0570   10.1690    0.5660 C.2   248  VAL248      0.2592
    104  O        -14.6310    9.2910    1.3190 O.2   248  VAL248     -0.2718
    105  CB       -16.1930    9.3500   -1.5400 C.3   248  VAL248      0.0266
    106  CG1      -15.3380    8.0960   -1.4390 C.3   248  VAL248      0.0020
    107  CG2      -17.5480    9.0160   -2.1550 C.3   248  VAL248      0.0020
    108  N        -14.4170   11.3190    0.3610 N.am  249  GLY249     -0.1957
    109  CA       -13.1400   11.6300    0.9900 C.3   249  GLY249      0.1869
    110  C        -11.9380   11.5080    0.0650 C.2   249  GLY249      0.2309
    111  O        -10.8280   11.2030    0.5160 O.2   249  GLY249     -0.2863
    112  N        -16.4740    2.0090   -4.0480 N.3   283  ILE283     -0.1245
    113  CA       -16.4990    2.7350   -2.7810 C.3   283  ILE283      0.1561
    114  C        -17.4120    2.0650   -1.7540 C.2   283  ILE283      0.2260
    115  O        -17.1980    2.1940   -0.5510 O.2   283  ILE283     -0.2867
    116  CB       -16.8890    4.2160   -2.9760 C.3   283  ILE283      0.0252
    117  CG1      -18.2750    4.3460   -3.6280 C.3   283  ILE283      0.0019
    118  CG2      -15.8020    4.9300   -3.7960 C.3   283  ILE283      0.0019
    119  CD1      -18.8010    5.7670   -3.6540 C.3   283  ILE283      0.0001
    120  N        -12.5920    3.7860   -5.8700 N.3   291  PHE291     -0.1241
    121  CA       -11.7150    4.6820   -5.1190 C.3   291  PHE291      0.1605
    122  C        -10.2980    4.6820   -5.6750 C.2   291  PHE291      0.2264
    123  O         -9.7120    3.6330   -5.9340 O.2   291  PHE291     -0.2867
    124  CB       -11.6940    4.3340   -3.6260 C.3   291  PHE291      0.0534
    125  CG       -11.2000    5.4650   -2.7610 C.ar  291  PHE291     -0.0203
    126  CD1      -11.9380    6.6310   -2.6470 C.ar  291  PHE291     -0.0042
    127  CD2       -9.9790    5.3990   -2.1150 C.ar  291  PHE291     -0.0042
    128  CE1      -11.4940    7.6850   -1.8770 C.ar  291  PHE291     -0.0003
    129  CE2       -9.5390    6.4510   -1.3360 C.ar  291  PHE291     -0.0003
    130  CZ       -10.2960    7.5940   -1.2210 C.ar  291  PHE291     -0.0000
@<TRIPOS>BOND
     1   123   122    2
     2   120   121    1
     3   122   121    1
     4   121   124    1
     5   112   113    1
     6   118   116    1
     7   119   117    1
     8   117   116    1
     9   124   125    1
    10    24    22    1
    11   116   113    1
    12   113   114    1
    13   125   126   ar
    14   125   127   ar
    15   126   128   ar
    16    18    19    1
    17    18    17    1
    18    18    21    1
    19    20    19    2
    20   107   105    1
    21   127   129   ar
    22    22    21    1
    23    22    23    1
    24   128   130   ar
    25   114   115    2
    26   105   106    1
    27   105   102    1
    28    88    86    1
    29    91    90    1
    30    91    92    2
    31   129   130   ar
    32    89    90    1
    33    90    93    1
    34    83    82    1
    35    83    84    2
    36    87    86    1
    37    85    82    1
    38    85    86    1
    39    82    81    1
    40    77    76    2
    41    12    11    2
    42   101   102    1
    43   102   103    1
    44   110   111    2
    45   110   109    1
    46    11    10    1
    47   108   103   am
    48   108   109    1
    49    93    94    1
    50   103   104    2
    51    81    76   am
    52    76    75    1
    53    80    78    1
    54    95    94   ar
    55    95    97   ar
    56    94    96   ar
    57    15    14   ar
    58    25    26    1
    59    31    30   ar
    60    97    99   ar
    61    96    98   ar
    62    10    13    1
    63    10     9    1
    64    78    75    1
    65    78    79    1
    66    99    98   ar
    67    99   100    1
    68    75    74    1
    69    30    32   ar
    70    30    29    1
    71    14    13    1
    72    14    16   ar
    73    26    29    1
    74    26    27    1
    75     9     3   am
    76    27    33   am
    77    27    28    2
    78    33    34    1
    79     1     2    1
    80    36    35    2
    81     3     4    2
    82     3     2    1
    83    35    34    1
    84     2     5    1
    85    34    37    1
    86     6     5    1
    87     6     8    1
    88     5     7    1
    89    70    71    1
    90    72    71    1
    91    72    73    2
    92    44    43   ar
    93    60    59   ar
    94    45    43   ar
    95    43    42    1
    96    50    47    1
    97    50    51    1
    98    53    51   ar
    99    69    67    1
   100    59    61   ar
   101    59    58    1
   102    47    46    1
   103    47    48    1
   104    51    52   ar
   105    67    66    1
   106    39    42    1
   107    39    40    1
   108    39    38    1
   109    40    41    2
   110    49    48    2
   111    58    55    1
   112    55    56    1
   113    55    54    1
   114    62    63    1
   115    66    63    1
   116    66    68    1
   117    56    57    2
   118    63    64    1
   119    64    65    2
