@<TRIPOS>MOLECULE
tmp/4yd3A01.pdb
 101 92 0 0 0
SMALL
GASTEIGER

@<TRIPOS>ATOM
      1  N         -3.4850   -3.6280    3.4060 N.3    16  ALA16      -0.1245
      2  CA        -2.3540   -3.7140    4.3100 C.3    16  ALA16       0.1562
      3  C         -1.7380   -5.0870    4.1420 C.2    16  ALA16       0.2260
      4  O         -2.3360   -5.9650    3.5060 O.2    16  ALA16      -0.2867
      5  CB        -2.7810   -3.4960    5.7570 C.3    16  ALA16       0.0290
      6  N          1.4480   -5.9010   11.2850 N.3    33  ASP33      -0.1239
      7  CA         1.5760   -4.9860   10.1540 C.3    33  ASP33       0.1674
      8  C          2.8830   -4.2100   10.3210 C.2    33  ASP33       0.2266
      9  O          3.0110   -3.3710   11.2120 O.2    33  ASP33      -0.2867
     10  CB         0.3610   -4.0560   10.1720 C.3    33  ASP33       0.1410
     11  CG         0.3040   -3.1060    9.0100 C.2    33  ASP33       0.3668
     12  OD1        1.2980   -2.9220    8.2850 O.co2  33  ASP33      -0.2456
     13  OD2       -0.8070   -2.5200    8.8320 O.co2  33  ASP33      -0.2456
     14  N          5.3620   -1.4790    9.7910 N.3    35  ASP35      -0.1239
     15  CA         5.0080   -0.0880    9.5220 C.3    35  ASP35       0.1674
     16  C          6.2330    0.8080    9.5820 C.2    35  ASP35       0.2266
     17  O          6.6670    1.1910   10.6650 O.2    35  ASP35      -0.2867
     18  CB         3.9760    0.3520   10.5640 C.3    35  ASP35       0.1410
     19  CG         3.5320    1.7810   10.3910 C.2    35  ASP35       0.3668
     20  OD1        3.7800    2.3330    9.3050 O.co2  35  ASP35      -0.2456
     21  OD2        2.9340    2.3400   11.3470 O.co2  35  ASP35      -0.2456
     22  N         -2.3630    7.3840   14.9680 N.3    79  TYR79      -0.1241
     23  CA        -1.8380    7.2480   13.6200 C.3    79  TYR79       0.1605
     24  C         -2.4360    8.2910   12.6850 C.2    79  TYR79       0.2264
     25  O         -3.3990    8.9880   13.0290 O.2    79  TYR79      -0.2867
     26  CB        -2.1260    5.8390   13.1150 C.3    79  TYR79       0.0534
     27  CG        -1.3940    4.7880   13.9170 C.ar   79  TYR79      -0.0201
     28  CD1       -0.0340    4.5830   13.7310 C.ar   79  TYR79      -0.0009
     29  CD2       -2.0500    4.0070   14.8510 C.ar   79  TYR79      -0.0009
     30  CE1        0.6630    3.6310   14.4610 C.ar   79  TYR79       0.0417
     31  CE2       -1.3600    3.0500   15.5970 C.ar   79  TYR79       0.0417
     32  CZ        -0.0080    2.8680   15.3980 C.ar   79  TYR79       0.1957
     33  OH         0.6520    1.9070   16.1310 O.3    79  TYR79      -0.2866
     34  N         -4.2840    8.1370   10.1850 N.3    81  ASP81      -0.1239
     35  CA        -5.6840    7.9510    9.8150 C.3    81  ASP81       0.1674
     36  C         -6.6600    8.1490   10.9740 C.2    81  ASP81       0.2266
     37  O         -7.8590    7.9430   10.8070 O.2    81  ASP81      -0.2867
     38  CB        -5.9060    6.5950    9.1280 C.3    81  ASP81       0.1410
     39  CG        -5.6960    5.3970   10.0480 C.2    81  ASP81       0.3668
     40  OD1       -5.5340    5.5840   11.2680 O.co2  81  ASP81      -0.2456
     41  OD2       -5.6880    4.2530    9.5220 O.co2  81  ASP81      -0.2456
     42  N         -6.7220    6.5150   13.8590 N.3    83  SER83      -0.1217
     43  CA        -6.8160    5.3570   14.7470 C.3    83  SER83       0.1889
     44  C         -5.8030    5.4810   15.8810 C.2    83  SER83       0.2288
     45  O         -4.8800    6.3070   15.8250 O.2    83  SER83      -0.2866
     46  CB        -6.6300    4.0480   13.9800 C.3    83  SER83       0.2089
     47  OG        -5.3380    3.9490   13.4450 O.3    83  SER83      -0.2183
     48  N        -11.2100    0.8270   14.2280 N.3   115  SER115     -0.1202
     49  CA       -10.6900    0.2580   12.9890 C.3   115  SER115      0.2020
     50  C         -9.6230   -0.8030   13.2360 C.2   115  SER115      0.2618
     51  O         -9.3070   -1.5650   12.3370 O.2   115  SER115     -0.2717
     52  CB       -10.1860    1.3390   12.0270 C.3   115  SER115      0.2103
     53  OG        -8.9820    1.9460   12.4550 O.3   115  SER115     -0.2182
     54  N         -9.0820   -0.8760   14.4540 N.am  116  PHE116     -0.1975
     55  CA        -8.2700   -2.0310   14.8290 C.3   116  PHE116      0.1639
     56  C         -9.1750   -3.2100   15.1980 C.2   116  PHE116      0.2290
     57  O         -9.0130   -4.3000   14.6600 O.2   116  PHE116     -0.2864
     58  CB        -7.2870   -1.6780   15.9480 C.3   116  PHE116      0.0560
     59  CG        -6.1390   -0.8160   15.4850 C.ar  116  PHE116     -0.0200
     60  CD1       -5.2470   -1.2940   14.5270 C.ar  116  PHE116     -0.0042
     61  CD2       -5.9510    0.4670   15.9910 C.ar  116  PHE116     -0.0042
     62  CE1       -4.1940   -0.5120   14.0870 C.ar  116  PHE116     -0.0003
     63  CE2       -4.8960    1.2460   15.5560 C.ar  116  PHE116     -0.0003
     64  CZ        -4.0230    0.7660   14.5990 C.ar  116  PHE116     -0.0000
     65  N        -12.1090   -3.8880   14.2630 N.3   118  GLU118     -0.1231
     66  CA       -12.8020   -4.3530   13.0650 C.3   118  GLU118      0.1699
     67  C        -11.9030   -5.0220   12.0180 C.2   118  GLU118      0.2592
     68  O        -12.4100   -5.6060   11.0530 O.2   118  GLU118     -0.2718
     69  CB       -13.5470   -3.1750   12.4370 C.3   118  GLU118      0.0402
     70  CG       -14.7140   -2.6710   13.2960 C.3   118  GLU118      0.1161
     71  CD       -15.1360   -1.2440   12.9750 C.2   118  GLU118      0.3649
     72  OE1      -15.9560   -0.6820   13.7370 O.co2 118  GLU118     -0.2457
     73  OE2      -14.6440   -0.6770   11.9760 O.co2 118  GLU118     -0.2457
     74  N        -10.5880   -4.9140   12.2110 N.am  119  ASP119     -0.1974
     75  CA        -9.6000   -5.5230   11.3200 C.3   119  ASP119      0.1709
     76  C         -9.0970   -6.8250   11.9490 C.2   119  ASP119      0.2293
     77  O         -8.0310   -6.8610   12.5580 O.2   119  ASP119     -0.2864
     78  CB        -8.4400   -4.5540   11.0520 C.3   119  ASP119      0.1436
     79  CG        -8.6490   -3.7240    9.7970 C.2   119  ASP119      0.3671
     80  OD1       -8.5030   -4.2880    8.6960 O.co2 119  ASP119     -0.2456
     81  OD2       -8.9450   -2.5110    9.9040 O.co2 119  ASP119     -0.2456
     82  N         -5.3120   -8.2230   11.5700 N.3   122  ILE122     -0.1245
     83  CA        -4.1340   -7.5170   12.0630 C.3   122  ILE122      0.1561
     84  C         -4.0540   -7.6550   13.5830 C.2   122  ILE122      0.2260
     85  O         -4.9090   -7.1430   14.3100 O.2   122  ILE122     -0.2867
     86  CB        -4.1570   -6.0400   11.6150 C.3   122  ILE122      0.0252
     87  CG1       -4.0250   -5.9670   10.0870 C.3   122  ILE122      0.0019
     88  CG2       -3.0450   -5.2420   12.3050 C.3   122  ILE122      0.0019
     89  CD1       -4.2040   -4.5620    9.5230 C.3   122  ILE122      0.0001
     90  N          0.9930   -3.9970   15.3080 N.3   125  LEU125     -0.1245
     91  CA         1.9150   -3.3110   14.4060 C.3   125  LEU125      0.1561
     92  C          3.3430   -3.5280   14.8750 C.2   125  LEU125      0.2260
     93  O          3.6060   -3.6440   16.0700 O.2   125  LEU125     -0.2867
     94  CB         1.6180   -1.8000   14.3110 C.3   125  LEU125      0.0270
     95  CG         0.6800   -1.3760   13.1800 C.3   125  LEU125      0.0019
     96  CD1       -0.7120   -1.9820   13.3330 C.3   125  LEU125      0.0001
     97  CD2        0.6070    0.1450   13.1030 C.3   125  LEU125      0.0001
     98  N          3.1460    1.1890    6.1470 N.3   221  GLY221     -0.1225
     99  CA         1.9340    1.0690    6.9380 C.3   221  GLY221      0.1811
    100  C          0.7910    1.9670    6.5020 C.2   221  GLY221      0.2280
    101  O         -0.2160    2.0360    7.2010 O.2   221  GLY221     -0.2866
@<TRIPOS>BOND
     1     1     2    1
     2     4     3    2
     3     3     2    1
     4     2     5    1
     5    98    99    1
     6   100    99    1
     7   100   101    2
     8    12    11   ar
     9    80    79   ar
    10    13    11   ar
    11    11    10    1
    12    38    35    1
    13    38    39    1
    14    20    19   ar
    15    15    16    1
    16    15    14    1
    17    15    18    1
    18    41    39   ar
    19    89    87    1
    20    16    17    2
    21    79    81   ar
    22    79    78    1
    23    35    34    1
    24    35    36    1
    25    39    40   ar
    26    87    86    1
    27     7    10    1
    28     7     8    1
    29     7     6    1
    30     8     9    2
    31    19    18    1
    32    19    21   ar
    33    37    36    2
    34    78    75    1
    35    68    67    2
    36    75    76    1
    37    75    74    1
    38    82    83    1
    39    86    83    1
    40    86    88    1
    41    76    77    2
    42    73    71   ar
    43    67    74   am
    44    67    66    1
    45    52    53    1
    46    52    49    1
    47    83    84    1
    48    51    50    2
    49    69    66    1
    50    69    70    1
    51    24    25    2
    52    24    23    1
    53    71    70    1
    54    71    72   ar
    55    49    50    1
    56    49    48    1
    57    66    65    1
    58    97    95    1
    59    26    23    1
    60    26    27    1
    61    95    96    1
    62    95    94    1
    63    50    54   am
    64    47    46    1
    65    84    85    2
    66    23    22    1
    67    28    27   ar
    68    28    30   ar
    69    42    43    1
    70    27    29   ar
    71    46    43    1
    72    62    60   ar
    73    62    64   ar
    74    94    91    1
    75    91    92    1
    76    91    90    1
    77    54    55    1
    78    30    32   ar
    79    60    59   ar
    80    64    63   ar
    81    57    56    2
    82    43    44    1
    83    55    56    1
    84    55    58    1
    85    29    31   ar
    86    92    93    2
    87    32    31   ar
    88    32    33    1
    89    59    58    1
    90    59    61   ar
    91    63    61   ar
    92    45    44    2
