@<TRIPOS>MOLECULE
tmp/4yd6A00.pdb
 92 83 0 0 0
SMALL
GASTEIGER

@<TRIPOS>ATOM
      1  N         -3.5260   -2.1170    3.4820 N.3    16  ALA16      -0.1245
      2  CA        -2.3460   -2.1570    4.3390 C.3    16  ALA16       0.1562
      3  C         -1.7390   -3.5260    4.1650 C.2    16  ALA16       0.2260
      4  O         -2.3220   -4.3880    3.4940 O.2    16  ALA16      -0.2867
      5  CB        -2.7110   -1.9230    5.7980 C.3    16  ALA16       0.0290
      6  N          1.4230   -4.3450   11.3080 N.3    33  ASP33      -0.1239
      7  CA         1.5450   -3.4020   10.1950 C.3    33  ASP33       0.1674
      8  C          2.8610   -2.6500   10.3700 C.2    33  ASP33       0.2266
      9  O          2.9970   -1.8180   11.2620 O.2    33  ASP33      -0.2867
     10  CB         0.3390   -2.4600   10.2600 C.3    33  ASP33       0.1410
     11  CG         0.2560   -1.4840    9.1270 C.2    33  ASP33       0.3668
     12  OD1        1.2120   -1.3540    8.3380 O.co2  33  ASP33      -0.2456
     13  OD2       -0.8210   -0.8350    9.0540 O.co2  33  ASP33      -0.2456
     14  N          5.3590    0.0630    9.8290 N.3    35  ASP35      -0.1239
     15  CA         4.9960    1.4490    9.5580 C.3    35  ASP35       0.1674
     16  C          6.2150    2.3510    9.6260 C.2    35  ASP35       0.2266
     17  O          6.6420    2.7310   10.7110 O.2    35  ASP35      -0.2867
     18  CB         3.9650    1.8930   10.5980 C.3    35  ASP35       0.1410
     19  CG         3.5020    3.3250   10.4190 C.2    35  ASP35       0.3668
     20  OD1        3.8410    3.9290    9.3870 O.co2  35  ASP35      -0.2456
     21  OD2        2.7820    3.8280   11.3240 O.co2  35  ASP35      -0.2456
     22  N         -2.5610    8.7930   15.0150 N.3    79  TYR79      -0.1241
     23  CA        -2.0950    8.6290   13.6440 C.3    79  TYR79       0.1605
     24  C         -2.7620    9.6160   12.7060 C.2    79  TYR79       0.2264
     25  O         -3.7870   10.2070   13.0410 O.2    79  TYR79      -0.2867
     26  CB        -2.3570    7.2010   13.1760 C.3    79  TYR79       0.0534
     27  CG        -1.5600    6.1870   13.9620 C.ar   79  TYR79      -0.0201
     28  CD1       -2.1440    5.4530   14.9820 C.ar   79  TYR79      -0.0009
     29  CD2       -0.2100    5.9950   13.7020 C.ar   79  TYR79      -0.0009
     30  CE1       -1.4150    4.5380   15.7060 C.ar   79  TYR79       0.0417
     31  CE2        0.5400    5.0860   14.4230 C.ar   79  TYR79       0.0417
     32  CZ        -0.0700    4.3530   15.4210 C.ar   79  TYR79       0.1957
     33  OH         0.6490    3.4340   16.1470 O.3    79  TYR79      -0.2866
     34  N         -4.5470    9.2940   10.1870 N.3    81  ASP81      -0.1239
     35  CA        -5.9010    8.9720    9.7510 C.3    81  ASP81       0.1674
     36  C         -6.9500    9.1620   10.8540 C.2    81  ASP81       0.2266
     37  O         -8.1030    8.7710   10.6830 O.2    81  ASP81      -0.2867
     38  CB        -5.9540    7.5490    9.1870 C.3    81  ASP81       0.1410
     39  CG        -5.7470    6.4760   10.2420 C.2    81  ASP81       0.3668
     40  OD1       -5.5010    6.8040   11.4250 O.co2  81  ASP81      -0.2456
     41  OD2       -5.8220    5.2820    9.8700 O.co2  81  ASP81      -0.2456
     42  N         -6.9530    7.8180   13.8800 N.3    83  SER83      -0.1217
     43  CA        -6.9980    6.7190   14.8420 C.3    83  SER83       0.1889
     44  C         -5.9750    6.9170   15.9560 C.2    83  SER83       0.2288
     45  O         -5.0950    7.7790   15.8680 O.2    83  SER83      -0.2866
     46  CB        -6.7650    5.3820   14.1400 C.3    83  SER83       0.2089
     47  OG        -5.4440    5.2910   13.6330 O.3    83  SER83      -0.2183
     48  N        -11.4120    2.3320   14.5270 N.3   115  SER115     -0.1202
     49  CA       -10.9490    1.7880   13.2560 C.3   115  SER115      0.2020
     50  C         -9.9480    0.6570   13.4510 C.2   115  SER115      0.2618
     51  O         -9.8000   -0.1800   12.5700 O.2   115  SER115     -0.2717
     52  CB       -10.3680    2.8690   12.3510 C.3   115  SER115      0.2103
     53  OG        -9.1410    3.3740   12.8330 O.3   115  SER115     -0.2182
     54  N         -9.2580    0.6210   14.5930 N.am  116  PHE116     -0.1975
     55  CA        -8.4260   -0.5340   14.9090 C.3   116  PHE116      0.1639
     56  C         -9.3020   -1.7390   15.2730 C.2   116  PHE116      0.2290
     57  O         -9.1070   -2.8290   14.7480 O.2   116  PHE116     -0.2864
     58  CB        -7.4490   -0.2060   16.0350 C.3   116  PHE116      0.0560
     59  CG        -6.2650    0.6270   15.6010 C.ar  116  PHE116     -0.0200
     60  CD1       -5.3210    0.1040   14.7300 C.ar  116  PHE116     -0.0042
     61  CD2       -6.0880    1.9210   16.0650 C.ar  116  PHE116     -0.0042
     62  CE1       -4.2390    0.8440   14.3380 C.ar  116  PHE116     -0.0003
     63  CE2       -4.9760    2.6680   15.6720 C.ar  116  PHE116     -0.0003
     64  CZ        -4.0700    2.1330   14.8070 C.ar  116  PHE116     -0.0000
     65  N        -10.9530   -3.4750   12.2980 N.3   119  ASP119     -0.1239
     66  CA       -10.0640   -4.1810   11.3820 C.3   119  ASP119      0.1674
     67  C         -9.4570   -5.4120   12.0530 C.2   119  ASP119      0.2266
     68  O         -8.4490   -5.3350   12.7510 O.2   119  ASP119     -0.2867
     69  CB        -8.9620   -3.2520   10.9070 C.3   119  ASP119      0.1410
     70  CG        -8.0030   -3.9270    9.9710 C.2   119  ASP119      0.3668
     71  OD1       -8.3200   -5.0430    9.4930 O.co2 119  ASP119     -0.2456
     72  OD2       -6.9410   -3.3340    9.6900 O.co2 119  ASP119     -0.2456
     73  N         -5.3430   -6.6620   11.5850 N.3   122  ILE122     -0.1245
     74  CA        -4.1420   -5.9910   12.0810 C.3   122  ILE122      0.1561
     75  C         -4.0840   -6.1050   13.6000 C.2   122  ILE122      0.2260
     76  O         -4.9600   -5.6030   14.3110 O.2   122  ILE122     -0.2867
     77  CB        -4.0750   -4.5190   11.5960 C.3   122  ILE122      0.0252
     78  CG1       -3.8350   -4.4960   10.0760 C.3   122  ILE122      0.0019
     79  CG2       -2.9780   -3.7460   12.3280 C.3   122  ILE122      0.0019
     80  CD1       -3.7950   -3.1120    9.4480 C.3   122  ILE122      0.0001
     81  N          1.0170   -2.4980   15.3780 N.3   125  LEU125     -0.1245
     82  CA         1.9320   -1.8240   14.4600 C.3   125  LEU125      0.1561
     83  C          3.3640   -2.0520   14.9100 C.2   125  LEU125      0.2260
     84  O          3.6350   -2.1900   16.1060 O.2   125  LEU125     -0.2867
     85  CB         1.6540   -0.3130   14.3990 C.3   125  LEU125      0.0270
     86  CG         0.6950    0.1540   13.2940 C.3   125  LEU125      0.0019
     87  CD1       -0.6860   -0.4800   13.4490 C.3   125  LEU125      0.0001
     88  CD2        0.5790    1.6550   13.2790 C.3   125  LEU125      0.0001
     89  N          3.1790    2.7690    6.2110 N.3   221  GLY221     -0.1225
     90  CA         1.9610    2.6830    6.9960 C.3   221  GLY221      0.1811
     91  C          0.8140    3.5720    6.5440 C.2   221  GLY221      0.2280
     92  O         -0.2060    3.6470    7.2280 O.2   221  GLY221     -0.2866
@<TRIPOS>BOND
     1     1     2    1
     2     4     3    2
     3     3     2    1
     4     2     5    1
     5    89    90    1
     6    91    90    1
     7    91    92    2
     8    12    11   ar
     9    13    11   ar
    10    11    10    1
    11    38    35    1
    12    38    39    1
    13    20    19   ar
    14    80    78    1
    15    71    70   ar
    16    15    16    1
    17    15    14    1
    18    15    18    1
    19    16    17    2
    20    72    70   ar
    21    35    34    1
    22    35    36    1
    23    41    39   ar
    24    70    69    1
    25    78    77    1
    26     7    10    1
    27     7     8    1
    28     7     6    1
    29    39    40   ar
    30     8     9    2
    31    19    18    1
    32    19    21   ar
    33    37    36    2
    34    69    66    1
    35    66    67    1
    36    66    65    1
    37    73    74    1
    38    77    74    1
    39    77    79    1
    40    67    68    2
    41    74    75    1
    42    52    53    1
    43    52    49    1
    44    51    50    2
    45    24    25    2
    46    24    23    1
    47    26    23    1
    48    26    27    1
    49    49    50    1
    50    49    48    1
    51    88    86    1
    52    86    87    1
    53    86    85    1
    54    50    54   am
    55    75    76    2
    56    47    46    1
    57    23    22    1
    58    29    27   ar
    59    29    31   ar
    60    42    43    1
    61    27    28   ar
    62    46    43    1
    63    62    60   ar
    64    62    64   ar
    65    85    82    1
    66    31    32   ar
    67    82    83    1
    68    82    81    1
    69    54    55    1
    70    60    59   ar
    71    57    56    2
    72    64    63   ar
    73    43    44    1
    74    55    56    1
    75    55    58    1
    76    83    84    2
    77    28    30   ar
    78    32    30   ar
    79    32    33    1
    80    59    58    1
    81    59    61   ar
    82    63    61   ar
    83    45    44    2
