@<TRIPOS>MOLECULE
tmp/4yd6A02.pdb
 105 97 0 0 0
SMALL
GASTEIGER

@<TRIPOS>ATOM
      1  N         -3.8230   -6.8960    3.4230 N.3    10  ILE10      -0.1231
      2  CA        -4.9000   -7.3020    4.3160 C.3    10  ILE10       0.1692
      3  C         -6.2050   -7.5290    3.5790 C.2    10  ILE10       0.2592
      4  O         -7.1050   -8.1440    4.1280 O.2    10  ILE10      -0.2718
      5  CB        -5.1410   -6.2930    5.4560 C.3    10  ILE10       0.0266
      6  CG1       -5.6150   -4.9350    4.9170 C.3    10  ILE10       0.0019
      7  CG2       -3.8750   -6.1710    6.3110 C.3    10  ILE10       0.0020
      8  CD1       -6.1730   -4.0370    5.9950 C.3    10  ILE10       0.0001
      9  N         -6.3130   -7.0300    2.3490 N.am   11  ASP11      -0.1974
     10  CA        -7.5510   -7.1180    1.5880 C.3    11  ASP11       0.1709
     11  C         -7.2480   -6.9240    0.1210 C.2    11  ASP11       0.2293
     12  O         -6.0900   -6.7310   -0.2520 O.2    11  ASP11      -0.2864
     13  CB        -8.5960   -6.1210    2.1040 C.3    11  ASP11       0.1436
     14  CG        -8.1730   -4.6620    1.9920 C.2    11  ASP11       0.3671
     15  OD1       -8.7440   -3.8600    2.7640 O.co2  11  ASP11      -0.2456
     16  OD2       -7.3360   -4.2910    1.1440 O.co2  11  ASP11      -0.2456
     17  N         -5.0910   -2.1950    1.2230 N.3    15  ASP15      -0.1225
     18  CA        -5.2810   -1.0920    2.1640 C.3    15  ASP15       0.1805
     19  C         -4.1350   -0.9840    3.1730 C.2    15  ASP15       0.2597
     20  O         -3.7990    0.1080    3.6550 O.2    15  ASP15      -0.2718
     21  CB        -6.6240   -1.2080    2.8730 C.3    15  ASP15       0.1424
     22  CG        -7.7800   -0.7390    1.9970 C.2    15  ASP15       0.3668
     23  OD1       -7.6390    0.3100    1.3350 O.co2  15  ASP15      -0.2456
     24  OD2       -8.8180   -1.4380    1.9370 O.co2  15  ASP15      -0.2456
     25  N         -3.5260   -2.1170    3.4820 N.am   16  ALA16      -0.1979
     26  CA        -2.3460   -2.1570    4.3390 C.3    16  ALA16       0.1597
     27  C         -1.7390   -3.5260    4.1650 C.2    16  ALA16       0.2287
     28  O         -2.3220   -4.3880    3.4940 O.2    16  ALA16      -0.2864
     29  CB        -2.7110   -1.9230    5.7980 C.3    16  ALA16       0.0319
     30  N          1.4230   -4.3450   11.3080 N.3    33  ASP33      -0.1239
     31  CA         1.5450   -3.4020   10.1950 C.3    33  ASP33       0.1674
     32  C          2.8610   -2.6500   10.3700 C.2    33  ASP33       0.2266
     33  O          2.9970   -1.8180   11.2620 O.2    33  ASP33      -0.2867
     34  CB         0.3390   -2.4600   10.2600 C.3    33  ASP33       0.1410
     35  CG         0.2560   -1.4840    9.1270 C.2    33  ASP33       0.3668
     36  OD1        1.2120   -1.3540    8.3380 O.co2  33  ASP33      -0.2456
     37  OD2       -0.8210   -0.8350    9.0540 O.co2  33  ASP33      -0.2456
     38  N         -4.5470    9.2940   10.1870 N.3    81  ASP81      -0.1239
     39  CA        -5.9010    8.9720    9.7510 C.3    81  ASP81       0.1674
     40  C         -6.9500    9.1620   10.8540 C.2    81  ASP81       0.2266
     41  O         -8.1030    8.7710   10.6830 O.2    81  ASP81      -0.2867
     42  CB        -5.9540    7.5490    9.1870 C.3    81  ASP81       0.1410
     43  CG        -5.7470    6.4760   10.2420 C.2    81  ASP81       0.3668
     44  OD1       -5.5010    6.8040   11.4250 O.co2  81  ASP81      -0.2456
     45  OD2       -5.8220    5.2820    9.8700 O.co2  81  ASP81      -0.2456
     46  N        -11.4120    2.3320   14.5270 N.3   115  SER115     -0.1217
     47  CA       -10.9490    1.7880   13.2560 C.3   115  SER115      0.1889
     48  C         -9.9480    0.6570   13.4510 C.2   115  SER115      0.2288
     49  O         -9.8000   -0.1800   12.5700 O.2   115  SER115     -0.2866
     50  CB       -10.3680    2.8690   12.3510 C.3   115  SER115      0.2089
     51  OG        -9.1410    3.3740   12.8330 O.3   115  SER115     -0.2183
     52  N        -10.9530   -3.4750   12.2980 N.3   119  ASP119     -0.1239
     53  CA       -10.0640   -4.1810   11.3820 C.3   119  ASP119      0.1674
     54  C         -9.4570   -5.4120   12.0530 C.2   119  ASP119      0.2266
     55  O         -8.4490   -5.3350   12.7510 O.2   119  ASP119     -0.2867
     56  CB        -8.9620   -3.2520   10.9070 C.3   119  ASP119      0.1410
     57  CG        -8.0030   -3.9270    9.9710 C.2   119  ASP119      0.3668
     58  OD1       -8.3200   -5.0430    9.4930 O.co2 119  ASP119     -0.2456
     59  OD2       -6.9410   -3.3340    9.6900 O.co2 119  ASP119     -0.2456
     60  N         -5.3430   -6.6620   11.5850 N.3   122  ILE122     -0.1245
     61  CA        -4.1420   -5.9910   12.0810 C.3   122  ILE122      0.1561
     62  C         -4.0840   -6.1050   13.6000 C.2   122  ILE122      0.2260
     63  O         -4.9600   -5.6030   14.3110 O.2   122  ILE122     -0.2867
     64  CB        -4.0750   -4.5190   11.5960 C.3   122  ILE122      0.0252
     65  CG1       -3.8350   -4.4960   10.0760 C.3   122  ILE122      0.0019
     66  CG2       -2.9780   -3.7460   12.3280 C.3   122  ILE122      0.0019
     67  CD1       -3.7950   -3.1120    9.4480 C.3   122  ILE122      0.0001
     68  N          3.1790    2.7690    6.2110 N.3   221  GLY221     -0.1210
     69  CA         1.9610    2.6830    6.9960 C.3   221  GLY221      0.1956
     70  C          0.8140    3.5720    6.5440 C.2   221  GLY221      0.2613
     71  O         -0.2060    3.6470    7.2280 O.2   221  GLY221     -0.2717
     72  N          0.9680    4.2330    5.3950 N.am  222  THR222     -0.1938
     73  CA        -0.0940    5.0190    4.7730 C.3   222  THR222      0.2028
     74  C         -0.4190    4.3270    3.4470 C.2   222  THR222      0.2643
     75  O          0.4910    3.9390    2.7090 O.2   222  THR222     -0.2714
     76  CB         0.3760    6.4880    4.5130 C.3   222  THR222      0.1808
     77  OG1        0.5170    7.1750    5.7650 O.3   222  THR222     -0.2208
     78  CG2       -0.6060    7.2620    3.6550 C.3   222  THR222      0.0379
     79  N         -1.7100    4.1750    3.1540 N.am  223  THR223     -0.1936
     80  CA        -2.1520    3.4690    1.9590 C.3   223  THR223      0.2028
     81  C         -1.8290    4.2070    0.6620 C.2   223  THR223      0.2642
     82  O         -1.3620    3.6080   -0.3120 O.2   223  THR223     -0.2714
     83  CB        -3.6780    3.2300    2.0000 C.3   223  THR223      0.1808
     84  OG1       -4.0450    2.7230    3.2780 O.3   223  THR223     -0.2208
     85  CG2       -4.1230    2.2520    0.9180 C.3   223  THR223      0.0379
     86  N         -2.1610    5.4920    0.6340 N.am  224  LEU224     -0.1977
     87  CA        -2.1890    6.2690   -0.6020 C.3   224  LEU224      0.1596
     88  C         -0.9890    7.1840   -0.7940 C.2   224  LEU224      0.2287
     89  O         -0.1100    7.2870    0.0670 O.2   224  LEU224     -0.2864
     90  CB        -3.4910    7.0770   -0.6890 C.3   224  LEU224      0.0297
     91  CG        -4.7800    6.2660   -0.4890 C.3   224  LEU224      0.0022
     92  CD1       -5.9940    7.1460   -0.7070 C.3   224  LEU224      0.0001
     93  CD2       -4.8460    5.0370   -1.4130 C.3   224  LEU224      0.0001
     94  N         -0.0120   10.9480   -1.2590 N.3   226  TYR226     -0.1241
     95  CA        -0.5170   12.2880   -0.9810 C.3   226  TYR226      0.1605
     96  C          0.5110   13.3160   -1.4430 C.2   226  TYR226      0.2264
     97  O          1.6360   13.3550   -0.9310 O.2   226  TYR226     -0.2867
     98  CB        -0.7940   12.4750    0.5080 C.3   226  TYR226      0.0534
     99  CG        -1.9060   11.6020    1.0200 C.ar  226  TYR226     -0.0201
    100  CD1       -3.2170   12.0430    0.9900 C.ar  226  TYR226     -0.0009
    101  CD2       -1.6540   10.3250    1.5060 C.ar  226  TYR226     -0.0009
    102  CE1       -4.2530   11.2340    1.4320 C.ar  226  TYR226      0.0417
    103  CE2       -2.6720    9.5150    1.9530 C.ar  226  TYR226      0.0417
    104  CZ        -3.9700    9.9720    1.9220 C.ar  226  TYR226      0.1957
    105  OH        -4.9840    9.1570    2.3690 O.3   226  TYR226     -0.2866
@<TRIPOS>BOND
     1    96    95    1
     2    96    97    2
     3    93    91    1
     4    94    95    1
     5    95    98    1
     6    88    87    1
     7    88    89    2
     8    92    91    1
     9    90    87    1
    10    90    91    1
    11    87    86    1
    12    82    81    2
    13    12    11    2
    14    11    10    1
    15    98    99    1
    16    86    81   am
    17    81    80    1
    18    85    83    1
    19   100    99   ar
    20   100   102   ar
    21    99   101   ar
    22    16    14   ar
    23    17    18    1
    24    23    22   ar
    25   102   104   ar
    26   101   103   ar
    27    10    13    1
    28    10     9    1
    29   104   103   ar
    30   104   105    1
    31    24    22   ar
    32    80    83    1
    33    80    79    1
    34    14    13    1
    35    14    15   ar
    36    22    21    1
    37    83    84    1
    38    18    21    1
    39    18    19    1
    40     9     3   am
    41    75    74    2
    42    79    74   am
    43    19    25   am
    44    19    20    2
    45     1     2    1
    46    74    73    1
    47    25    26    1
    48    28    27    2
    49     3     4    2
    50     3     2    1
    51    78    76    1
    52    27    26    1
    53     2     5    1
    54    26    29    1
    55    76    73    1
    56    76    77    1
    57    73    72    1
    58     6     5    1
    59     6     8    1
    60    72    70   am
    61     5     7    1
    62    68    69    1
    63    70    69    1
    64    70    71    2
    65    36    35   ar
    66    37    35   ar
    67    35    34    1
    68    42    39    1
    69    42    43    1
    70    67    65    1
    71    58    57   ar
    72    59    57   ar
    73    39    38    1
    74    39    40    1
    75    45    43   ar
    76    57    56    1
    77    65    64    1
    78    31    34    1
    79    31    32    1
    80    31    30    1
    81    43    44   ar
    82    32    33    2
    83    41    40    2
    84    56    53    1
    85    53    54    1
    86    53    52    1
    87    60    61    1
    88    64    61    1
    89    64    66    1
    90    54    55    2
    91    61    62    1
    92    50    51    1
    93    50    47    1
    94    49    48    2
    95    47    48    1
    96    47    46    1
    97    62    63    2
