@<TRIPOS>MOLECULE
tmp/4yd7A01.pdb
 139 127 0 0 0
SMALL
GASTEIGER

@<TRIPOS>ATOM
      1  N          1.4190   -5.0020   11.2730 N.3    33  ASP33      -0.1239
      2  CA         1.5380   -4.0490   10.1790 C.3    33  ASP33       0.1674
      3  C          2.8770   -3.3260   10.3400 C.2    33  ASP33       0.2266
      4  O          3.0400   -2.5080   11.2490 O.2    33  ASP33      -0.2867
      5  CB         0.3490   -3.0980   10.2920 C.3    33  ASP33       0.1410
      6  CG         0.2420   -2.1080    9.1690 C.2    33  ASP33       0.3668
      7  OD1        1.1630   -2.0120    8.3390 O.co2  33  ASP33      -0.2456
      8  OD2       -0.7920   -1.3910    9.1570 O.co2  33  ASP33      -0.2456
      9  N          5.3780   -0.6580    9.7780 N.3    35  ASP35      -0.1239
     10  CA         5.0310    0.7280    9.5330 C.3    35  ASP35       0.1674
     11  C          6.2570    1.6330    9.5850 C.2    35  ASP35       0.2266
     12  O          6.6880    2.0320   10.6590 O.2    35  ASP35      -0.2867
     13  CB         4.0040    1.1660   10.5760 C.3    35  ASP35       0.1410
     14  CG         3.5210    2.5840   10.3870 C.2    35  ASP35       0.3668
     15  OD1        3.8440    3.1990    9.3490 O.co2  35  ASP35      -0.2456
     16  OD2        2.7930    3.0730   11.2840 O.co2  35  ASP35      -0.2456
     17  N          6.3020    4.6120    8.9830 N.3    37  GLY37      -0.1225
     18  CA         5.8430    5.9220    9.3980 C.3    37  GLY37       0.1811
     19  C          5.5580    6.0800   10.8860 C.2    37  GLY37       0.2280
     20  O          5.0140    7.0940   11.2940 O.2    37  GLY37      -0.2866
     21  N         -2.5030    8.0740   14.7270 N.3    79  TYR79      -0.1227
     22  CA        -2.0100    7.9930   13.3570 C.3    79  TYR79       0.1736
     23  C         -2.7560    8.9490   12.4430 C.2    79  TYR79       0.2596
     24  O         -3.7550    9.5500   12.8400 O.2    79  TYR79      -0.2718
     25  CB        -2.1440    6.5560   12.8620 C.3    79  TYR79       0.0548
     26  CG        -1.3940    5.5620   13.7210 C.ar   79  TYR79      -0.0200
     27  CD1       -2.0430    4.8160   14.6990 C.ar   79  TYR79      -0.0009
     28  CD2       -0.0300    5.3720   13.5530 C.ar   79  TYR79      -0.0009
     29  CE1       -1.3440    3.9030   15.4950 C.ar   79  TYR79       0.0417
     30  CE2        0.6790    4.4680   14.3450 C.ar   79  TYR79       0.0417
     31  CZ         0.0070    3.7310   15.3090 C.ar   79  TYR79       0.1957
     32  OH         0.6890    2.8250   16.0960 O.3    79  TYR79      -0.2866
     33  N         -2.2520    9.0860   11.2170 N.am   80  GLY80      -0.1942
     34  CA        -2.7700   10.0450   10.2530 C.3    80  GLY80       0.2014
     35  C         -4.2110    9.8220    9.8330 C.2    80  GLY80       0.2638
     36  O         -4.8610   10.7430    9.3320 O.2    80  GLY80      -0.2714
     37  N         -4.7080    8.6020   10.0150 N.am   81  ASP81      -0.1971
     38  CA        -6.0970    8.2890    9.7050 C.3    81  ASP81       0.1709
     39  C         -7.0190    8.5610   10.8970 C.2    81  ASP81       0.2293
     40  O         -8.2040    8.2390   10.8500 O.2    81  ASP81      -0.2864
     41  CB        -6.2370    6.8290    9.2500 C.3    81  ASP81       0.1436
     42  CG        -5.9140    5.8320   10.3540 C.2    81  ASP81       0.3671
     43  OD1       -5.3530    6.2440   11.3890 O.co2  81  ASP81      -0.2456
     44  OD2       -6.2170    4.6270   10.1790 O.co2  81  ASP81      -0.2456
     45  N         -6.8370    7.2040   13.8210 N.3    83  SER83      -0.1217
     46  CA        -6.8930    6.0650   14.7390 C.3    83  SER83       0.1889
     47  C         -5.8770    6.2320   15.8760 C.2    83  SER83       0.2288
     48  O         -4.9520    7.0400   15.7800 O.2    83  SER83      -0.2866
     49  CB        -6.6490    4.7550   13.9950 C.3    83  SER83       0.2089
     50  OG        -5.3190    4.6600   13.5260 O.3    83  SER83      -0.2183
     51  N         -9.1730   -0.0550   14.5650 N.3   116  PHE116     -0.1241
     52  CA        -8.3400   -1.2180   14.8610 C.3   116  PHE116      0.1605
     53  C         -9.2330   -2.3990   15.2390 C.2   116  PHE116      0.2264
     54  O         -9.0610   -3.5070   14.7330 O.2   116  PHE116     -0.2867
     55  CB        -7.3100   -0.8990   15.9520 C.3   116  PHE116      0.0534
     56  CG        -6.1820   -0.0210   15.4740 C.ar  116  PHE116     -0.0203
     57  CD1       -5.2900   -0.4890   14.5220 C.ar  116  PHE116     -0.0042
     58  CD2       -6.0120    1.2710   15.9680 C.ar  116  PHE116     -0.0042
     59  CE1       -4.2500    0.2960   14.0740 C.ar  116  PHE116     -0.0003
     60  CE2       -4.9550    2.0690   15.5170 C.ar  116  PHE116     -0.0003
     61  CZ        -4.0890    1.5850   14.5650 C.ar  116  PHE116     -0.0000
     62  N         -5.3050   -7.3530   11.5390 N.3   122  ILE122     -0.1245
     63  CA        -4.1030   -6.7010   12.0520 C.3   122  ILE122      0.1561
     64  C         -4.0560   -6.8110   13.5660 C.2   122  ILE122      0.2260
     65  O         -4.9460   -6.3020   14.2600 O.2   122  ILE122     -0.2867
     66  CB        -4.0280   -5.2310   11.5810 C.3   122  ILE122      0.0252
     67  CG1       -3.7540   -5.1970   10.0720 C.3   122  ILE122      0.0019
     68  CG2       -2.9630   -4.4600   12.3520 C.3   122  ILE122      0.0019
     69  CD1       -3.7530   -3.8180    9.4650 C.3   122  ILE122      0.0001
     70  N          1.0610   -3.2190   15.3770 N.3   125  LEU125     -0.1245
     71  CA         1.9820   -2.5110   14.4980 C.3   125  LEU125      0.1561
     72  C          3.4130   -2.7720   14.9240 C.2   125  LEU125      0.2260
     73  O          3.6920   -2.9420   16.1160 O.2   125  LEU125     -0.2867
     74  CB         1.7260   -0.9960   14.5370 C.3   125  LEU125      0.0270
     75  CG         0.7590   -0.4630   13.4740 C.3   125  LEU125      0.0019
     76  CD1       -0.6290   -1.0670   13.6600 C.3   125  LEU125      0.0001
     77  CD2        0.7100    1.0290   13.5340 C.3   125  LEU125      0.0001
     78  N         10.9970   10.6880   10.4900 N.3   194  PHE194     -0.1241
     79  CA        10.5290    9.8620    9.3790 C.3   194  PHE194      0.1605
     80  C         11.6500    9.5880    8.3890 C.2   194  PHE194      0.2264
     81  O         12.6900   10.2420    8.4040 O.2   194  PHE194     -0.2867
     82  CB         9.4170   10.5650    8.6040 C.3   194  PHE194      0.0534
     83  CG         8.1900   10.8730    9.4100 C.ar  194  PHE194     -0.0203
     84  CD1        7.7660   12.1780    9.5640 C.ar  194  PHE194     -0.0042
     85  CD2        7.4400    9.8590    9.9730 C.ar  194  PHE194     -0.0042
     86  CE1        6.6230   12.4660   10.2770 C.ar  194  PHE194     -0.0003
     87  CE2        6.3030   10.1450   10.7000 C.ar  194  PHE194     -0.0003
     88  CZ         5.8970   11.4510   10.8550 C.ar  194  PHE194     -0.0000
     89  N          7.5290   11.4310    2.7900 N.3   217  ILE217     -0.1245
     90  CA         8.0200   10.3260    3.5990 C.3   217  ILE217      0.1561
     91  C          7.7130    8.9820    2.9550 C.2   217  ILE217      0.2260
     92  O          6.6850    8.8140    2.3170 O.2   217  ILE217     -0.2867
     93  CB         7.4880   10.3800    5.0480 C.3   217  ILE217      0.0252
     94  CG1        5.9700   10.1640    5.1020 C.3   217  ILE217      0.0019
     95  CG2        7.8950   11.7090    5.6920 C.3   217  ILE217      0.0019
     96  CD1        5.4350    9.9520    6.4970 C.3   217  ILE217      0.0001
     97  N          6.4320    5.6600    3.5980 N.3   219  ASP219     -0.1239
     98  CA         5.5610    5.2190    4.6880 C.3   219  ASP219      0.1674
     99  C          4.7770    3.9590    4.3310 C.2   219  ASP219      0.2266
    100  O          3.7210    4.0270    3.6940 O.2   219  ASP219     -0.2867
    101  CB         4.6090    6.3480    5.0610 C.3   219  ASP219      0.1410
    102  CG         3.7550    6.0260    6.2520 C.2   219  ASP219      0.3668
    103  OD1        2.9420    6.9110    6.6200 O.co2 219  ASP219     -0.2456
    104  OD2        3.8960    4.9130    6.8220 O.co2 219  ASP219     -0.2456
    105  N          3.0760    2.2110    6.2230 N.3   221  GLY221     -0.1210
    106  CA         1.8570    2.1320    7.0050 C.3   221  GLY221      0.1956
    107  C          0.7040    2.9710    6.4920 C.2   221  GLY221      0.2612
    108  O         -0.3900    2.9410    7.0690 O.2   221  GLY221     -0.2717
    109  N          0.9320    3.6920    5.3950 N.am  222  THR222     -0.1952
    110  CA        -0.1150    4.4680    4.7430 C.3   222  THR222      0.1897
    111  C         -0.4400    3.7910    3.4110 C.2   222  THR222      0.2313
    112  O          0.4570    3.4450    2.6610 O.2   222  THR222     -0.2863
    113  CB         0.3350    5.9370    4.5190 C.3   222  THR222      0.1794
    114  OG1        0.4580    6.6010    5.7880 O.3   222  THR222     -0.2208
    115  CG2       -0.6660    6.6960    3.6650 C.3   222  THR222      0.0378
    116  N         -2.7460   17.6300    5.2610 N.3   300  ILE300     -0.1245
    117  CA        -1.9220   16.6910    6.0420 C.3   300  ILE300      0.1561
    118  C         -0.6700   17.3590    6.5890 C.2   300  ILE300      0.2260
    119  O         -0.2330   17.0410    7.6930 O.2   300  ILE300     -0.2867
    120  CB        -1.4460   15.4590    5.2110 C.3   300  ILE300      0.0252
    121  CG1       -2.6350   14.6620    4.6870 C.3   300  ILE300      0.0019
    122  CG2       -0.5390   14.5430    6.0640 C.3   300  ILE300      0.0019
    123  CD1       -2.2480   13.4630    3.8060 C.3   300  ILE300      0.0001
    124  N          2.2760   17.0940    5.1250 N.3   302  ILE302     -0.1245
    125  CA         3.4170   16.3890    4.5740 C.3   302  ILE302      0.1561
    126  C          2.9510   15.5130    3.4110 C.2   302  ILE302      0.2260
    127  O          1.8220   15.0200    3.4080 O.2   302  ILE302     -0.2867
    128  CB         4.1350   15.5600    5.6860 C.3   302  ILE302      0.0252
    129  CG1        5.5390   15.1340    5.2570 C.3   302  ILE302      0.0019
    130  CG2        3.3080   14.3660    6.0930 C.3   302  ILE302      0.0019
    131  CD1        6.4780   14.9110    6.4410 C.3   302  ILE302      0.0001
    132  N          3.1310   11.9950    1.3890 N.3   304  ILE304     -0.1245
    133  CA         3.3320   10.6210    1.8510 C.3   304  ILE304      0.1561
    134  C          3.4190    9.6590    0.6770 C.2   304  ILE304      0.2260
    135  O          2.4340    9.4350   -0.0440 O.2   304  ILE304     -0.2867
    136  CB         2.2060   10.1490    2.7880 C.3   304  ILE304      0.0252
    137  CG1        2.0160   11.1300    3.9410 C.3   304  ILE304      0.0019
    138  CG2        2.5290    8.7400    3.3100 C.3   304  ILE304      0.0019
    139  CD1        0.8380   10.7900    4.8350 C.3   304  ILE304      0.0001
@<TRIPOS>BOND
     1   135   134    2
     2   134   133    1
     3   132   133    1
     4   133   136    1
     5    92    91    2
     6   112   111    2
     7   136   138    1
     8   136   137    1
     9    89    90    1
    10    91    90    1
    11   127   126    2
    12   111   110    1
    13   126   125    1
    14    97    98    1
    15    90    93    1
    16   115   113    1
    17   100    99    2
    18   123   121    1
    19   137   139    1
    20    99    98    1
    21   113   110    1
    22   113   114    1
    23   125   124    1
    24   125   128    1
    25   121   120    1
    26    98   101    1
    27   110   109    1
    28    93    94    1
    29    93    95    1
    30   101   102    1
    31    94    96    1
    32   120   117    1
    33   120   122    1
    34   129   128    1
    35   129   131    1
    36   116   117    1
    37   109   107   am
    38   128   130    1
    39   117   118    1
    40   105   106    1
    41   102   103   ar
    42   102   104   ar
    43   107   106    1
    44   107   108    2
    45   118   119    2
    46     7     6   ar
    47    80    81    2
    48    80    79    1
    49    82    79    1
    50    82    83    1
    51    17    18    1
    52     8     6   ar
    53     6     5    1
    54    41    38    1
    55    41    42    1
    56    36    35    2
    57    15    14   ar
    58    79    78    1
    59    18    19    1
    60    83    84   ar
    61    83    85   ar
    62    69    67    1
    63    10    11    1
    64    10     9    1
    65    10    13    1
    66    84    86   ar
    67    11    12    2
    68    38    37    1
    69    38    39    1
    70    35    37   am
    71    35    34    1
    72    85    87   ar
    73    67    66    1
    74    44    42   ar
    75     2     5    1
    76     2     3    1
    77     2     1    1
    78    34    33    1
    79    86    88   ar
    80     3     4    2
    81    42    43   ar
    82    14    13    1
    83    14    16   ar
    84    87    88   ar
    85    40    39    2
    86    19    20    2
    87    33    23   am
    88    62    63    1
    89    66    63    1
    90    66    68    1
    91    63    64    1
    92    23    24    2
    93    23    22    1
    94    25    22    1
    95    25    26    1
    96    22    21    1
    97    75    77    1
    98    75    76    1
    99    75    74    1
   100    50    49    1
   101    28    26   ar
   102    28    30   ar
   103    64    65    2
   104    26    27   ar
   105    45    46    1
   106    49    46    1
   107    59    57   ar
   108    59    61   ar
   109    30    31   ar
   110    71    74    1
   111    71    72    1
   112    71    70    1
   113    57    56   ar
   114    61    60   ar
   115    51    52    1
   116    27    29   ar
   117    54    53    2
   118    46    47    1
   119    52    53    1
   120    52    55    1
   121    72    73    2
   122    31    29   ar
   123    31    32    1
   124    56    55    1
   125    56    58   ar
   126    60    58   ar
   127    48    47    2
