@<TRIPOS>MOLECULE
tmp/4yddC02.pdb
 130 130 0 0 0
SMALL
GASTEIGER

@<TRIPOS>ATOM
      1  N        241.3910  148.4510  213.6480 N.3   133  PRO133     -0.2116
      2  CA       242.3410  147.9930  212.6140 C.3   133  PRO133      0.1372
      3  C        241.9500  146.6860  211.9470 C.2   133  PRO133      0.2244
      4  O        242.2100  146.5310  210.7450 O.2   133  PRO133     -0.2868
      5  CB       243.6690  147.8720  213.3810 C.3   133  PRO133      0.0268
      6  CG       243.2870  147.8310  214.8620 C.3   133  PRO133      0.0207
      7  CD       242.0320  148.6710  214.9530 C.3   133  PRO133      0.0892
      8  N        240.0850  153.2850  220.6380 N.3   157  PHE157     -0.1241
      9  CA       238.7200  153.0610  220.1650 C.3   157  PHE157      0.1605
     10  C        237.9690  152.0430  220.9980 C.2   157  PHE157      0.2264
     11  O        236.7870  152.2120  221.2680 O.2   157  PHE157     -0.2867
     12  CB       238.7280  152.6080  218.7040 C.3   157  PHE157      0.0534
     13  CG       239.2190  151.1920  218.5200 C.ar  157  PHE157     -0.0203
     14  CD1      238.3480  150.0960  218.6710 C.ar  157  PHE157     -0.0042
     15  CD2      240.5510  150.9510  218.2220 C.ar  157  PHE157     -0.0042
     16  CE1      238.8090  148.7660  218.5340 C.ar  157  PHE157     -0.0003
     17  CE2      241.0170  149.6400  218.0710 C.ar  157  PHE157     -0.0003
     18  CZ       240.1360  148.5420  218.2340 C.ar  157  PHE157     -0.0000
     19  N        243.8980  142.3070  227.3510 N.3   175  GLN175     -0.1245
     20  CA       243.0790  143.2680  226.6160 C.3   175  GLN175      0.1566
     21  C        241.6720  142.7290  226.4420 C.2   175  GLN175      0.2260
     22  O        240.6780  143.4400  226.6440 O.2   175  GLN175     -0.2867
     23  CB       243.6880  143.5420  225.2410 C.3   175  GLN175      0.0367
     24  CG       242.7130  144.2200  224.2790 C.3   175  GLN175      0.0905
     25  CD       243.2990  144.4400  222.8950 C.2   175  GLN175      0.2608
     26  OE1      244.0700  143.6250  222.4030 O.2   175  GLN175     -0.2717
     27  NE2      242.9170  145.5340  222.2530 N.am  175  GLN175     -0.0878
     28  N        251.1400  142.6520  223.3530 N.3   326  GLY326     -0.1210
     29  CA       250.2700  143.8180  223.4830 C.3   326  GLY326      0.1956
     30  C        248.9880  143.5300  224.2420 C.2   326  GLY326      0.2611
     31  O        248.4970  144.3840  224.9830 O.2   326  GLY326     -0.2717
     32  N        248.4090  142.3530  224.0410 N.am  327  PHE327     -0.1976
     33  CA       247.1500  142.0000  224.6750 C.3   327  PHE327      0.1639
     34  C        247.3080  141.3240  226.0450 C.2   327  PHE327      0.2290
     35  O        246.3060  140.8330  226.5820 O.2   327  PHE327     -0.2864
     36  CB       246.3180  141.1010  223.7500 C.3   327  PHE327      0.0560
     37  CG       247.0380  139.8770  223.2330 C.ar  327  PHE327     -0.0200
     38  CD1      247.1830  138.7470  224.0290 C.ar  327  PHE327     -0.0042
     39  CD2      247.4980  139.8260  221.9280 C.ar  327  PHE327     -0.0042
     40  CE1      247.8110  137.5880  223.5430 C.ar  327  PHE327     -0.0003
     41  CE2      248.1220  138.6880  221.4350 C.ar  327  PHE327     -0.0003
     42  CZ       248.2810  137.5590  222.2520 C.ar  327  PHE327     -0.0000
     43  N        237.1450  144.3400  217.0720 N.3   454  TRP454     -0.1241
     44  CA       238.2940  144.8790  217.7890 C.3   454  TRP454      0.1605
     45  C        239.5590  144.0370  217.6700 C.2   454  TRP454      0.2264
     46  O        240.6490  144.5720  217.8940 O.2   454  TRP454     -0.2867
     47  CB       237.9530  145.0230  219.2720 C.3   454  TRP454      0.0550
     48  CG       237.7350  143.7000  219.9010 C.ar  454  TRP454      0.0003
     49  CD1      236.5650  143.0030  219.9530 C.ar  454  TRP454      0.0946
     50  CD2      238.7140  142.8990  220.5580 C.ar  454  TRP454      0.0152
     51  NE1      236.7520  141.8110  220.5940 N.ar  454  TRP454     -0.2442
     52  CE2      238.0650  141.7220  220.9860 C.ar  454  TRP454      0.0810
     53  CE3      240.0770  143.0620  220.8290 C.ar  454  TRP454      0.0012
     54  CZ2      238.7300  140.7100  221.6670 C.ar  454  TRP454      0.0191
     55  CZ3      240.7390  142.0530  221.5190 C.ar  454  TRP454      0.0001
     56  CH2      240.0620  140.8930  221.9250 C.ar  454  TRP454      0.0015
     57  N        242.3930  141.8090  215.8160 N.3   456  PRO456     -0.2116
     58  CA       243.0600  141.2820  214.6230 C.3   456  PRO456      0.1372
     59  C        244.0820  140.2210  215.0100 C.2   456  PRO456      0.2244
     60  O        245.1320  140.5700  215.5540 O.2   456  PRO456     -0.2868
     61  CB       243.7480  142.5160  214.0550 C.3   456  PRO456      0.0268
     62  CG       244.0810  143.3560  215.3130 C.3   456  PRO456      0.0207
     63  CD       243.2580  142.8010  216.4740 C.3   456  PRO456      0.0892
     64  N        248.0160  140.6610  215.0500 N.3   459  VAL459     -0.1245
     65  CA       248.2940  142.0130  215.5290 C.3   459  VAL459      0.1561
     66  C        249.7720  142.3650  215.3780 C.2   459  VAL459      0.2260
     67  O        250.1260  143.5380  215.1480 O.2   459  VAL459     -0.2867
     68  CB       247.7860  142.1860  216.9810 C.3   459  VAL459      0.0252
     69  CG1      248.4390  141.2150  217.9150 C.3   459  VAL459      0.0019
     70  CG2      247.9890  143.6160  217.4640 C.3   459  VAL459      0.0019
     71  N        250.2350  143.9080  212.0210 N.3   462  LEU462     -0.1245
     72  CA       249.6150  145.2230  211.9600 C.3   462  LEU462      0.1561
     73  C        250.5250  146.2730  212.5710 C.2   462  LEU462      0.2260
     74  O        250.7090  147.3590  212.0100 O.2   462  LEU462     -0.2867
     75  CB       248.2660  145.1890  212.6790 C.3   462  LEU462      0.0270
     76  CG       247.6200  146.5680  212.8760 C.3   462  LEU462      0.0019
     77  CD1      247.0580  147.0990  211.5400 C.3   462  LEU462      0.0001
     78  CD2      246.5590  146.4990  213.9450 C.3   462  LEU462      0.0001
     79  N        245.6310  133.6110  220.1410 N.3   691  TRP691     -0.1241
     80  CA       246.1510  134.4990  221.1740 C.3   691  TRP691      0.1605
     81  C        246.3960  133.8080  222.5080 C.2   691  TRP691      0.2264
     82  O        247.5310  133.7880  222.9740 O.2   691  TRP691     -0.2867
     83  CB       245.1900  135.6700  221.3910 C.3   691  TRP691      0.0550
     84  CG       245.3650  136.7720  220.4310 C.ar  691  TRP691      0.0003
     85  CD1      246.0420  136.7450  219.2430 C.ar  691  TRP691      0.0946
     86  CD2      244.8560  138.0980  220.5780 C.ar  691  TRP691      0.0152
     87  NE1      245.9790  137.9830  218.6410 N.ar  691  TRP691     -0.2442
     88  CE2      245.2630  138.8320  219.4460 C.ar  691  TRP691      0.0810
     89  CE3      244.1010  138.7370  221.5620 C.ar  691  TRP691      0.0012
     90  CZ2      244.9310  140.1820  219.2680 C.ar  691  TRP691      0.0191
     91  CZ3      243.7690  140.0730  221.3880 C.ar  691  TRP691      0.0001
     92  CH2      244.1880  140.7800  220.2460 C.ar  691  TRP691      0.0015
     93  N        247.7240  151.3590  228.2690 N.3   864  ARG864     -0.1231
     94  CA       248.2710  150.9280  227.0250 C.3   864  ARG864      0.1679
     95  C        247.1000  151.0610  226.0680 C.2   864  ARG864      0.2434
     96  O        245.9750  150.6830  226.4270 O.2   864  ARG864     -0.2733
     97  CB       248.7980  149.4920  227.0430 C.3   864  ARG864      0.0321
     98  CG       249.1420  148.9460  225.6880 C.3   864  ARG864      0.0489
     99  CD       249.5280  147.4770  225.7510 C.3   864  ARG864      0.2205
    100  NE       250.7570  147.2580  226.5110 N.pl3 864  ARG864     -0.0865
    101  CZ       251.1150  146.0720  227.0190 C.cat 864  ARG864      0.5346
    102  NH1      250.3640  145.0060  226.8400 N.pl3 864  ARG864      0.1354
    103  NH2      252.2340  145.9490  227.7010 N.pl3 864  ARG864      0.1354
    104  N        247.3230  151.5920  224.8720 N.am  865  PRO865     -0.2718
    105  CA       246.1960  151.9270  223.9880 C.3   865  PRO865      0.1535
    106  C        245.3300  150.7200  223.6790 C.2   865  PRO865      0.2599
    107  O        245.7910  149.7230  223.1250 O.2   865  PRO865     -0.2715
    108  CB       246.8890  152.4680  222.7270 C.3   865  PRO865      0.0310
    109  CG       248.3100  151.9340  222.8210 C.3   865  PRO865      0.0237
    110  CD       248.6110  151.9780  224.2750 C.3   865  PRO865      0.0939
    111  N        244.0360  150.8410  224.0040 N.am  866  ASN866     -0.1959
    112  CA       243.0480  149.7940  223.7550 C.3   866  ASN866      0.1819
    113  C        243.2500  148.5780  224.6560 C.2   866  ASN866      0.2621
    114  O        242.5770  147.5470  224.4590 O.2   866  ASN866     -0.2715
    115  CB       243.0450  149.3710  222.2790 C.3   866  ASN866      0.1195
    116  CG       242.6980  150.5260  221.3310 C.2   866  ASN866      0.2630
    117  OD1      241.6510  151.1620  221.4550 O.2   866  ASN866     -0.2716
    118  ND2      243.6100  150.8250  220.4130 N.am  866  ASN866     -0.0877
    119  N        244.1390  148.6640  225.6470 N.am  867  TYR867     -0.1974
    120  CA       244.2980  147.5930  226.6400 C.3   867  TYR867      0.1639
    121  C        243.6490  147.9530  227.9740 C.2   867  TYR867      0.2290
    122  O        242.9790  147.1010  228.5850 O.2   867  TYR867     -0.2864
    123  CB       245.7840  147.2550  226.8600 C.3   867  TYR867      0.0560
    124  CG       246.0590  146.3600  228.0800 C.ar  867  TYR867     -0.0198
    125  CD1      245.8990  144.9760  228.0180 C.ar  867  TYR867     -0.0009
    126  CD2      246.4680  146.9090  229.2910 C.ar  867  TYR867     -0.0009
    127  CE1      246.1360  144.1540  229.1650 C.ar  867  TYR867      0.0417
    128  CE2      246.7060  146.1180  230.4170 C.ar  867  TYR867      0.0417
    129  CZ       246.5370  144.7500  230.3510 C.ar  867  TYR867      0.1957
    130  OH       246.7760  144.0050  231.4950 O.3   867  TYR867     -0.2866
@<TRIPOS>BOND
     1     4     3    2
     2    77    76    1
     3     3     2    1
     4    72    71    1
     5    72    73    1
     6    72    75    1
     7    74    73    2
     8     2     5    1
     9     2     1    1
    10    75    76    1
    11    76    78    1
    12     5     6    1
    13     1     7    1
    14    61    58    1
    15    61    62    1
    16    58    59    1
    17    58    57    1
    18     6     7    1
    19    59    60    2
    20    64    65    1
    21    67    66    2
    22    62    63    1
    23    66    65    1
    24    65    68    1
    25    57    63    1
    26    68    70    1
    27    68    69    1
    28    43    44    1
    29    45    44    1
    30    45    46    2
    31    44    47    1
    32    17    15   ar
    33    17    18   ar
    34    15    13   ar
    35    18    16   ar
    36    13    14   ar
    37    13    12    1
    38    16    14   ar
    39    87    85   ar
    40    87    88   ar
    41    12     9    1
    42    85    84   ar
    43    90    88   ar
    44    90    92   ar
    45    47    48    1
    46    88    86   ar
    47    48    49   ar
    48    48    50   ar
    49    49    51   ar
    50    79    80    1
    51     9     8    1
    52     9    10    1
    53    92    91   ar
    54   118   116   am
    55    84    86   ar
    56    84    83    1
    57    50    53   ar
    58    50    52   ar
    59    86    89   ar
    60    51    52   ar
    61    53    55   ar
    62    52    54   ar
    63    10    11    2
    64    80    83    1
    65    80    81    1
    66   116   117    2
    67   116   115    1
    68    91    89   ar
    69    41    39   ar
    70    41    42   ar
    71    55    56   ar
    72    54    56   ar
    73    39    37   ar
    74    42    40   ar
    75    27    25   am
    76   115   112    1
    77    26    25    2
    78    81    82    2
    79   108   109    1
    80   108   105    1
    81   109   110    1
    82    25    24    1
    83   107   106    2
    84    37    36    1
    85    37    38   ar
    86    28    29    1
    87    29    30    1
    88    40    38   ar
    89   106   105    1
    90   106   111   am
    91    36    33    1
    92   112   111    1
    93   112   113    1
    94   105   104    1
    95    32    30   am
    96    32    33    1
    97    30    31    2
    98   110   104    1
    99    24    23    1
   100   114   113    2
   101   113   119   am
   102    33    34    1
   103   104    95   am
   104    23    20    1
   105   119   120    1
   106    98    99    1
   107    98    97    1
   108    99   100    1
   109    34    35    2
   110    95    96    2
   111    95    94    1
   112    21    20    1
   113    21    22    2
   114   100   101    2
   115    20    19    1
   116   120   123    1
   117   120   121    1
   118   102   101    1
   119   123   124    1
   120   101   103    1
   121    94    97    1
   122    94    93    1
   123   121   122    2
   124   125   124   ar
   125   125   127   ar
   126   124   126   ar
   127   127   129   ar
   128   126   128   ar
   129   129   128   ar
   130   129   130    1
