@<TRIPOS>MOLECULE
tmp/4ydfA00.pdb
 124 117 0 0 0
SMALL
GASTEIGER

@<TRIPOS>ATOM
      1  N         49.5320   25.5860   18.3890 N.3    10  ARG10      -0.1245
      2  CA        50.9270   26.0180   18.3750 C.3    10  ARG10       0.1563
      3  C         51.7210   25.4020   17.2260 C.2    10  ARG10       0.2260
      4  O         51.5530   24.2240   16.9110 O.2    10  ARG10      -0.2867
      5  CB        51.6020   25.7000   19.7120 C.3    10  ARG10       0.0307
      6  CG        51.0880   26.5340   20.8730 C.3    10  ARG10       0.0489
      7  CD        51.7540   26.1480   22.1820 C.3    10  ARG10       0.2205
      8  NE        51.2510   26.9460   23.2980 N.pl3  10  ARG10      -0.0865
      9  CZ        50.1420   26.6670   23.9750 C.cat  10  ARG10       0.5346
     10  NH1       49.7590   27.4480   24.9760 N.pl3  10  ARG10       0.1354
     11  NH2       49.4130   25.6070   23.6510 N.pl3  10  ARG10       0.1354
     12  N         58.5910   23.8310   19.9200 N.3    30  LEU30      -0.1245
     13  CA        57.8270   24.9890   19.4740 C.3    30  LEU30       0.1561
     14  C         58.6700   25.8820   18.5730 C.2    30  LEU30       0.2260
     15  O         59.7700   26.2870   18.9430 O.2    30  LEU30      -0.2867
     16  CB        57.3340   25.7930   20.6790 C.3    30  LEU30       0.0270
     17  CG        56.6530   27.1300   20.3770 C.3    30  LEU30       0.0019
     18  CD1       55.3550   26.9160   19.6120 C.3    30  LEU30       0.0001
     19  CD2       56.4040   27.9110   21.6580 C.3    30  LEU30       0.0001
     20  N         59.5760   29.2580   17.2990 N.3    32  ASP32      -0.1239
     21  CA        59.4200   30.5500   17.9530 C.3    32  ASP32       0.1674
     22  C         60.2740   31.6350   17.3060 C.2    32  ASP32       0.2266
     23  O         61.5010   31.6070   17.3960 O.2    32  ASP32      -0.2867
     24  CB        59.7950   30.4140   19.4270 C.3    32  ASP32       0.1410
     25  CG        59.1650   31.4790   20.2920 C.2    32  ASP32       0.3668
     26  OD1       59.0260   32.6300   19.8290 O.co2  32  ASP32      -0.2456
     27  OD2       58.8050   31.1560   21.4420 O.co2  32  ASP32      -0.2456
     28  N         60.0610   34.7000   18.2490 N.3    34  GLY34      -0.1210
     29  CA        60.3070   35.6630   19.3040 C.3    34  GLY34       0.1956
     30  C         61.5510   35.3290   20.1010 C.2    34  GLY34       0.2612
     31  O         62.1480   36.1990   20.7360 O.2    34  GLY34      -0.2717
     32  N         61.9450   34.0610   20.0640 N.am   35  ALA35      -0.1965
     33  CA        63.1220   33.6000   20.7880 C.3    35  ALA35       0.1728
     34  C         64.3990   33.8630   19.9960 C.2    35  ALA35       0.2616
     35  O         64.4570   33.6080   18.7940 O.2    35  ALA35      -0.2715
     36  CB        62.9960   32.1190   21.1120 C.3    35  ALA35       0.0334
     37  N         65.4180   34.3790   20.6770 N.am   36  ASP36      -0.1957
     38  CA        66.7180   34.5990   20.0550 C.3    36  ASP36       0.1840
     39  C         67.4930   33.2900   19.9800 C.2    36  ASP36       0.2621
     40  O         68.0090   32.9190   18.9250 O.2    36  ASP36      -0.2715
     41  CB        67.5290   35.6310   20.8430 C.3    36  ASP36       0.1450
     42  CG        66.9220   37.0180   20.7870 C.2    36  ASP36       0.3671
     43  OD1       66.2110   37.3200   19.8070 O.co2  36  ASP36      -0.2456
     44  OD2       67.1620   37.8100   21.7230 O.co2  36  ASP36      -0.2456
     45  N         67.5650   32.5940   21.1090 N.am   37  MET37      -0.1977
     46  CA        68.3330   31.3610   21.2100 C.3    37  MET37       0.1605
     47  C         67.4040   30.1560   21.3200 C.2    37  MET37       0.2287
     48  O         66.2520   30.2820   21.7320 O.2    37  MET37      -0.2864
     49  CB        69.2580   31.4260   22.4270 C.3    37  MET37       0.0413
     50  CG        70.5810   30.7010   22.2560 C.3    37  MET37       0.0598
     51  SD        71.6520   30.9150   23.6910 S.3    37  MET37      -0.1393
     52  CE        71.6410   32.6980   23.8590 C.3    37  MET37       0.0692
     53  N         66.0060   26.7650   22.9430 N.3    39  VAL39      -0.1245
     54  CA        65.9210   26.1630   24.2680 C.3    39  VAL39       0.1561
     55  C         65.7760   24.6460   24.1750 C.2    39  VAL39       0.2260
     56  O         64.8930   24.1370   23.4860 O.2    39  VAL39      -0.2867
     57  CB        64.7460   26.7420   25.0780 C.3    39  VAL39       0.0252
     58  CG1       64.6120   26.0230   26.4140 C.3    39  VAL39       0.0019
     59  CG2       64.9340   28.2370   25.2860 C.3    39  VAL39       0.0019
     60  N         68.1660   34.7320   31.9630 N.3    56  VAL56      -0.1231
     61  CA        67.3140   34.9890   30.8040 C.3    56  VAL56       0.1692
     62  C         66.0320   35.7250   31.1940 C.2    56  VAL56       0.2592
     63  O         65.4060   35.4060   32.2050 O.2    56  VAL56      -0.2718
     64  CB        66.9420   33.6730   30.0820 C.3    56  VAL56       0.0266
     65  CG1       66.1340   33.9560   28.8240 C.3    56  VAL56       0.0020
     66  CG2       68.1940   32.8780   29.7430 C.3    56  VAL56       0.0020
     67  N         65.6450   36.7100   30.3870 N.am   57  LEU57      -0.1966
     68  CA        64.4330   37.4860   30.6300 C.3    57  LEU57       0.1728
     69  C         63.2510   36.9690   29.8070 C.2    57  LEU57       0.2617
     70  O         63.4040   36.6280   28.6330 O.2    57  LEU57      -0.2715
     71  CB        64.6830   38.9660   30.3230 C.3    57  LEU57       0.0311
     72  CG        63.5070   39.9340   30.4790 C.3    57  LEU57       0.0022
     73  CD1       62.9380   39.8740   31.8870 C.3    57  LEU57       0.0001
     74  CD2       63.9310   41.3530   30.1300 C.3    57  LEU57       0.0001
     75  N         62.0770   36.9130   30.4310 N.am   58  GLY58      -0.1940
     76  CA        60.8640   36.4580   29.7700 C.3    58  GLY58       0.2014
     77  C         59.6130   37.0400   30.4040 C.2    58  GLY58       0.2638
     78  O         59.6760   38.0870   31.0480 O.2    58  GLY58      -0.2714
     79  N         58.4790   36.3620   30.2280 N.am   59  ALA59      -0.1977
     80  CA        57.1960   36.8460   30.7430 C.3    59  ALA59       0.1597
     81  C         57.2350   37.1130   32.2410 C.2    59  ALA59       0.2287
     82  O         57.1660   38.2620   32.6750 O.2    59  ALA59      -0.2864
     83  CB        56.0800   35.8680   30.4180 C.3    59  ALA59       0.0319
     84  N         67.2590   28.7330   33.5730 N.3    67  PHE67      -0.1241
     85  CA        68.0010   28.4270   32.3530 C.3    67  PHE67       0.1605
     86  C         69.5080   28.3280   32.5760 C.2    67  PHE67       0.2264
     87  O         70.0830   29.0770   33.3670 O.2    67  PHE67      -0.2867
     88  CB        67.7110   29.4660   31.2670 C.3    67  PHE67       0.0534
     89  CG        66.2910   29.4560   30.7800 C.ar   67  PHE67      -0.0203
     90  CD1       65.8080   28.3940   30.0350 C.ar   67  PHE67      -0.0042
     91  CD2       65.4420   30.5160   31.0550 C.ar   67  PHE67      -0.0042
     92  CE1       64.5020   28.3820   29.5810 C.ar   67  PHE67      -0.0003
     93  CE2       64.1350   30.5110   30.6030 C.ar   67  PHE67      -0.0003
     94  CZ        63.6650   29.4430   29.8660 C.ar   67  PHE67      -0.0000
     95  N         70.2670   27.6410   24.9740 N.3    91  LEU91      -0.1245
     96  CA        69.7190   27.6480   26.3260 C.3    91  LEU91       0.1561
     97  C         69.2600   26.2610   26.7620 C.2    91  LEU91       0.2260
     98  O         68.8810   25.4310   25.9350 O.2    91  LEU91      -0.2867
     99  CB        68.5590   28.6390   26.4280 C.3    91  LEU91       0.0270
    100  CG        68.9210   30.1170   26.2780 C.3    91  LEU91       0.0019
    101  CD1       67.6700   30.9800   26.3080 C.3    91  LEU91       0.0001
    102  CD2       69.8930   30.5380   27.3680 C.3    91  LEU91       0.0001
    103  N         60.6680   22.1160   28.2270 N.3    98  TRP98      -0.1241
    104  CA        60.6410   23.1440   27.1930 C.3    98  TRP98       0.1605
    105  C         61.6020   22.8980   26.0360 C.2    98  TRP98       0.2264
    106  O         62.8190   22.9030   26.2130 O.2    98  TRP98      -0.2867
    107  CB        60.9240   24.5140   27.8040 C.3    98  TRP98       0.0550
    108  CG        59.7030   25.2060   28.2960 C.ar   98  TRP98       0.0003
    109  CD1       58.4630   24.6650   28.4680 C.ar   98  TRP98       0.0946
    110  CD2       59.5970   26.5810   28.6670 C.ar   98  TRP98       0.0152
    111  NE1       57.5910   25.6200   28.9320 N.ar   98  TRP98      -0.2442
    112  CE2       58.2640   26.8060   29.0620 C.ar   98  TRP98       0.0810
    113  CE3       60.5020   27.6440   28.7070 C.ar   98  TRP98       0.0012
    114  CZ2       57.8160   28.0490   29.4910 C.ar   98  TRP98       0.0191
    115  CZ3       60.0560   28.8740   29.1350 C.ar   98  TRP98       0.0001
    116  CH2       58.7250   29.0680   29.5170 C.ar   98  TRP98       0.0015
    117  N         62.2850   24.6710   22.4580 N.3   100  ILE100     -0.1245
    118  CA        61.9500   25.8540   21.6750 C.3   100  ILE100      0.1561
    119  C         62.9700   26.1280   20.5770 C.2   100  ILE100      0.2260
    120  O         64.1210   26.4530   20.8600 O.2   100  ILE100     -0.2867
    121  CB        61.8620   27.1010   22.5750 C.3   100  ILE100      0.0252
    122  CG1       60.8120   26.9000   23.6690 C.3   100  ILE100      0.0019
    123  CG2       61.5460   28.3330   21.7480 C.3   100  ILE100      0.0019
    124  CD1       60.8210   27.9780   24.7250 C.3   100  ILE100      0.0001
@<TRIPOS>BOND
     1     4     3    2
     2     3     2    1
     3    20    21    1
     4    22    23    2
     5    22    21    1
     6    21    24    1
     7    28    29    1
     8     2     1    1
     9     2     5    1
    10    14    15    2
    11    14    13    1
    12    35    34    2
    13    40    39    2
    14    29    30    1
    15    24    25    1
    16    13    12    1
    17    13    16    1
    18    18    17    1
    19     5     6    1
    20    43    42   ar
    21    26    25   ar
    22    39    38    1
    23    39    45   am
    24    34    37   am
    25    34    33    1
    26    38    37    1
    27    38    41    1
    28    32    30   am
    29    32    33    1
    30    30    31    2
    31    25    27   ar
    32    17    16    1
    33    17    19    1
    34   119   120    2
    35   119   118    1
    36    42    41    1
    37    42    44   ar
    38    33    36    1
    39     6     7    1
    40    45    46    1
    41    46    47    1
    42    46    49    1
    43    47    48    2
    44   118   117    1
    45   118   121    1
    46   123   121    1
    47     7     8    1
    48    50    49    1
    49    50    51    1
    50   121   122    1
    51    53    54    1
    52     8     9    2
    53    56    55    2
    54    11     9    1
    55   122   124    1
    56    51    52    1
    57     9    10    1
    58    55    54    1
    59    54    57    1
    60    95    96    1
    61    57    59    1
    62    57    58    1
    63    98    97    2
    64   105   106    2
    65   105   104    1
    66   100   101    1
    67   100    99    1
    68   100   102    1
    69    96    99    1
    70    96    97    1
    71   104   107    1
    72   104   103    1
    73   107   108    1
    74   108   109   ar
    75   108   110   ar
    76   109   111   ar
    77    70    69    2
    78   110   113   ar
    79   110   112   ar
    80   113   115   ar
    81    65    64    1
    82   111   112   ar
    83   112   114   ar
    84   115   116   ar
    85   114   116   ar
    86    92    94   ar
    87    92    90   ar
    88    66    64    1
    89    76    77    1
    90    76    75    1
    91    69    75   am
    92    69    68    1
    93    94    93   ar
    94    90    89   ar
    95    64    61    1
    96    74    72    1
    97    79    77   am
    98    79    80    1
    99    71    72    1
   100    71    68    1
   101    67    68    1
   102    67    62   am
   103    77    78    2
   104    83    80    1
   105    72    73    1
   106    93    91   ar
   107    80    81    1
   108    89    91   ar
   109    89    88    1
   110    61    62    1
   111    61    60    1
   112    62    63    2
   113    88    85    1
   114    81    82    2
   115    85    86    1
   116    85    84    1
   117    86    87    2
