@<TRIPOS>MOLECULE
tmp/4ydgB00.pdb
 115 108 0 0 0
SMALL
GASTEIGER

@<TRIPOS>ATOM
      1  N          2.6160   56.3970  176.4260 N.3    10  ARG10      -0.1245
      2  CA         3.1690   57.6940  176.8000 C.3    10  ARG10       0.1563
      3  C          3.9760   58.3000  175.6570 C.2    10  ARG10       0.2260
      4  O          4.9130   57.6780  175.1560 O.2    10  ARG10      -0.2867
      5  CB         4.0450   57.5660  178.0480 C.3    10  ARG10       0.0307
      6  CG         3.3310   57.9030  179.3460 C.3    10  ARG10       0.0489
      7  CD         4.2090   57.6040  180.5520 C.3    10  ARG10       0.2205
      8  NE         3.7120   58.2480  181.7650 N.pl3  10  ARG10      -0.0865
      9  CZ         2.7460   57.7550  182.5340 C.cat  10  ARG10       0.5346
     10  NH1        2.1610   56.6080  182.2180 N.pl3  10  ARG10       0.1354
     11  NH2        2.3620   58.4130  183.6200 N.pl3  10  ARG10       0.1354
     12  N          8.7850   63.1530  178.6800 N.3    30  LEU30      -0.1245
     13  CA         7.3680   63.0310  178.3550 C.3    30  LEU30       0.1561
     14  C          6.8220   64.3120  177.7310 C.2    30  LEU30       0.2260
     15  O          6.8220   65.3680  178.3630 O.2    30  LEU30      -0.2867
     16  CB         6.5620   62.6840  179.6090 C.3    30  LEU30       0.0270
     17  CG         5.0420   62.6080  179.4460 C.3    30  LEU30       0.0019
     18  CD1        4.6600   61.4930  178.4850 C.3    30  LEU30       0.0001
     19  CD2        4.3610   62.4180  180.7930 C.3    30  LEU30       0.0001
     20  N          4.4350   66.8370  177.1990 N.3    32  ASP32      -0.1239
     21  CA         3.2840   67.2410  177.9930 C.3    32  ASP32       0.1674
     22  C          2.8120   68.6450  177.6270 C.2    32  ASP32       0.2266
     23  O          3.5530   69.6170  177.7680 O.2    32  ASP32      -0.2867
     24  CB         3.6350   67.1740  179.4790 C.3    32  ASP32       0.1410
     25  CG         2.4160   67.0160  180.3600 C.2    32  ASP32       0.3668
     26  OD1        1.4130   67.7240  180.1310 O.co2  32  ASP32      -0.2456
     27  OD2        2.4610   66.1730  181.2800 O.co2  32  ASP32      -0.2456
     28  N          0.1280   69.9210  179.0460 N.3    34  GLY34      -0.1210
     29  CA        -0.5380   70.4240  180.2330 C.3    34  GLY34       0.1956
     30  C          0.4580   70.9910  181.2250 C.2    34  GLY34       0.2612
     31  O          0.0800   71.5030  182.2790 O.2    34  GLY34      -0.2717
     32  N          1.7380   70.8950  180.8810 N.am   35  ALA35      -0.1965
     33  CA         2.8090   71.3920  181.7350 C.3    35  ALA35       0.1728
     34  C          3.3050   72.7510  181.2530 C.2    35  ALA35       0.2616
     35  O          3.7980   72.8780  180.1330 O.2    35  ALA35      -0.2715
     36  CB         3.9530   70.3940  181.7740 C.3    35  ALA35       0.0334
     37  N          3.1740   73.7650  182.1020 N.am   36  ASP36      -0.1957
     38  CA         3.5930   75.1170  181.7440 C.3    36  ASP36       0.1840
     39  C          5.0990   75.3200  181.8900 C.2    36  ASP36       0.2621
     40  O          5.6500   76.2980  181.3830 O.2    36  ASP36      -0.2715
     41  CB         2.8300   76.1590  182.5670 C.3    36  ASP36       0.1450
     42  CG         2.4090   75.6380  183.9260 C.2    36  ASP36       0.3671
     43  OD1        3.2650   75.5810  184.8350 O.co2  36  ASP36      -0.2456
     44  OD2        1.2190   75.2910  184.0870 O.co2  36  ASP36      -0.2456
     45  N          5.7600   74.3970  182.5810 N.am   37  MET37      -0.1977
     46  CA         7.2070   74.4700  182.7510 C.3    37  MET37       0.1605
     47  C          7.8530   73.0860  182.7340 C.2    37  MET37       0.2287
     48  O          7.3390   72.1400  183.3320 O.2    37  MET37      -0.2864
     49  CB         7.5660   75.2150  184.0400 C.3    37  MET37       0.0413
     50  CG         9.0580   75.4470  184.2270 C.3    37  MET37       0.0598
     51  SD         9.4400   76.5170  185.6270 S.3    37  MET37      -0.1393
     52  CE         8.7060   78.0580  185.0850 C.3    37  MET37       0.0692
     53  N         10.1140   69.8900  183.4250 N.3    39  VAL39      -0.1245
     54  CA        10.6480   69.2370  184.6150 C.3    39  VAL39       0.1561
     55  C         11.7540   68.2500  184.2440 C.2    39  VAL39       0.2260
     56  O         11.5570   67.3780  183.3990 O.2    39  VAL39      -0.2867
     57  CB         9.5460   68.4840  185.3840 C.3    39  VAL39       0.0252
     58  CG1       10.1380   67.7320  186.5660 C.3    39  VAL39       0.0019
     59  CG2        8.4640   69.4500  185.8440 C.3    39  VAL39       0.0019
     60  N          4.9520   74.1170  193.5730 N.3    56  VAL56      -0.1231
     61  CA         4.3790   73.6730  192.3060 C.3    56  VAL56       0.1692
     62  C          3.0820   72.8940  192.5190 C.2    56  VAL56       0.2591
     63  O          2.9940   72.0490  193.4090 O.2    56  VAL56      -0.2718
     64  CB         5.3840   72.8020  191.5170 C.3    56  VAL56       0.0266
     65  CG1        4.7380   72.2160  190.2700 C.3    56  VAL56       0.0020
     66  CG2        6.6160   73.6150  191.1510 C.3    56  VAL56       0.0020
     67  N          2.0750   73.1860  191.7010 N.am   57  LEU57      -0.1980
     68  CA         0.7890   72.5060  191.7950 C.3    57  LEU57       0.1596
     69  C          0.8100   71.1880  191.0240 C.2    57  LEU57       0.2287
     70  O          1.4280   71.0860  189.9640 O.2    57  LEU57      -0.2864
     71  CB        -0.3290   73.4110  191.2720 C.3    57  LEU57       0.0297
     72  CG        -1.6530   73.4020  192.0420 C.3    57  LEU57       0.0022
     73  CD1       -2.5440   74.5430  191.5770 C.3    57  LEU57       0.0001
     74  CD2       -2.3690   72.0690  191.8930 C.3    57  LEU57       0.0001
     75  N          9.6970   69.7780  194.1310 N.3    62  PHE62      -0.1241
     76  CA        10.4100   70.4290  193.0340 C.3    62  PHE62       0.1605
     77  C         11.3680   71.5310  193.4830 C.2    62  PHE62       0.2264
     78  O         11.1810   72.1500  194.5310 O.2    62  PHE62      -0.2867
     79  CB         9.4200   70.9840  192.0070 C.3    62  PHE62       0.0534
     80  CG         8.5920   69.9290  191.3330 C.ar   62  PHE62      -0.0203
     81  CD1        7.3300   69.6110  191.8070 C.ar   62  PHE62      -0.0042
     82  CD2        9.0760   69.2530  190.2260 C.ar   62  PHE62      -0.0042
     83  CE1        6.5670   68.6390  191.1890 C.ar   62  PHE62      -0.0003
     84  CE2        8.3170   68.2800  189.6030 C.ar   62  PHE62      -0.0003
     85  CZ         7.0610   67.9730  190.0860 C.ar   62  PHE62      -0.0000
     86  N         11.9330   73.3380  186.1470 N.3    86  LEU86      -0.1245
     87  CA        11.7810   72.6230  187.4090 C.3    86  LEU86       0.1561
     88  C         12.7220   71.4280  187.5140 C.2    86  LEU86       0.2260
     89  O         13.0820   70.8150  186.5090 O.2    86  LEU86      -0.2867
     90  CB        10.3320   72.1660  187.5900 C.3    86  LEU86       0.0270
     91  CG         9.2930   73.2790  187.7350 C.3    86  LEU86       0.0019
     92  CD1        7.8930   72.6940  187.8100 C.3    86  LEU86       0.0001
     93  CD2        9.5910   74.1270  188.9610 C.3    86  LEU86       0.0001
     94  N         11.5290   62.2910  187.0670 N.3    93  TRP93      -0.1241
     95  CA        10.7650   62.4540  185.8340 C.3    93  TRP93       0.1605
     96  C         11.4780   63.3440  184.8290 C.2    93  TRP93       0.2264
     97  O         12.3820   64.1030  185.1810 O.2    93  TRP93      -0.2867
     98  CB         9.3830   63.0400  186.1170 C.3    93  TRP93       0.0550
     99  CG         8.2800   62.1400  185.6880 C.ar   93  TRP93       0.0003
    100  CD1        8.0940   61.6080  184.4470 C.ar   93  TRP93       0.0946
    101  CD2        7.2000   61.6650  186.4960 C.ar   93  TRP93       0.0152
    102  NE1        6.9660   60.8230  184.4330 N.ar   93  TRP93      -0.2442
    103  CE2        6.3980   60.8420  185.6810 C.ar   93  TRP93       0.0810
    104  CE3        6.8340   61.8550  187.8320 C.ar   93  TRP93       0.0012
    105  CZ2        5.2510   60.2080  186.1580 C.ar   93  TRP93       0.0191
    106  CZ3        5.6970   61.2280  188.3030 C.ar   93  TRP93       0.0001
    107  CH2        4.9190   60.4130  187.4690 C.ar   93  TRP93       0.0015
    108  N          9.9450   65.8200  181.8500 N.3    95  ILE95      -0.1245
    109  CA         8.7070   66.3100  181.2610 C.3    95  ILE95       0.1561
    110  C          8.9230   67.5540  180.4080 C.2    95  ILE95       0.2260
    111  O          9.3020   68.6060  180.9170 O.2    95  ILE95      -0.2867
    112  CB         7.6650   66.6300  182.3500 C.3    95  ILE95       0.0252
    113  CG1        7.3240   65.3730  183.1530 C.3    95  ILE95       0.0019
    114  CG2        6.4140   67.2200  181.7300 C.3    95  ILE95       0.0019
    115  CD1        6.3430   65.6150  184.2790 C.3    95  ILE95       0.0001
@<TRIPOS>BOND
     1     4     3    2
     2     3     2    1
     3     1     2    1
     4     2     5    1
     5    20    21    1
     6    22    23    2
     7    22    21    1
     8    14    13    1
     9    14    15    2
    10    21    24    1
    11     5     6    1
    12    13    12    1
    13    13    16    1
    14    18    17    1
    15    28    29    1
    16     6     7    1
    17    17    16    1
    18    17    19    1
    19    24    25    1
    20    26    25   ar
    21    35    34    2
    22    29    30    1
    23    25    27   ar
    24   110   111    2
    25   110   109    1
    26     7     8    1
    27    32    30   am
    28    32    33    1
    29    30    31    2
    30    34    33    1
    31    34    37   am
    32   109   108    1
    33   109   112    1
    34    40    39    2
    35   114   112    1
    36    33    36    1
    37    38    39    1
    38    38    37    1
    39    38    41    1
    40     8     9    2
    41    39    45   am
    42    10     9    1
    43   112   113    1
    44     9    11    1
    45    41    42    1
    46    45    46    1
    47    47    46    1
    48    47    48    2
    49    46    49    1
    50   113   115    1
    51    56    55    2
    52    53    54    1
    53    42    44   ar
    54    42    43   ar
    55    49    50    1
    56    50    51    1
    57    55    54    1
    58   102   100   ar
    59   102   103   ar
    60   100    99   ar
    61    54    57    1
    62    96    97    2
    63    96    95    1
    64    52    51    1
    65    57    59    1
    66    57    58    1
    67   103   105   ar
    68   103   101   ar
    69    99    98    1
    70    99   101   ar
    71    95    98    1
    72    95    94    1
    73    86    87    1
    74   105   107   ar
    75   101   104   ar
    76    89    88    2
    77    87    88    1
    78    87    90    1
    79   107   106   ar
    80    90    91    1
    81    91    92    1
    82    91    93    1
    83   104   106   ar
    84    84    85   ar
    85    84    82   ar
    86    70    69    2
    87    85    83   ar
    88    82    80   ar
    89    65    64    1
    90    69    68    1
    91    66    64    1
    92    83    81   ar
    93    71    68    1
    94    71    72    1
    95    80    81   ar
    96    80    79    1
    97    64    61    1
    98    73    72    1
    99    67    68    1
   100    67    62   am
   101    74    72    1
   102    79    76    1
   103    61    62    1
   104    61    60    1
   105    62    63    2
   106    76    77    1
   107    76    75    1
   108    77    78    2
