@<TRIPOS>MOLECULE
tmp/4ydjA00.pdb
 77 74 0 0 0
SMALL
GASTEIGER

@<TRIPOS>ATOM
      1  N         -9.3160   20.6400  -45.9460 N.3    94  PHE94      -0.1227
      2  CA       -10.5570   19.8930  -46.1200 C.3    94  PHE94       0.1736
      3  C        -11.6740   20.8380  -46.5440 C.2    94  PHE94       0.2595
      4  O        -11.9130   21.8580  -45.8990 O.2    94  PHE94      -0.2718
      5  CB       -10.9320   19.1620  -44.8300 C.3    94  PHE94       0.0547
      6  CG       -12.1950   18.3570  -44.9330 C.ar   94  PHE94      -0.0202
      7  CD1      -12.2830   17.2960  -45.8190 C.ar   94  PHE94      -0.0042
      8  CD2      -13.2880   18.6510  -44.1360 C.ar   94  PHE94      -0.0042
      9  CE1      -13.4420   16.5490  -45.9150 C.ar   94  PHE94      -0.0003
     10  CE2      -14.4490   17.9070  -44.2260 C.ar   94  PHE94      -0.0003
     11  CZ       -14.5260   16.8550  -45.1170 C.ar   94  PHE94      -0.0000
     12  N        -12.3580   20.4950  -47.6310 N.am   95  ASN95      -0.1974
     13  CA       -13.3490   21.3890  -48.2160 C.3    95  ASN95       0.1688
     14  C        -14.7140   21.3090  -47.5290 C.2    95  ASN95       0.2292
     15  O        -15.6750   21.9350  -47.9740 O.2    95  ASN95      -0.2864
     16  CB       -13.4940   21.0990  -49.7140 C.3    95  ASN95       0.1181
     17  CG       -14.0520   19.7120  -50.0060 C.2    95  ASN95       0.2629
     18  OD1      -14.7060   19.0910  -49.1690 O.2    95  ASN95      -0.2716
     19  ND2      -13.7920   19.2240  -51.2100 N.am   95  ASN95      -0.0877
     20  N        -16.5020   18.4890  -47.0280 N.3    97  THR97      -0.1203
     21  CA       -17.2500   17.3000  -47.4310 C.3    97  THR97       0.1994
     22  C        -16.3050   16.1830  -47.8580 C.2    97  THR97       0.2618
     23  O        -15.4890   16.3610  -48.7640 O.2    97  THR97      -0.2717
     24  CB       -18.2190   17.6000  -48.5900 C.3    97  THR97       0.1784
     25  OG1      -17.4920   18.1410  -49.7000 O.3    97  THR97      -0.2211
     26  CG2      -19.2900   18.5870  -48.1550 C.3    97  THR97       0.0376
     27  N        -16.4260   15.0320  -47.2010 N.am   98  GLY98      -0.1942
     28  CA       -15.5920   13.8810  -47.4940 C.3    98  GLY98       0.1998
     29  C        -14.9330   13.3310  -46.2440 C.2    98  GLY98       0.2480
     30  O        -15.2390   13.7700  -45.1350 O.2    98  GLY98      -0.2729
     31  N        -14.0200   12.3640  -46.4160 N.am   99  PRO99      -0.2726
     32  CA       -13.3200   11.7480  -45.2830 C.3    99  PRO99       0.1402
     33  C        -12.3520   12.7110  -44.5990 C.2    99  PRO99       0.2269
     34  O        -11.8360   13.6220  -45.2470 O.2    99  PRO99      -0.2865
     35  CB       -12.5680   10.5810  -45.9300 C.3    99  PRO99       0.0296
     36  CG       -12.3710   10.9990  -47.3420 C.3    99  PRO99       0.0237
     37  CD       -13.5840   11.8010  -47.7060 C.3    99  PRO99       0.0939
     38  N        -12.3610   26.5190  -51.6920 N.3   133  ILE133     -0.1245
     39  CA       -13.6490   26.6940  -52.3510 C.3   133  ILE133      0.1561
     40  C        -14.6070   25.6200  -51.8490 C.2   133  ILE133      0.2260
     41  O        -14.3020   24.4280  -51.9110 O.2   133  ILE133     -0.2867
     42  CB       -13.5240   26.6090  -53.8830 C.3   133  ILE133      0.0252
     43  CG1      -12.4680   27.5970  -54.3900 C.3   133  ILE133      0.0019
     44  CG2      -14.8690   26.8750  -54.5510 C.3   133  ILE133      0.0019
     45  CD1      -12.7460   29.0540  -54.0440 C.3   133  ILE133      0.0001
     46  N        -18.5930   23.9490  -51.6630 N.3   135  SER135     -0.1217
     47  CA       -19.8910   23.7960  -52.3060 C.3   135  SER135      0.1889
     48  C        -20.3910   22.3640  -52.1900 C.2   135  SER135      0.2288
     49  O        -19.6090   21.4170  -52.2510 O.2   135  SER135     -0.2866
     50  CB       -19.8150   24.1970  -53.7790 C.3   135  SER135      0.2089
     51  OG       -21.0520   23.9660  -54.4290 O.3   135  SER135     -0.2183
     52  N        -22.0180   20.9970  -54.3850 N.3   137  ASN137     -0.1225
     53  CA       -21.8690   20.4780  -55.7370 C.3   137  ASN137      0.1785
     54  C        -21.4610   21.5980  -56.6890 C.2   137  ASN137      0.2597
     55  O        -22.3120   22.3100  -57.2240 O.2   137  ASN137     -0.2718
     56  CB       -23.1760   19.8230  -56.1960 C.3   137  ASN137      0.1169
     57  CG       -23.0350   19.0840  -57.5110 C.2   137  ASN137      0.2627
     58  OD1      -21.9320   18.9080  -58.0290 O.2   137  ASN137     -0.2716
     59  ND2      -24.1620   18.6400  -58.0570 N.am  137  ASN137     -0.0877
     60  N        -20.1550   21.7560  -56.8870 N.am  138  LEU138     -0.1980
     61  CA       -19.6210   22.8420  -57.7080 C.3   138  LEU138      0.1596
     62  C        -20.1600   22.8110  -59.1320 C.2   138  LEU138      0.2287
     63  O        -20.4700   23.8550  -59.7070 O.2   138  LEU138     -0.2864
     64  CB       -18.0910   22.7860  -57.7430 C.3   138  LEU138      0.0297
     65  CG       -17.3390   23.6980  -56.7700 C.3   138  LEU138      0.0022
     66  CD1      -15.8510   23.3960  -56.8100 C.3   138  LEU138      0.0001
     67  CD2      -17.5860   25.1680  -57.0840 C.3   138  LEU138      0.0001
     68  N        -10.3160   24.3220  -60.1770 N.3   186  HIS186     -0.1241
     69  CA       -11.4200   23.3710  -60.0860 C.3   186  HIS186      0.1621
     70  C        -12.0440   23.0420  -61.4370 C.2   186  HIS186      0.2264
     71  O        -12.4520   21.9040  -61.6750 O.2   186  HIS186     -0.2867
     72  CB       -12.5050   23.9100  -59.1510 C.3   186  HIS186      0.0745
     73  CG       -12.2030   23.7170  -57.6990 C.ar  186  HIS186      0.0817
     74  ND1      -11.4440   24.6080  -56.9700 N.ar  186  HIS186     -0.2268
     75  CD2      -12.5560   22.7330  -56.8390 C.ar  186  HIS186      0.1154
     76  CE1      -11.3450   24.1830  -55.7240 C.ar  186  HIS186      0.1986
     77  NE2      -12.0110   23.0470  -55.6170 N.ar  186  HIS186     -0.2212
@<TRIPOS>BOND
     1    71    70    2
     2    70    69    1
     3    68    69    1
     4    69    72    1
     5    63    62    2
     6    72    73    1
     7    62    61    1
     8    59    57   am
     9    58    57    2
    10    64    61    1
    11    64    65    1
    12    61    60    1
    13    73    74   ar
    14    73    75   ar
    15    57    56    1
    16    55    54    2
    17    67    65    1
    18    74    76   ar
    19    60    54   am
    20    75    77   ar
    21    66    65    1
    22    54    53    1
    23    56    53    1
    24    53    52    1
    25    76    77   ar
    26    44    42    1
    27    51    50    1
    28    43    45    1
    29    43    42    1
    30    42    39    1
    31    50    47    1
    32    39    40    1
    33    39    38    1
    34    47    48    1
    35    47    46    1
    36    49    48    2
    37    41    40    2
    38    19    17   am
    39    17    16    1
    40    17    18    2
    41    16    13    1
    42    25    24    1
    43    23    22    2
    44    24    26    1
    45    24    21    1
    46    13    12    1
    47    13    14    1
    48    15    14    2
    49    22    21    1
    50    22    27   am
    51    37    36    1
    52    37    31    1
    53    12     3   am
    54    28    27    1
    55    28    29    1
    56    21    20    1
    57    36    35    1
    58     3     2    1
    59     3     4    2
    60    31    29   am
    61    31    32    1
    62    29    30    2
    63     2     1    1
    64     2     5    1
    65    35    32    1
    66     9     7   ar
    67     9    11   ar
    68     7     6   ar
    69    32    33    1
    70    34    33    2
    71    11    10   ar
    72     6     5    1
    73     6     8   ar
    74    10     8   ar
