@<TRIPOS>MOLECULE
tmp/4ydjA02.pdb
 91 88 0 0 0
SMALL
GASTEIGER

@<TRIPOS>ATOM
      1  N        -23.1120   44.1650  -29.8380 N.3    72  ASP72      -0.1225
      2  CA       -21.9420   43.6360  -30.5300 C.3    72  ASP72       0.1790
      3  C        -21.8860   42.1160  -30.3620 C.2    72  ASP72       0.2439
      4  O        -22.0050   41.6180  -29.2430 O.2    72  ASP72      -0.2733
      5  CB       -20.6530   44.2700  -30.0020 C.3    72  ASP72       0.1423
      6  CG       -19.4240   43.7960  -30.7540 C.2    72  ASP72       0.3668
      7  OD1      -19.0820   44.4120  -31.7850 O.co2  72  ASP72      -0.2456
      8  OD2      -18.8010   42.8050  -30.3170 O.co2  72  ASP72      -0.2456
      9  N        -21.7120   41.3700  -31.4690 N.am   73  PRO73      -0.2729
     10  CA       -21.6460   39.9070  -31.3480 C.3    73  PRO73       0.1401
     11  C        -20.4780   39.4230  -30.4900 C.2    73  PRO73       0.2269
     12  O        -19.3590   39.9140  -30.6450 O.2    73  PRO73      -0.2865
     13  CB       -21.4760   39.4390  -32.7990 C.3    73  PRO73       0.0296
     14  CG       -21.9910   40.5540  -33.6280 C.3    73  PRO73       0.0237
     15  CD       -21.6660   41.8020  -32.8770 C.3    73  PRO73       0.0939
     16  N        -18.6780   34.1560  -33.3230 N.3   113  LYS113     -0.1245
     17  CA       -19.4680   35.3800  -33.2300 C.3   113  LYS113      0.1561
     18  C        -20.6040   35.3540  -34.2540 C.2   113  LYS113      0.2260
     19  O        -20.3440   35.3460  -35.4560 O.2   113  LYS113     -0.2867
     20  CB       -18.5810   36.6070  -33.4490 C.3   113  LYS113      0.0271
     21  CG       -17.4970   36.7680  -32.3940 C.3   113  LYS113      0.0035
     22  CD       -16.8670   38.1520  -32.4280 C.3   113  LYS113      0.0206
     23  CE       -16.1060   38.3970  -33.7190 C.3   113  LYS113      0.1093
     24  NZ       -15.3920   39.7060  -33.6990 N.3   113  LYS113     -0.1314
     25  N        -22.1260   36.8370  -36.3920 N.3   115  VAL115     -0.1245
     26  CA       -22.1640   38.0160  -37.2480 C.3   115  VAL115      0.1561
     27  C        -23.1300   37.8000  -38.4080 C.2   115  VAL115      0.2260
     28  O        -22.9180   36.9290  -39.2510 O.2   115  VAL115     -0.2867
     29  CB       -20.7690   38.3600  -37.8060 C.3   115  VAL115      0.0252
     30  CG1      -20.8230   39.6330  -38.6380 C.3   115  VAL115      0.0019
     31  CG2      -19.7660   38.5170  -36.6710 C.3   115  VAL115      0.0019
     32  N        -17.8650   38.2200  -42.2750 N.3   122  LEU122     -0.1231
     33  CA       -17.0820   39.1500  -41.4660 C.3   122  LEU122      0.1693
     34  C        -16.6730   38.5720  -40.1140 C.2   122  LEU122      0.2592
     35  O        -17.4310   37.8270  -39.4900 O.2   122  LEU122     -0.2718
     36  CB       -17.8710   40.4420  -41.2470 C.3   122  LEU122      0.0284
     37  CG       -18.3410   41.1700  -42.5080 C.3   122  LEU122      0.0019
     38  CD1      -19.1540   42.3990  -42.1280 C.3   122  LEU122      0.0001
     39  CD2      -17.1640   41.5520  -43.3960 C.3   122  LEU122      0.0001
     40  N        -15.4690   38.9330  -39.6730 N.am  123  ASN123     -0.1974
     41  CA       -14.9500   38.5430  -38.3630 C.3   123  ASN123      0.1688
     42  C        -14.9760   37.0330  -38.1280 C.2   123  ASN123      0.2292
     43  O        -15.0930   36.5730  -36.9910 O.2   123  ASN123     -0.2864
     44  CB       -15.7360   39.2520  -37.2530 C.3   123  ASN123      0.1181
     45  CG       -15.4010   40.7280  -37.1450 C.2   123  ASN123      0.2629
     46  OD1      -14.4920   41.2270  -37.8090 O.2   123  ASN123     -0.2716
     47  ND2      -16.1350   41.4340  -36.2920 N.am  123  ASN123     -0.0877
     48  N        -24.8810   44.3440  -43.3040 N.3   209  PHE209     -0.1227
     49  CA       -24.2630   44.0510  -42.0140 C.3   209  PHE209      0.1736
     50  C        -24.7780   45.0000  -40.9360 C.2   209  PHE209      0.2595
     51  O        -25.5100   45.9450  -41.2290 O.2   209  PHE209     -0.2718
     52  CB       -22.7400   44.1510  -42.1060 C.3   209  PHE209      0.0547
     53  CG       -22.2450   45.5190  -42.4680 C.ar  209  PHE209     -0.0202
     54  CD1      -22.0880   45.8840  -43.7940 C.ar  209  PHE209     -0.0042
     55  CD2      -21.9360   46.4420  -41.4830 C.ar  209  PHE209     -0.0042
     56  CE1      -21.6320   47.1420  -44.1300 C.ar  209  PHE209     -0.0003
     57  CE2      -21.4810   47.7010  -41.8130 C.ar  209  PHE209     -0.0003
     58  CZ       -21.3290   48.0520  -43.1380 C.ar  209  PHE209     -0.0000
     59  N        -24.3810   44.7410  -39.6920 N.am  210  ASN210     -0.1960
     60  CA       -24.8070   45.5480  -38.5510 C.3   210  ASN210      0.1819
     61  C        -23.6530   46.3490  -37.9510 C.2   210  ASN210      0.2621
     62  O        -22.4850   46.0480  -38.1950 O.2   210  ASN210     -0.2715
     63  CB       -25.4330   44.6550  -37.4770 C.3   210  ASN210      0.1195
     64  CG       -24.5550   43.4690  -37.1150 C.2   210  ASN210      0.2630
     65  OD1      -23.3990   43.3840  -37.5320 O.2   210  ASN210     -0.2716
     66  ND2      -25.1020   42.5470  -36.3320 N.am  210  ASN210     -0.0877
     67  N        -23.9900   47.3700  -37.1680 N.am  211  CYS211     -0.1968
     68  CA       -22.9840   48.1970  -36.5080 C.3   211  CYS211      0.1712
     69  C        -23.5630   48.8860  -35.2730 C.2   211  CYS211      0.2296
     70  O        -23.9940   50.0380  -35.3350 O.2   211  CYS211     -0.2864
     71  CB       -22.4230   49.2350  -37.4800 C.3   211  CYS211      0.0983
     72  SG       -21.0520   50.2040  -36.8090 S.3   211  CYS211     -0.0798
     73  N        -16.8900   51.7090  -37.6910 N.3   252  CYS252     -0.1221
     74  CA       -16.7710   50.2850  -37.3920 C.3   252  CYS252      0.1808
     75  C        -15.9110   49.5800  -38.4400 C.2   252  CYS252      0.2601
     76  O        -16.2090   49.6290  -39.6340 O.2   252  CYS252     -0.2717
     77  CB       -18.1530   49.6290  -37.3260 C.3   252  CYS252      0.0970
     78  SG       -19.2010   50.2040  -35.9700 S.3   252  CYS252     -0.0800
     79  N        -14.8470   48.9260  -37.9810 N.am  253  VAL253     -0.1965
     80  CA       -13.9540   48.1720  -38.8580 C.3   253  VAL253      0.1727
     81  C        -14.1630   46.6750  -38.6630 C.2   253  VAL253      0.2616
     82  O        -14.4490   46.2260  -37.5550 O.2   253  VAL253     -0.2715
     83  CB       -12.4740   48.5210  -38.6030 C.3   253  VAL253      0.0290
     84  CG1      -12.1980   49.9650  -38.9900 C.3   253  VAL253      0.0023
     85  CG2      -12.0970   48.2720  -37.1460 C.3   253  VAL253      0.0023
     86  N        -14.0170   45.9070  -39.7400 N.am  254  SER254     -0.1950
     87  CA       -14.2710   44.4690  -39.6950 C.3   254  SER254      0.1924
     88  C        -13.3280   43.6820  -40.6030 C.2   254  SER254      0.2314
     89  O        -12.7730   44.2190  -41.5590 O.2   254  SER254     -0.2863
     90  CB       -15.7220   44.1820  -40.0870 C.3   254  SER254      0.2116
     91  OG       -16.6250   44.8580  -39.2300 O.3   254  SER254     -0.2180
@<TRIPOS>BOND
     1    56    54   ar
     2    56    58   ar
     3    54    53   ar
     4    39    37    1
     5    48    49    1
     6    58    57   ar
     7    37    38    1
     8    37    36    1
     9    53    52    1
    10    53    55   ar
    11    32    33    1
    12    52    49    1
    13    49    50    1
    14    57    55   ar
    15    89    88    2
    16    33    36    1
    17    33    34    1
    18    51    50    2
    19    50    59   am
    20    88    87    1
    21    34    40   am
    22    34    35    2
    23    90    87    1
    24    90    91    1
    25    86    87    1
    26    86    81   am
    27    59    60    1
    28    40    41    1
    29    76    75    2
    30    28    27    2
    31    84    83    1
    32    80    81    1
    33    80    83    1
    34    80    79    1
    35    81    82    2
    36    30    29    1
    37    83    85    1
    38    60    61    1
    39    60    63    1
    40    75    79   am
    41    75    74    1
    42    27    26    1
    43    41    42    1
    44    41    44    1
    45    62    61    2
    46    42    43    2
    47    61    67   am
    48    46    45    2
    49    29    26    1
    50    29    31    1
    51    73    74    1
    52    65    64    2
    53    71    72    1
    54    71    68    1
    55    63    64    1
    56    74    77    1
    57    77    78    1
    58    44    45    1
    59    26    25    1
    60    67    68    1
    61    45    47   am
    62    64    66   am
    63    72    78    1
    64    68    69    1
    65    19    18    2
    66    70    69    2
    67    18    17    1
    68    23    24    1
    69    23    22    1
    70    14    15    1
    71    14    13    1
    72    20    17    1
    73    20    21    1
    74    16    17    1
    75    15     9    1
    76    13    10    1
    77    22    21    1
    78     7     6   ar
    79     9    10    1
    80     9     3   am
    81    10    11    1
    82     6     8   ar
    83     6     5    1
    84    12    11    2
    85     2     3    1
    86     2     5    1
    87     2     1    1
    88     3     4    2
