@<TRIPOS>MOLECULE
tmp/4ydjE01.pdb
 87 87 0 0 0
SMALL
GASTEIGER

@<TRIPOS>ATOM
      1  N        -69.0770   25.7640  -39.7140 N.3   167  TYR167     -0.1241
      2  CA       -69.7660   26.6980  -38.8350 C.3   167  TYR167      0.1605
      3  C        -69.0800   26.7560  -37.4750 C.2   167  TYR167      0.2264
      4  O        -68.2910   25.8800  -37.1230 O.2   167  TYR167     -0.2867
      5  CB       -71.2380   26.3100  -38.6830 C.3   167  TYR167      0.0534
      6  CG       -71.4640   24.9710  -38.0160 C.ar  167  TYR167     -0.0201
      7  CD1      -71.5440   23.8000  -38.7650 C.ar  167  TYR167     -0.0009
      8  CD2      -71.6060   24.8760  -36.6380 C.ar  167  TYR167     -0.0009
      9  CE1      -71.7500   22.5770  -38.1580 C.ar  167  TYR167      0.0417
     10  CE2      -71.8120   23.6590  -36.0230 C.ar  167  TYR167      0.0417
     11  CZ       -71.8850   22.5100  -36.7880 C.ar  167  TYR167      0.1957
     12  OH       -72.0910   21.2910  -36.1820 O.3   167  TYR167     -0.2866
     13  N        -70.8200   25.5660  -32.0190 N.3   170  GLU170     -0.1231
     14  CA       -71.9740   24.6910  -31.8600 C.3   170  GLU170      0.1684
     15  C        -73.0710   25.4410  -31.1060 C.2   170  GLU170      0.2434
     16  O        -72.7800   26.4120  -30.4040 O.2   170  GLU170     -0.2733
     17  CB       -71.5850   23.4160  -31.1010 C.3   170  GLU170      0.0402
     18  CG       -70.5790   22.5250  -31.8240 C.3   170  GLU170      0.1161
     19  CD       -71.2290   21.3520  -32.5410 C.2   170  GLU170      0.3649
     20  OE1      -70.7760   20.2050  -32.3310 O.co2 170  GLU170     -0.2457
     21  OE2      -72.1860   21.5730  -33.3170 O.co2 170  GLU170     -0.2457
     22  N        -74.3310   24.9940  -31.2240 N.am  171  PRO171     -0.2718
     23  CA       -74.8210   23.8590  -32.0050 C.3   171  PRO171      0.1535
     24  C        -75.5300   24.2670  -33.2890 C.2   171  PRO171      0.2598
     25  O        -75.8460   25.4400  -33.4870 O.2   171  PRO171     -0.2715
     26  CB       -75.8080   23.2040  -31.0460 C.3   171  PRO171      0.0310
     27  CG       -76.4360   24.3840  -30.3580 C.3   171  PRO171      0.0237
     28  CD       -75.3660   25.4660  -30.2860 C.3   171  PRO171      0.0939
     29  N        -75.7630   23.2830  -34.1500 N.am  172  VAL172     -0.1964
     30  CA       -76.6640   23.4170  -35.2830 C.3   172  VAL172      0.1727
     31  C        -77.7310   22.3330  -35.1480 C.2   172  VAL172      0.2617
     32  O        -77.4080   21.1730  -34.8910 O.2   172  VAL172     -0.2715
     33  CB       -75.9160   23.2850  -36.6300 C.3   172  VAL172      0.0290
     34  CG1      -76.8900   23.1340  -37.7810 C.3   172  VAL172      0.0023
     35  CG2      -75.0230   24.5020  -36.8630 C.3   172  VAL172      0.0023
     36  N        -78.9980   22.7120  -35.2890 N.am  173  THR173     -0.1937
     37  CA       -80.0840   21.7380  -35.3210 C.3   173  THR173      0.2028
     38  C        -80.4720   21.4630  -36.7670 C.2   173  THR173      0.2642
     39  O        -80.3560   22.3390  -37.6240 O.2   173  THR173     -0.2714
     40  CB       -81.3260   22.2150  -34.5520 C.3   173  THR173      0.1808
     41  OG1      -81.8150   23.4280  -35.1330 O.3   173  THR173     -0.2208
     42  CG2      -81.0020   22.4470  -33.0920 C.3   173  THR173      0.0379
     43  N        -80.9230   20.2420  -37.0310 N.am  174  VAL174     -0.1977
     44  CA       -81.4190   19.8660  -38.3480 C.3   174  VAL174      0.1596
     45  C        -82.7260   19.0920  -38.2030 C.2   174  VAL174      0.2287
     46  O        -82.8330   18.1900  -37.3760 O.2   174  VAL174     -0.2864
     47  CB       -80.4050   19.0010  -39.1270 C.3   174  VAL174      0.0276
     48  CG1      -80.9190   18.7170  -40.5240 C.3   174  VAL174      0.0022
     49  CG2      -79.0560   19.6900  -39.2060 C.3   174  VAL174      0.0022
     50  N        -78.7110   12.1660  -37.8590 N.3   187  THR187     -0.1203
     51  CA       -77.8090   13.3140  -37.8820 C.3   187  THR187      0.1994
     52  C        -76.5340   12.9570  -37.1220 C.2   187  THR187      0.2618
     53  O        -76.5700   12.6800  -35.9200 O.2   187  THR187     -0.2717
     54  CB       -78.4580   14.5700  -37.2670 C.3   187  THR187      0.1784
     55  OG1      -79.7020   14.8400  -37.9270 O.3   187  THR187     -0.2211
     56  CG2      -77.5430   15.7820  -37.4300 C.3   187  THR187      0.0376
     57  N        -75.4140   12.9420  -37.8370 N.am  188  PHE188     -0.1962
     58  CA       -74.1340   12.5380  -37.2610 C.3   188  PHE188      0.1756
     59  C        -73.4910   13.6540  -36.4360 C.2   188  PHE188      0.2461
     60  O        -73.6760   14.8340  -36.7350 O.2   188  PHE188     -0.2730
     61  CB       -73.1740   12.1060  -38.3710 C.3   188  PHE188      0.0574
     62  CG       -73.5280   10.7900  -39.0040 C.ar  188  PHE188     -0.0200
     63  CD1      -74.5800   10.6970  -39.9000 C.ar  188  PHE188     -0.0042
     64  CD2      -72.8030    9.6470  -38.7070 C.ar  188  PHE188     -0.0042
     65  CE1      -74.9040    9.4880  -40.4810 C.ar  188  PHE188     -0.0003
     66  CE2      -73.1220    8.4380  -39.2880 C.ar  188  PHE188     -0.0003
     67  CZ       -74.1740    8.3580  -40.1750 C.ar  188  PHE188     -0.0000
     68  N        -72.7300   13.2870  -35.3900 N.am  189  PRO189     -0.2716
     69  CA       -72.0040   14.3080  -34.6230 C.3   189  PRO189      0.1536
     70  C        -71.0230   15.0950  -35.4830 C.2   189  PRO189      0.2598
     71  O        -70.4510   14.5540  -36.4280 O.2   189  PRO189     -0.2715
     72  CB       -71.2510   13.4970  -33.5660 C.3   189  PRO189      0.0310
     73  CG       -71.9820   12.2240  -33.4550 C.3   189  PRO189      0.0237
     74  CD       -72.5950   11.9490  -34.7900 C.3   189  PRO189      0.0939
     75  N        -70.8180   16.3590  -35.1430 N.am  190  ALA190     -0.1978
     76  CA       -69.9570   17.2130  -35.9360 C.3   190  ALA190      0.1597
     77  C        -68.5020   16.7830  -35.8150 C.2   190  ALA190      0.2287
     78  O        -68.0930   16.2180  -34.8020 O.2   190  ALA190     -0.2864
     79  CB       -70.1210   18.6560  -35.5110 C.3   190  ALA190      0.0319
     80  N        -71.0500   18.8910  -40.0700 N.3   200  LEU200     -0.1245
     81  CA       -71.7760   17.6440  -39.8410 C.3   200  LEU200      0.1561
     82  C        -72.6290   17.2840  -41.0470 C.2   200  LEU200      0.2260
     83  O        -72.7720   18.0700  -41.9860 O.2   200  LEU200     -0.2867
     84  CB       -72.6570   17.7290  -38.5870 C.3   200  LEU200      0.0270
     85  CG       -73.8710   18.6680  -38.5370 C.3   200  LEU200      0.0019
     86  CD1      -75.0730   18.2030  -39.3640 C.3   200  LEU200      0.0001
     87  CD2      -74.2990   18.8230  -37.0840 C.3   200  LEU200      0.0001
@<TRIPOS>BOND
     1    83    82    2
     2    82    81    1
     3    48    47    1
     4    65    67   ar
     5    65    63   ar
     6    67    66   ar
     7    80    81    1
     8    63    62   ar
     9    81    84    1
    10     1     2    1
    11    86    85    1
    12    66    64   ar
    13    49    47    1
    14    47    44    1
    15    62    64   ar
    16    62    61    1
    17     2     5    1
    18     2     3    1
    19     7     9   ar
    20     7     6   ar
    21     5     6    1
    22    84    85    1
    23    85    87    1
    24    61    58    1
    25    44    45    1
    26    44    43    1
    27    45    46    2
    28     9    11   ar
    29     6     8   ar
    30    55    54    1
    31    51    50    1
    32    51    54    1
    33    51    52    1
    34    57    58    1
    35    57    52   am
    36    34    33    1
    37    39    38    2
    38     3     4    2
    39    56    54    1
    40    58    59    1
    41    52    53    2
    42    43    38   am
    43    35    33    1
    44    11    12    1
    45    11    10   ar
    46    38    37    1
    47    60    59    2
    48     8    10   ar
    49    33    30    1
    50    59    68   am
    51    71    70    2
    52    76    77    1
    53    76    79    1
    54    76    75    1
    55    77    78    2
    56    70    75   am
    57    70    69    1
    58    68    74    1
    59    68    69    1
    60    37    36    1
    61    37    40    1
    62    36    31   am
    63    30    31    1
    64    30    29    1
    65    31    32    2
    66    41    40    1
    67    74    73    1
    68    69    72    1
    69    40    42    1
    70    29    24   am
    71    72    73    1
    72    25    24    2
    73    21    19   ar
    74    24    23    1
    75    19    20   ar
    76    19    18    1
    77    13    14    1
    78    23    22    1
    79    23    26    1
    80    14    15    1
    81    14    17    1
    82    18    17    1
    83    22    15   am
    84    22    28    1
    85    15    16    2
    86    26    27    1
    87    27    28    1
