@<TRIPOS>MOLECULE
tmp/4ydkC00.pdb
 92 89 0 0 0
SMALL
GASTEIGER

@<TRIPOS>ATOM
      1  N        -42.1630   46.9090   23.2510 N.3    38  LYS38      -0.1245
      2  CA       -43.5200   47.4480   23.2340 C.3    38  LYS38       0.1561
      3  C        -43.6230   48.6700   24.1350 C.2    38  LYS38       0.2260
      4  O        -43.3280   48.6000   25.3340 O.2    38  LYS38      -0.2867
      5  CB       -44.5370   46.3930   23.6780 C.3    38  LYS38       0.0271
      6  CG       -45.9850   46.8810   23.6860 C.3    38  LYS38       0.0035
      7  CD       -46.4710   47.2120   22.2800 C.3    38  LYS38       0.0206
      8  CE       -47.9460   47.5800   22.2670 C.3    38  LYS38       0.1093
      9  NZ       -48.2220   48.9010   22.8920 N.3    38  LYS38      -0.1314
     10  N        -39.4720   50.7380   28.3470 N.3    84  ALA84      -0.1231
     11  CA       -40.5040   50.0340   27.6170 C.3    84  ALA84       0.1694
     12  C        -40.7250   48.6530   28.2130 C.2    84  ALA84       0.2592
     13  O        -40.0780   48.2770   29.1950 O.2    84  ALA84      -0.2718
     14  CB       -40.1140   49.9230   26.1480 C.3    84  ALA84       0.0304
     15  N        -41.6460   47.9110   27.6100 N.am   85  ASN85      -0.1974
     16  CA       -41.8650   46.5080   27.9290 C.3    85  ASN85       0.1688
     17  C        -41.1750   45.6550   26.8670 C.2    85  ASN85       0.2292
     18  O        -41.2500   45.9690   25.6760 O.2    85  ASN85      -0.2864
     19  CB       -43.3660   46.2020   27.9950 C.3    85  ASN85       0.1181
     20  CG       -43.6870   44.9700   28.8290 C.2    85  ASN85       0.2629
     21  OD1      -42.7960   44.3280   29.3880 O.2    85  ASN85      -0.2716
     22  ND2      -44.9730   44.6460   28.9290 N.am   85  ASN85      -0.0877
     23  N        -40.5800   44.8000   31.9250 N.3   103  TRP103     -0.1227
     24  CA       -40.5630   46.2370   31.6680 C.3   103  TRP103      0.1737
     25  C        -39.4390   46.9440   32.4120 C.2   103  TRP103      0.2595
     26  O        -39.0370   46.5530   33.5140 O.2   103  TRP103     -0.2718
     27  CB       -41.9150   46.8840   32.0020 C.3   103  TRP103      0.0564
     28  CG       -42.5210   46.5420   33.3230 C.ar  103  TRP103      0.0003
     29  CD1      -43.4310   45.5570   33.5750 C.ar  103  TRP103      0.0946
     30  CD2      -42.3000   47.2120   34.5670 C.ar  103  TRP103      0.0152
     31  NE1      -43.7790   45.5630   34.9030 N.ar  103  TRP103     -0.2442
     32  CE2      -43.1000   46.5720   35.5340 C.ar  103  TRP103      0.0810
     33  CE3      -41.4980   48.2880   34.9600 C.ar  103  TRP103      0.0012
     34  CZ2      -43.1150   46.9660   36.8700 C.ar  103  TRP103      0.0191
     35  CZ3      -41.5160   48.6800   36.2850 C.ar  103  TRP103      0.0001
     36  CH2      -42.3190   48.0210   37.2240 C.ar  103  TRP103      0.0015
     37  N        -38.9290   47.9820   31.7600 N.am  104  VAL104     -0.1966
     38  CA       -37.8370   48.7910   32.2680 C.3   104  VAL104      0.1727
     39  C        -38.3480   50.2050   32.4940 C.2   104  VAL104      0.2616
     40  O        -38.8270   50.8470   31.5570 O.2   104  VAL104     -0.2715
     41  CB       -36.6470   48.8180   31.2870 C.3   104  VAL104      0.0290
     42  CG1      -35.4890   49.5980   31.8770 C.3   104  VAL104      0.0023
     43  CG2      -36.2140   47.3980   30.9310 C.3   104  VAL104      0.0023
     44  N        -38.2600   50.6820   33.7330 N.am  105  ASP105     -0.1971
     45  CA       -38.6940   52.0380   34.0500 C.3   105  ASP105      0.1709
     46  C        -37.5120   52.8810   34.5240 C.2   105  ASP105      0.2293
     47  O        -36.3860   52.3910   34.6300 O.2   105  ASP105     -0.2864
     48  CB       -39.8250   52.0100   35.0910 C.3   105  ASP105      0.1436
     49  CG       -39.3420   51.7050   36.4970 C.2   105  ASP105      0.3671
     50  OD1      -40.1590   51.8630   37.4330 O.co2 105  ASP105     -0.2456
     51  OD2      -38.1690   51.3150   36.6730 O.co2 105  ASP105     -0.2456
     52  N        -42.5130   50.8170   41.8400 N.3   142  ARG142     -0.1245
     53  CA       -43.9120   50.5940   41.5030 C.3   142  ARG142      0.1563
     54  C        -44.5780   49.5530   42.3980 C.2   142  ARG142      0.2260
     55  O        -45.7900   49.6050   42.6120 O.2   142  ARG142     -0.2867
     56  CB       -44.0290   50.1650   40.0390 C.3   142  ARG142      0.0307
     57  CG       -45.4460   50.1880   39.4870 C.3   142  ARG142      0.0489
     58  CD       -45.4610   49.7210   38.0370 C.3   142  ARG142      0.2205
     59  NE       -46.7910   49.7870   37.4360 N.pl3 142  ARG142     -0.0865
     60  CZ       -47.7270   48.8530   37.5720 C.cat 142  ARG142      0.5346
     61  NH1      -47.4980   47.7700   38.3040 N.pl3 142  ARG142      0.1354
     62  NH2      -48.9030   49.0070   36.9790 N.pl3 142  ARG142      0.1354
     63  N        -49.2610   55.6790   34.7390 N.3   165  GLU165     -0.1231
     64  CA       -47.9680   55.5530   34.0820 C.3   165  GLU165      0.1699
     65  C        -46.9360   56.3150   34.9040 C.2   165  GLU165      0.2592
     66  O        -47.2850   57.2300   35.6530 O.2   165  GLU165     -0.2718
     67  CB       -48.0250   56.0930   32.6490 C.3   165  GLU165      0.0402
     68  CG       -48.9880   55.3430   31.7370 C.3   165  GLU165      0.1161
     69  CD       -48.4840   53.9640   31.3520 C.2   165  GLU165      0.3649
     70  OE1      -48.0250   53.7990   30.2020 O.co2 165  GLU165     -0.2457
     71  OE2      -48.5520   53.0450   32.1940 O.co2 165  GLU165     -0.2457
     72  N        -45.6710   55.9310   34.7770 N.am  166  GLN166     -0.1979
     73  CA       -44.6070   56.6100   35.5030 C.3   166  GLN166      0.1601
     74  C        -44.5880   58.0750   35.0870 C.2   166  GLN166      0.2287
     75  O        -44.5520   58.3880   33.9000 O.2   166  GLN166     -0.2864
     76  CB       -43.2470   55.9590   35.2380 C.3   166  GLN166      0.0394
     77  CG       -42.1570   56.4670   36.1740 C.3   166  GLN166      0.0908
     78  CD       -40.8220   55.7720   35.9760 C.2   166  GLN166      0.2608
     79  OE1      -40.4990   55.3110   34.8800 O.2   166  GLN166     -0.2717
     80  NE2      -40.0360   55.7000   37.0450 N.am  166  GLN166     -0.0878
     81  N        -45.0560   56.8190   40.6780 N.3   173  TYR173     -0.1241
     82  CA       -46.3400   56.2030   40.3630 C.3   173  TYR173      0.1605
     83  C        -47.3980   56.6010   41.3860 C.2   173  TYR173      0.2264
     84  O        -47.0750   56.9970   42.5080 O.2   173  TYR173     -0.2867
     85  CB       -46.2230   54.6790   40.3430 C.3   173  TYR173      0.0534
     86  CG       -45.2370   54.1300   39.3420 C.ar  173  TYR173     -0.0201
     87  CD1      -45.6450   53.7750   38.0630 C.ar  173  TYR173     -0.0009
     88  CD2      -43.9010   53.9490   39.6780 C.ar  173  TYR173     -0.0009
     89  CE1      -44.7500   53.2630   37.1440 C.ar  173  TYR173      0.0417
     90  CE2      -42.9970   53.4390   38.7650 C.ar  173  TYR173      0.0417
     91  CZ       -43.4280   53.0980   37.4990 C.ar  173  TYR173      0.1957
     92  OH       -42.5390   52.5890   36.5830 O.3   173  TYR173     -0.2866
@<TRIPOS>BOND
     1     8     7    1
     2     8     9    1
     3     7     6    1
     4     2     1    1
     5     2     5    1
     6     2     3    1
     7     5     6    1
     8     3     4    2
     9    18    17    2
    10    14    11    1
    11    17    16    1
    12    15    16    1
    13    15    12   am
    14    11    12    1
    15    11    10    1
    16    16    19    1
    17    19    20    1
    18    12    13    2
    19    20    22   am
    20    20    21    2
    21    70    69   ar
    22    43    41    1
    23    41    42    1
    24    41    38    1
    25    69    68    1
    26    69    71   ar
    27    40    39    2
    28    24    23    1
    29    24    27    1
    30    24    25    1
    31    68    67    1
    32    37    38    1
    33    37    25   am
    34    27    28    1
    35    38    39    1
    36    25    26    2
    37    39    44   am
    38    67    64    1
    39    28    29   ar
    40    28    30   ar
    41    29    31   ar
    42    44    45    1
    43    75    74    2
    44    45    46    1
    45    45    48    1
    46    64    63    1
    47    64    65    1
    48    46    47    2
    49    30    33   ar
    50    30    32   ar
    51    72    65   am
    52    72    73    1
    53    79    78    2
    54    31    32   ar
    55    65    66    2
    56    33    35   ar
    57    74    73    1
    58    48    49    1
    59    76    73    1
    60    76    77    1
    61    32    34   ar
    62    78    77    1
    63    78    80   am
    64    35    36   ar
    65    49    51   ar
    66    49    50   ar
    67    92    91    1
    68    34    36   ar
    69    62    60    1
    70    89    91   ar
    71    89    87   ar
    72    59    60    2
    73    59    58    1
    74    91    90   ar
    75    60    61    1
    76    58    57    1
    77    87    86   ar
    78    90    88   ar
    79    86    88   ar
    80    86    85    1
    81    57    56    1
    82    56    53    1
    83    85    82    1
    84    82    81    1
    85    82    83    1
    86    83    84    2
    87    53    52    1
    88    53    54    1
    89    54    55    2
