@<TRIPOS>MOLECULE
tmp/4ydkA02.pdb
 76 74 0 0 0
SMALL
GASTEIGER

@<TRIPOS>ATOM
      1  N        -36.8550   19.3630  -25.4700 N.3    12  ALA12      -0.1245
      2  CA       -36.8320   18.1530  -26.2780 C.3    12  ALA12       0.1562
      3  C        -36.9670   16.9380  -25.3700 C.2    12  ALA12       0.2260
      4  O        -36.5750   16.9820  -24.2040 O.2    12  ALA12      -0.2867
      5  CB       -35.5510   18.0750  -27.0990 C.3    12  ALA12       0.0290
      6  N        -35.6040   14.3950  -29.4370 N.3    34  THR34      -0.1203
      7  CA       -34.2020   14.6180  -29.1060 C.3    34  THR34       0.1994
      8  C        -33.3190   14.4580  -30.3360 C.2    34  THR34       0.2617
      9  O        -33.7490   13.9130  -31.3520 O.2    34  THR34      -0.2717
     10  CB       -33.7140   13.6440  -28.0200 C.3    34  THR34       0.1784
     11  OG1      -33.8290   12.2980  -28.4980 O.3    34  THR34      -0.2211
     12  CG2      -34.5320   13.8040  -26.7480 C.3    34  THR34       0.0376
     13  N        -32.0830   14.9390  -30.2360 N.am   35  ASP35      -0.1973
     14  CA       -31.0930   14.7520  -31.2890 C.3    35  ASP35       0.1709
     15  C        -30.3180   13.4650  -31.0090 C.2    35  ASP35       0.2293
     16  O        -29.6010   13.3880  -30.0130 O.2    35  ASP35      -0.2864
     17  CB       -30.1410   15.9500  -31.3600 C.3    35  ASP35       0.1436
     18  CG       -29.3680   16.0110  -32.6680 C.2    35  ASP35       0.3671
     19  OD1      -29.1250   17.1320  -33.1630 O.co2  35  ASP35      -0.2456
     20  OD2      -29.0060   14.9420  -33.2030 O.co2  35  ASP35      -0.2456
     21  N        -26.0860   14.5830  -30.7900 N.3    38  PRO38      -0.2116
     22  CA       -25.9390   15.9800  -30.3660 C.3    38  PRO38       0.1372
     23  C        -24.4990   16.4810  -30.4430 C.2    38  PRO38       0.2244
     24  O        -23.5640   15.6800  -30.4200 O.2    38  PRO38      -0.2868
     25  CB       -26.4320   15.9530  -28.9190 C.3    38  PRO38       0.0268
     26  CG       -26.1090   14.5850  -28.4450 C.3    38  PRO38       0.0207
     27  CD       -26.2260   13.6730  -29.6380 C.3    38  PRO38       0.0892
     28  N        -35.0510   17.6730  -21.8800 N.3   100  HIS100     -0.1241
     29  CA       -33.8740   18.4400  -22.2710 C.3   100  HIS100      0.1621
     30  C        -34.2840   19.8690  -22.5990 C.2   100  HIS100      0.2264
     31  O        -35.3430   20.0850  -23.1830 O.2   100  HIS100     -0.2867
     32  CB       -33.1870   17.8010  -23.4810 C.3   100  HIS100      0.0745
     33  CG       -32.8440   16.3560  -23.2910 C.ar  100  HIS100      0.0817
     34  ND1      -31.5500   15.9150  -23.1180 N.ar  100  HIS100     -0.2268
     35  CD2      -33.6260   15.2510  -23.2520 C.ar  100  HIS100      0.1154
     36  CE1      -31.5490   14.6010  -22.9770 C.ar  100  HIS100      0.1986
     37  NE2      -32.7960   14.1740  -23.0550 N.ar  100  HIS100     -0.2212
     38  N        -22.8720   23.2330  -25.6550 N.3   129  VAL129     -0.1231
     39  CA       -23.8300   22.2050  -26.0520 C.3   129  VAL129      0.1692
     40  C        -25.0880   22.8060  -26.6680 C.2   129  VAL129      0.2592
     41  O        -25.3770   23.9910  -26.5030 O.2   129  VAL129     -0.2718
     42  CB       -24.2460   21.3210  -24.8550 C.3   129  VAL129      0.0266
     43  CG1      -23.0510   20.5480  -24.3210 C.3   129  VAL129      0.0020
     44  CG2      -24.8830   22.1620  -23.7540 C.3   129  VAL129      0.0020
     45  N        -25.8280   21.9650  -27.3800 N.am  130  GLN130     -0.1966
     46  CA       -27.1030   22.3520  -27.9680 C.3   130  GLN130      0.1733
     47  C        -28.2110   22.2850  -26.9270 C.2   130  GLN130      0.2616
     48  O        -29.1130   23.1240  -26.9080 O.2   130  GLN130     -0.2715
     49  CB       -27.4450   21.4450  -29.1540 C.3   130  GLN130      0.0408
     50  CG       -27.2290   19.9610  -28.8770 C.3   130  GLN130      0.0908
     51  CD       -28.2300   19.0760  -29.5900 C.2   130  GLN130      0.2608
     52  OE1      -28.3760   19.1380  -30.8110 O.2   130  GLN130     -0.2717
     53  NE2      -28.9290   18.2440  -28.8260 N.am  130  GLN130     -0.0878
     54  N        -28.1330   21.2800  -26.0600 N.am  131  CYS131     -0.1954
     55  CA       -29.1750   21.0240  -25.0760 C.3   131  CYS131      0.1843
     56  C        -28.5880   20.4790  -23.7790 C.2   131  CYS131      0.2626
     57  O        -27.4800   19.9420  -23.7630 O.2   131  CYS131     -0.2714
     58  CB       -30.2000   20.0330  -25.6350 C.3   131  CYS131      0.0997
     59  SG       -31.0000   20.5530  -27.1720 S.3   131  CYS131     -0.0797
     60  N        -29.3400   20.6230  -22.6930 N.am  132  THR132     -0.1936
     61  CA       -28.9610   20.0380  -21.4140 C.3   132  THR132      0.2028
     62  C        -29.1270   18.5270  -21.4660 C.2   132  THR132      0.2642
     63  O        -29.7030   17.9920  -22.4130 O.2   132  THR132     -0.2714
     64  CB       -29.8180   20.5850  -20.2570 C.3   132  THR132      0.1808
     65  OG1      -31.1730   20.1400  -20.4120 O.3   132  THR132     -0.2208
     66  CG2      -29.7810   22.1070  -20.2230 C.3   132  THR132      0.0379
     67  N        -28.6290   17.8410  -20.4450 N.am  133  HIS133     -0.1973
     68  CA       -28.9040   16.4200  -20.2860 C.3   133  HIS133      0.1656
     69  C        -30.3790   16.2350  -19.9410 C.2   133  HIS133      0.2291
     70  O        -31.0820   17.2050  -19.6620 O.2   133  HIS133     -0.2864
     71  CB       -28.0190   15.8120  -19.2000 C.3   133  HIS133      0.0771
     72  CG       -28.3030   16.3360  -17.8270 C.ar  133  HIS133      0.0820
     73  ND1      -27.8960   17.5840  -17.4070 N.ar  133  HIS133     -0.2267
     74  CD2      -28.9530   15.7800  -16.7770 C.ar  133  HIS133      0.1154
     75  CE1      -28.2830   17.7740  -16.1580 C.ar  133  HIS133      0.1986
     76  NE2      -28.9260   16.6950  -15.7520 N.ar  133  HIS133     -0.2212
@<TRIPOS>BOND
     1    20    18   ar
     2    19    18   ar
     3    18    17    1
     4    17    14    1
     5     9     8    2
     6    14    15    1
     7    14    13    1
     8    15    16    2
     9    52    51    2
    10    21    22    1
    11    21    27    1
    12    23    24    2
    13    23    22    1
    14    22    25    1
    15     8    13   am
    16     8     7    1
    17    27    26    1
    18    51    50    1
    19    51    53   am
    20     6     7    1
    21    49    50    1
    22    49    46    1
    23     7    10    1
    24    25    26    1
    25    11    10    1
    26    10    12    1
    27    46    45    1
    28    46    47    1
    29    45    40   am
    30    59    58    1
    31     5     2    1
    32    47    48    2
    33    47    54   am
    34    40    41    2
    35    40    39    1
    36     2     1    1
    37     2     3    1
    38    54    55    1
    39    39    38    1
    40    39    42    1
    41    58    55    1
    42     3     4    2
    43    55    56    1
    44    42    43    1
    45    42    44    1
    46    56    57    2
    47    56    60   am
    48    32    33    1
    49    32    29    1
    50    33    35   ar
    51    33    34   ar
    52    35    37   ar
    53    31    30    2
    54    34    36   ar
    55    37    36   ar
    56    60    61    1
    57    30    29    1
    58    63    62    2
    59    29    28    1
    60    62    61    1
    61    62    67   am
    62    61    64    1
    63    67    68    1
    64    65    64    1
    65    68    69    1
    66    68    71    1
    67    64    66    1
    68    69    70    2
    69    71    72    1
    70    72    73   ar
    71    72    74   ar
    72    73    75   ar
    73    74    76   ar
    74    75    76   ar
