@<TRIPOS>MOLECULE
tmp/4ydnA00.pdb
 77 70 0 0 0
SMALL
GASTEIGER

@<TRIPOS>ATOM
      1  N          3.7840  -10.9170    0.5030 N.3     4  MET4       -0.1245
      2  CA         2.4800  -10.2740    0.6000 C.3     4  MET4        0.1570
      3  C          1.9570   -9.9640   -0.7920 C.2     4  MET4        0.2261
      4  O          2.7390   -9.6790   -1.6930 O.2     4  MET4       -0.2867
      5  CB         2.5780   -8.9910    1.4180 C.3     4  MET4        0.0387
      6  CG         1.2320   -8.3950    1.8090 C.3     4  MET4        0.0595
      7  SD         0.6110   -7.1630    0.6560 S.3     4  MET4       -0.1393
      8  CE         1.3350   -5.6780    1.3330 C.3     4  MET4        0.0692
      9  N         -5.6660   -4.2880   -6.4200 N.3     7  LEU7       -0.1245
     10  CA        -6.5220   -3.1080   -6.5700 C.3     7  LEU7        0.1561
     11  C         -7.3880   -3.2610   -7.8160 C.2     7  LEU7        0.2260
     12  O         -7.0210   -3.9110   -8.8000 O.2     7  LEU7       -0.2867
     13  CB        -5.6740   -1.8490   -6.7160 C.3     7  LEU7        0.0270
     14  CG        -4.7880   -1.4710   -5.5150 C.3     7  LEU7        0.0019
     15  CD1       -3.9510   -0.2390   -5.8530 C.3     7  LEU7        0.0001
     16  CD2       -5.6180   -1.2230   -4.2620 C.3     7  LEU7        0.0001
     17  N         -5.4370   -6.9850    0.6090 N.3    44  GLU44      -0.1245
     18  CA        -4.1500   -7.5600    0.9750 C.3    44  GLU44       0.1567
     19  C         -4.2850   -8.9950    1.4430 C.2    44  GLU44       0.2260
     20  O         -5.2830   -9.3980    2.0310 O.2    44  GLU44      -0.2867
     21  CB        -3.4790   -6.7380    2.1000 C.3    44  GLU44       0.0388
     22  CG        -3.1720   -5.3010    1.6740 C.3    44  GLU44       0.1160
     23  CD        -2.4380   -4.4410    2.6970 C.2    44  GLU44       0.3649
     24  OE1       -2.1400   -4.9190    3.8090 O.co2  44  GLU44      -0.2457
     25  OE2       -2.1470   -3.2580    2.3660 O.co2  44  GLU44      -0.2457
     26  N          6.6040   -7.9080   -1.8810 N.3    96  THR96      -0.1218
     27  CA         5.2040   -7.5450   -2.0850 C.3    96  THR96       0.1862
     28  C          4.9230   -7.6200   -3.5750 C.2    96  THR96       0.2287
     29  O          5.5930   -6.9470   -4.3660 O.2    96  THR96      -0.2866
     30  CB         4.8750   -6.1360   -1.5620 C.3    96  THR96       0.1770
     31  OG1        5.0840   -6.0950   -0.1550 O.3    96  THR96      -0.2211
     32  CG2        3.4210   -5.7910   -1.8280 C.3    96  THR96       0.0375
     33  N          2.1640   -6.6710   -6.1800 N.3    98  ALA98      -0.1231
     34  CA         0.9960   -5.8330   -6.3460 C.3    98  ALA98       0.1694
     35  C          0.4270   -5.9890   -7.7380 C.2    98  ALA98       0.2592
     36  O          1.1920   -6.1590   -8.7200 O.2    98  ALA98      -0.2718
     37  CB         1.3390   -4.3790   -6.0820 C.3    98  ALA98       0.0304
     38  N         -0.9000   -5.8880   -7.8340 N.am   99  ALA99      -0.1966
     39  CA        -1.5660   -5.9690   -9.1270 C.3    99  ALA99       0.1728
     40  C         -2.7120   -4.9990   -9.1560 C.2    99  ALA99       0.2616
     41  O         -3.4280   -4.8350   -8.1770 O.2    99  ALA99      -0.2715
     42  CB        -2.0560   -7.3630   -9.4130 C.3    99  ALA99       0.0334
     43  N         -2.8920   -4.3680  -10.3170 N.am  100  LEU100     -0.1977
     44  CA        -3.9790   -3.4310  -10.5950 C.3   100  LEU100      0.1596
     45  C         -4.8170   -4.0170  -11.7420 C.2   100  LEU100      0.2287
     46  O         -4.2580   -4.2450  -12.8310 O.2   100  LEU100     -0.2864
     47  CB        -3.4100   -2.0680  -11.0100 C.3   100  LEU100      0.0297
     48  CG        -4.4290   -0.9860  -11.4250 C.3   100  LEU100      0.0022
     49  CD1       -5.3730   -0.6430  -10.2820 C.3   100  LEU100      0.0001
     50  CD2       -3.6920    0.2630  -11.8930 C.3   100  LEU100      0.0001
     51  N         -1.8400   -4.6270  -14.5080 N.3   107  SER107     -0.1202
     52  CA        -0.4320   -4.3250  -14.2850 C.3   107  SER107      0.2020
     53  C          0.0010   -5.0220  -12.9980 C.2   107  SER107      0.2619
     54  O         -0.7860   -5.1440  -12.0580 O.2   107  SER107     -0.2717
     55  CB        -0.1650   -2.8130  -14.2020 C.3   107  SER107      0.2103
     56  OG        -1.0600   -2.1280  -13.3470 O.3   107  SER107     -0.2182
     57  N          1.2570   -5.4860  -12.9790 N.am  108  THR108     -0.1938
     58  CA         1.8320   -6.0860  -11.7780 C.3   108  THR108      0.2028
     59  C          3.2160   -5.5660  -11.5450 C.2   108  THR108      0.2642
     60  O          3.9780   -5.3910  -12.4930 O.2   108  THR108     -0.2714
     61  CB         1.8040   -7.6060  -11.8690 C.3   108  THR108      0.1808
     62  OG1        2.1840   -8.1530  -10.6210 O.3   108  THR108     -0.2208
     63  CG2        2.6970   -8.1590  -12.9660 C.3   108  THR108      0.0379
     64  N          3.5400   -5.3130  -10.2820 N.am  109  THR109     -0.1950
     65  CA         4.8490   -4.8500   -9.8990 C.3   109  THR109      0.1897
     66  C          5.2890   -5.5520   -8.6180 C.2   109  THR109      0.2313
     67  O          4.4810   -6.0730   -7.8550 O.2   109  THR109     -0.2863
     68  CB         4.8990   -3.3150   -9.7620 C.3   109  THR109      0.1794
     69  OG1        6.2750   -2.9020   -9.7310 O.3   109  THR109     -0.2208
     70  CG2        4.1890   -2.8190   -8.5570 C.3   109  THR109      0.0378
     71  N          7.6930   -5.0710   -5.0240 N.3   111  VAL111     -0.1245
     72  CA         8.4870   -4.2820   -4.1080 C.3   111  VAL111      0.1561
     73  C          9.2770   -5.2760   -3.2800 C.2   111  VAL111      0.2260
     74  O          8.7080   -6.1150   -2.5480 O.2   111  VAL111     -0.2867
     75  CB         7.6310   -3.3880   -3.2200 C.3   111  VAL111      0.0252
     76  CG1        8.5040   -2.5670   -2.2570 C.3   111  VAL111      0.0019
     77  CG2        6.7930   -2.4650   -4.1090 C.3   111  VAL111      0.0019
@<TRIPOS>BOND
     1    51    52    1
     2    52    55    1
     3    52    53    1
     4    55    56    1
     5    53    57   am
     6    53    54    2
     7    57    58    1
     8    63    61    1
     9    46    45    2
    10    60    59    2
    11    50    48    1
    12    61    58    1
    13    61    62    1
    14    58    59    1
    15    45    44    1
    16    59    64   am
    17    48    47    1
    18    48    49    1
    19    47    44    1
    20    44    43    1
    21    43    40   am
    22    64    65    1
    23    65    68    1
    24    65    66    1
    25    68    69    1
    26    68    70    1
    27    42    39    1
    28    40    39    1
    29    40    41    2
    30    39    38    1
    31    12    11    2
    32    36    35    2
    33    66    67    2
    34    38    35   am
    35    11    10    1
    36    35    34    1
    37    13    10    1
    38    13    14    1
    39    10     9    1
    40    34    33    1
    41    34    37    1
    42    15    14    1
    43    14    16    1
    44    71    72    1
    45    29    28    2
    46    77    75    1
    47    72    73    1
    48    72    75    1
    49    28    27    1
    50    73    74    2
    51    75    76    1
    52    27    26    1
    53    27    30    1
    54    32    30    1
    55     4     3    2
    56    30    31    1
    57     3     2    1
    58     1     2    1
    59     2     5    1
    60    17    18    1
    61     7     8    1
    62     7     6    1
    63    18    19    1
    64    18    21    1
    65     5     6    1
    66    19    20    2
    67    22    21    1
    68    22    23    1
    69    25    23   ar
    70    23    24   ar
