@<TRIPOS>MOLECULE
tmp/4ydqA00.pdb
 207 200 0 0 0
SMALL
GASTEIGER

@<TRIPOS>ATOM
      1  N        186.9300   16.6280   33.4010 N.3    82  PHE82      -0.1241
      2  CA       187.1130   15.1900   33.2180 C.3    82  PHE82       0.1605
      3  C        188.5150   14.8270   32.7350 C.2    82  PHE82       0.2264
      4  O        188.9390   13.6760   32.8380 O.2    82  PHE82      -0.2867
      5  CB       186.0950   14.6600   32.2130 C.3    82  PHE82       0.0534
      6  CG       184.6840   14.6890   32.7030 C.ar   82  PHE82      -0.0203
      7  CD1      184.3660   14.2200   33.9730 C.ar   82  PHE82      -0.0042
      8  CD2      183.6660   15.1790   31.8880 C.ar   82  PHE82      -0.0042
      9  CE1      183.0450   14.2370   34.4240 C.ar   82  PHE82      -0.0003
     10  CE2      182.3530   15.1970   32.3220 C.ar   82  PHE82      -0.0003
     11  CZ       182.0370   14.7280   33.5920 C.ar   82  PHE82      -0.0000
     12  N        191.2060   12.2060   33.8440 N.3    85  GLU85      -0.1245
     13  CA       190.7880   10.8110   33.8840 C.3    85  GLU85       0.1567
     14  C        190.8730   10.0830   32.5330 C.2    85  GLU85       0.2260
     15  O        190.6210    8.8760   32.4710 O.2    85  GLU85      -0.2867
     16  CB       189.3660   10.7140   34.4260 C.3    85  GLU85       0.0388
     17  CG       189.1820   11.1670   35.8690 C.3    85  GLU85       0.1160
     18  CD       187.7120   11.1230   36.3140 C.2    85  GLU85       0.3649
     19  OE1      186.8610   10.6080   35.5570 O.co2  85  GLU85      -0.2457
     20  OE2      187.4020   11.5990   37.4230 O.co2  85  GLU85      -0.2457
     21  N        188.1800    5.0300   32.7160 N.3   137  ARG137     -0.1245
     22  CA       188.3590    6.3210   33.3640 C.3   137  ARG137      0.1563
     23  C        189.4200    6.1410   34.4200 C.2   137  ARG137      0.2260
     24  O        189.2950    5.2870   35.3060 O.2   137  ARG137     -0.2867
     25  CB       187.0750    6.8440   34.0020 C.3   137  ARG137      0.0307
     26  CG       185.9410    7.0740   33.0460 C.3   137  ARG137      0.0489
     27  CD       184.6420    7.4400   33.7900 C.3   137  ARG137      0.2205
     28  NE       183.4950    7.4470   32.8720 N.pl3 137  ARG137     -0.0865
     29  CZ       182.2380    7.6800   33.2260 C.cat 137  ARG137      0.5346
     30  NH1      181.9470    7.8850   34.5090 N.pl3 137  ARG137      0.1354
     31  NH2      181.2620    7.6750   32.3050 N.pl3 137  ARG137      0.1354
     32  N        190.3140    6.7770   37.3210 N.3   139  GLU139     -0.1245
     33  CA       189.8190    7.3330   38.5760 C.3   139  GLU139      0.1567
     34  C        190.9540    7.7310   39.5170 C.2   139  GLU139      0.2260
     35  O        191.8900    6.9360   39.7750 O.2   139  GLU139     -0.2867
     36  CB       188.8990    6.3400   39.2910 C.3   139  GLU139      0.0388
     37  CG       187.6850    5.8810   38.4530 C.3   139  GLU139      0.1160
     38  CD       186.6160    6.9630   38.3040 C.2   139  GLU139      0.3649
     39  OE1      186.5050    7.8450   39.1820 O.co2 139  GLU139     -0.2457
     40  OE2      185.9090    6.9490   37.2870 O.co2 139  GLU139     -0.2457
     41  N        189.7350    9.1960   42.4840 N.3   141  LYS141     -0.1245
     42  CA       189.0160    8.8020   43.6930 C.3   141  LYS141      0.1561
     43  C        189.3320    7.3420   43.9610 C.2   141  LYS141      0.2260
     44  O        189.6190    6.5950   43.0280 O.2   141  LYS141     -0.2867
     45  CB       187.5000    9.0100   43.5440 C.3   141  LYS141      0.0271
     46  CG       187.1050   10.4300   43.1620 C.3   141  LYS141      0.0035
     47  CD       185.6630   10.5150   42.6720 C.3   141  LYS141      0.0206
     48  CE       185.5370   11.5250   41.5250 C.3   141  LYS141      0.1093
     49  NZ       184.1470   11.6440   40.9750 N.3   141  LYS141     -0.1314
     50  N        183.8470   -3.2860   41.7610 N.3   146  PHE146     -0.1227
     51  CA       182.4690   -2.9940   41.3180 C.3   146  PHE146      0.1736
     52  C        182.0610   -1.5270   41.4600 C.2   146  PHE146      0.2595
     53  O        181.6480   -0.9000   40.4900 O.2   146  PHE146     -0.2718
     54  CB       181.4690   -3.8680   42.0720 C.3   146  PHE146      0.0547
     55  CG       181.6700   -5.3380   41.8570 C.ar  146  PHE146     -0.0202
     56  CD1      181.4710   -5.9000   40.6070 C.ar  146  PHE146     -0.0042
     57  CD2      182.0690   -6.1600   42.8980 C.ar  146  PHE146     -0.0042
     58  CE1      181.6590   -7.2600   40.4010 C.ar  146  PHE146     -0.0003
     59  CE2      182.2600   -7.5320   42.6960 C.ar  146  PHE146     -0.0003
     60  CZ       182.0530   -8.0800   41.4530 C.ar  146  PHE146     -0.0000
     61  N        182.2000   -0.9800   42.6670 N.am  147  ILE147     -0.1966
     62  CA       181.7040    0.3580   42.9750 C.3   147  ILE147      0.1727
     63  C        182.3670    1.4810   42.1740 C.2   147  ILE147      0.2616
     64  O        181.6840    2.3830   41.6690 O.2   147  ILE147     -0.2715
     65  CB       181.8640    0.6640   44.4690 C.3   147  ILE147      0.0290
     66  CG1      181.0960   -0.3600   45.2980 C.3   147  ILE147      0.0022
     67  CG2      181.3640    2.0540   44.7690 C.3   147  ILE147      0.0023
     68  CD1      179.5950   -0.4540   44.9570 C.3   147  ILE147      0.0001
     69  N        183.6900    1.4370   42.0660 N.am  148  ARG148     -0.1963
     70  CA       184.4240    2.4620   41.3340 C.3   148  ARG148      0.1729
     71  C        185.6850    1.8270   40.7820 C.2   148  ARG148      0.2616
     72  O        186.6720    1.6270   41.5110 O.2   148  ARG148     -0.2715
     73  CB       184.7530    3.6780   42.2310 C.3   148  ARG148      0.0348
     74  CG       185.4400    4.8260   41.4890 C.3   148  ARG148      0.0492
     75  CD       185.5760    6.1160   42.3270 C.3   148  ARG148      0.2205
     76  NE       184.2790    6.6930   42.6870 N.pl3 148  ARG148     -0.0865
     77  CZ       183.5010    7.3780   41.8450 C.cat 148  ARG148      0.5346
     78  NH1      183.8790    7.5760   40.5820 N.pl3 148  ARG148      0.1354
     79  NH2      182.3350    7.8620   42.2630 N.pl3 148  ARG148      0.1354
     80  N        185.6470    1.4990   39.4910 N.am  149  THR149     -0.1951
     81  CA       186.7320    0.7620   38.8570 C.3   149  THR149      0.1897
     82  C        187.1840    1.5640   37.6530 C.2   149  THR149      0.2313
     83  O        186.4130    2.3540   37.1340 O.2   149  THR149     -0.2863
     84  CB       186.2980   -0.6790   38.4540 C.3   149  THR149      0.1794
     85  OG1      185.3830   -0.6410   37.3480 O.3   149  THR149     -0.2208
     86  CG2      185.6200   -1.3870   39.6420 C.3   149  THR149      0.0378
     87  N        185.2780   -0.3310   33.4430 N.3   152  PHE152     -0.1241
     88  CA       184.0550   -1.0180   33.8610 C.3   152  PHE152      0.1605
     89  C        183.1570   -1.3490   32.6990 C.2   152  PHE152      0.2264
     90  O        183.2490   -0.7370   31.6200 O.2   152  PHE152     -0.2867
     91  CB       183.2600   -0.2240   34.9120 C.3   152  PHE152      0.0534
     92  CG       182.9800    1.2140   34.5430 C.ar  152  PHE152     -0.0203
     93  CD1      181.8040    1.5730   33.8910 C.ar  152  PHE152     -0.0042
     94  CD2      183.8750    2.2170   34.8980 C.ar  152  PHE152     -0.0042
     95  CE1      181.5230    2.9110   33.5890 C.ar  152  PHE152     -0.0003
     96  CE2      183.6110    3.5590   34.5910 C.ar  152  PHE152     -0.0003
     97  CZ       182.4380    3.9000   33.9330 C.ar  152  PHE152     -0.0000
     98  N        179.3020   -1.6360   31.2160 N.3   154  TRP154     -0.1241
     99  CA       178.0400   -0.9960   31.4210 C.3   154  TRP154      0.1605
    100  C        177.2400   -0.9490   30.1410 C.2   154  TRP154      0.2264
    101  O        177.6180   -1.4970   29.0880 O.2   154  TRP154     -0.2867
    102  CB       178.2900    0.3900   31.9760 C.3   154  TRP154      0.0550
    103  CG       179.1250    1.0250   31.0970 C.ar  154  TRP154      0.0003
    104  CD1      180.4170    0.7240   30.7900 C.ar  154  TRP154      0.0946
    105  CD2      178.8390    2.2370   30.4130 C.ar  154  TRP154      0.0152
    106  NE1      180.9100    1.6440   29.8890 N.ar  154  TRP154     -0.2442
    107  CE2      179.9510    2.5890   29.6670 C.ar  154  TRP154      0.0810
    108  CE3      177.7670    3.0860   30.3960 C.ar  154  TRP154      0.0012
    109  CZ2      179.9900    3.7360   28.8650 C.ar  154  TRP154      0.0191
    110  CZ3      177.8380    4.2560   29.6600 C.ar  154  TRP154      0.0001
    111  CH2      178.9310    4.5690   28.8990 C.ar  154  TRP154      0.0015
    112  N        174.8210   16.0870   35.5720 N.3   201  PHE201     -0.1241
    113  CA       175.6660   16.0500   34.3870 C.3   201  PHE201      0.1605
    114  C        175.6560   17.4200   33.6860 C.2   201  PHE201      0.2264
    115  O        174.5930   17.9220   33.3300 O.2   201  PHE201     -0.2867
    116  CB       175.1600   14.9430   33.4640 C.3   201  PHE201      0.0534
    117  CG       175.8970   14.8210   32.1520 C.ar  201  PHE201     -0.0203
    118  CD1      177.2710   15.0030   32.0780 C.ar  201  PHE201     -0.0042
    119  CD2      175.2050   14.4590   30.9940 C.ar  201  PHE201     -0.0042
    120  CE1      177.9460   14.8430   30.8710 C.ar  201  PHE201     -0.0003
    121  CE2      175.8760   14.3100   29.7870 C.ar  201  PHE201     -0.0003
    122  CZ       177.2590   14.4970   29.7310 C.ar  201  PHE201     -0.0000
    123  N        175.2490    6.4850   44.0390 N.3   222  GLN222     -0.1231
    124  CA       174.4600    6.6320   42.8470 C.3   222  GLN222      0.1698
    125  C        174.4450    5.3220   42.0690 C.2   222  GLN222      0.2592
    126  O        175.4730    4.7770   41.6820 O.2   222  GLN222     -0.2718
    127  CB       174.9900    7.7590   41.9870 C.3   222  GLN222      0.0381
    128  CG       174.1870    7.9190   40.7400 C.3   222  GLN222      0.0905
    129  CD       174.5720    9.1630   39.9750 C.2   222  GLN222      0.2608
    130  OE1      173.7060    9.8550   39.4280 O.2   222  GLN222     -0.2717
    131  NE2      175.8750    9.4630   39.9340 N.am  222  GLN222     -0.0878
    132  N        173.2370    4.8490   41.8320 N.am  223  ALA223     -0.1966
    133  CA       172.9760    3.5140   41.3580 C.3   223  ALA223      0.1728
    134  C        172.7540    3.4560   39.8420 C.2   223  ALA223      0.2616
    135  O        173.0470    2.4460   39.2200 O.2   223  ALA223     -0.2715
    136  CB       171.7830    2.9630   42.1070 C.3   223  ALA223      0.0334
    137  N        172.2800    4.5530   39.2560 N.am  224  ALA224     -0.1963
    138  CA       172.0390    4.6590   37.8140 C.3   224  ALA224      0.1728
    139  C        171.6170    6.0820   37.4740 C.2   224  ALA224      0.2616
    140  O        171.0810    6.8080   38.3210 O.2   224  ALA224     -0.2715
    141  CB       170.9480    3.6590   37.3330 C.3   224  ALA224      0.0334
    142  N        171.8260    6.4570   36.2170 N.am  225  THR225     -0.1951
    143  CA       171.5330    7.8190   35.7670 C.3   225  THR225      0.1897
    144  C        170.6770    7.8160   34.5240 C.2   225  THR225      0.2313
    145  O        170.8480    6.9810   33.6480 O.2   225  THR225     -0.2863
    146  CB       172.7970    8.6190   35.4230 C.3   225  THR225      0.1794
    147  OG1      173.3240    8.1520   34.1700 O.3   225  THR225     -0.2208
    148  CG2      173.8450    8.4730   36.5160 C.3   225  THR225      0.0378
    149  N        169.2620   11.0010   31.9890 N.3   227  HIS227     -0.1241
    150  CA       169.2700   12.4390   31.7220 C.3   227  HIS227      0.1621
    151  C        168.3010   12.8720   30.6410 C.2   227  HIS227      0.2264
    152  O        168.2330   12.2670   29.5620 O.2   227  HIS227     -0.2867
    153  CB       170.6560   12.9350   31.2660 C.3   227  HIS227      0.0745
    154  CG       171.8040   12.4040   32.0600 C.ar  227  HIS227      0.0817
    155  ND1      172.1830   12.9430   33.2690 N.ar  227  HIS227     -0.2268
    156  CD2      172.6820   11.4050   31.8010 C.ar  227  HIS227      0.1154
    157  CE1      173.2380   12.2970   33.7270 C.ar  227  HIS227      0.1986
    158  NE2      173.5580   11.3530   32.8590 N.ar  227  HIS227     -0.2212
    159  N        172.6740    5.4050   31.7510 N.3   257  GLY257     -0.1210
    160  CA       173.6950    4.3950   31.8860 C.3   257  GLY257      0.1956
    161  C        173.6180    3.6960   33.2120 C.2   257  GLY257      0.2612
    162  O        173.1970    4.3080   34.2090 O.2   257  GLY257     -0.2717
    163  N        174.0130    2.4180   33.2070 N.am  258  CYS258     -0.1956
    164  CA       174.1170    1.6390   34.4560 C.3   258  CYS258      0.1843
    165  C        175.2630    0.6270   34.3040 C.2   258  CYS258      0.2626
    166  O        175.4810    0.0790   33.2110 O.2   258  CYS258     -0.2714
    167  CB       172.7750    0.9470   34.8030 C.3   258  CYS258      0.0997
    168  SG       172.7040    0.0530   36.4340 S.3   258  CYS258     -0.0797
    169  N        176.0230    0.4410   35.3870 N.am  259  THR259     -0.1950
    170  CA       177.2990   -0.2880   35.3610 C.3   259  THR259      0.1897
    171  C        177.3720   -1.4470   36.3450 C.2   259  THR259      0.2313
    172  O        176.4880   -1.6360   37.1680 O.2   259  THR259     -0.2863
    173  CB       178.4940    0.6440   35.6870 C.3   259  THR259      0.1794
    174  OG1      178.6430    0.7680   37.1130 O.3   259  THR259     -0.2208
    175  CG2      178.2820    2.0090   35.0760 C.3   259  THR259      0.0378
    176  N        178.7960   -1.5050   38.9040 N.3   261  ARG261     -0.1245
    177  CA       178.5980   -0.9680   40.2500 C.3   261  ARG261      0.1563
    178  C        177.3870   -1.5860   40.9480 C.2   261  ARG261      0.2260
    179  O        177.4190   -1.8690   42.1530 O.2   261  ARG261     -0.2867
    180  CB       178.4310    0.5400   40.2030 C.3   261  ARG261      0.0307
    181  CG       177.9690    1.0890   41.5360 C.3   261  ARG261      0.0489
    182  CD       177.8220    2.5710   41.5100 C.3   261  ARG261      0.2205
    183  NE       179.0980    3.2670   41.6080 N.pl3 261  ARG261     -0.0865
    184  CZ       179.1990    4.5680   41.8860 C.cat 261  ARG261      0.5346
    185  NH1      178.1040    5.3010   42.0860 N.pl3 261  ARG261      0.1354
    186  NH2      180.3810    5.1410   41.9550 N.pl3 261  ARG261      0.1354
    187  N        176.3380   15.9630   50.7850 N.3   452  LYS452     -0.1245
    188  CA       176.0010   16.6520   49.5450 C.3   452  LYS452      0.1561
    189  C        174.5530   16.3560   49.1290 C.2   452  LYS452      0.2260
    190  O        173.9320   15.4220   49.6500 O.2   452  LYS452     -0.2867
    191  CB       177.0030   16.2590   48.4490 C.3   452  LYS452      0.0271
    192  CG       176.9190   14.8130   47.9530 C.3   452  LYS452      0.0035
    193  CD       178.0220   14.5620   46.9130 C.3   452  LYS452      0.0206
    194  CE       177.8520   13.2220   46.1980 C.3   452  LYS452      0.1093
    195  NZ       178.7340   13.1090   44.9880 N.3   452  LYS452     -0.1314
    196  N        179.8470    7.6830   48.3610 N.3   486  TYR486     -0.1241
    197  CA       181.0330    7.1650   47.6800 C.3   486  TYR486      0.1605
    198  C        181.5070    8.1280   46.6030 C.2   486  TYR486      0.2264
    199  O        180.6890    8.6820   45.8670 O.2   486  TYR486     -0.2867
    200  CB       180.7410    5.8020   47.0480 C.3   486  TYR486      0.0534
    201  CG       180.9540    4.6470   47.9890 C.ar  486  TYR486     -0.0201
    202  CD1      179.9790    4.2800   48.8890 C.ar  486  TYR486     -0.0009
    203  CD2      182.1420    3.9280   47.9790 C.ar  486  TYR486     -0.0009
    204  CE1      180.1660    3.2270   49.7430 C.ar  486  TYR486      0.0417
    205  CE2      182.3410    2.8760   48.8400 C.ar  486  TYR486      0.0417
    206  CZ       181.3450    2.5320   49.7230 C.ar  486  TYR486      0.1957
    207  OH       181.5250    1.4880   50.5980 O.3   486  TYR486     -0.2866
@<TRIPOS>BOND
     1   109   111   ar
     2   109   107   ar
     3   111   110   ar
     4   101   100    2
     5   152   151    2
     6   110   108   ar
     7   107   106   ar
     8   107   105   ar
     9   122   121   ar
    10   122   120   ar
    11   121   119   ar
    12   106   104   ar
    13   100    99    1
    14   108   105   ar
    15   105   103   ar
    16   151   150    1
    17   104   103   ar
    18   120   118   ar
    19   119   117   ar
    20   103   102    1
    21    98    99    1
    22   153   150    1
    23   153   154    1
    24    99   102    1
    25    90    89    2
    26   150   149    1
    27   159   160    1
    28   156   154   ar
    29   156   158   ar
    30   160   161    1
    31     8    10   ar
    32     8     6   ar
    33   154   155   ar
    34   118   117   ar
    35   117   116    1
    36     5     6    1
    37     5     2    1
    38    31    29    1
    39    10    11   ar
    40    15    14    2
    41    14    13    1
    42    89    88    1
    43     6     7   ar
    44    21    22    1
    45     3     4    2
    46     3     2    1
    47   158   157   ar
    48    28    29    2
    49    28    27    1
    50    26    27    1
    51    26    25    1
    52   163   161   am
    53   163   164    1
    54   166   165    2
    55   161   162    2
    56     2     1    1
    57    29    30    1
    58   155   157   ar
    59   115   114    2
    60    22    25    1
    61    22    23    1
    62    87    88    1
    63   116   113    1
    64    95    93   ar
    65    95    97   ar
    66    11     9   ar
    67   145   144    2
    68   114   113    1
    69    12    13    1
    70    88    91    1
    71    13    16    1
    72    93    92   ar
    73    97    96   ar
    74     7     9   ar
    75   147   146    1
    76   165   164    1
    77   165   169   am
    78   113   112    1
    79    23    24    2
    80    16    17    1
    81   164   167    1
    82   144   143    1
    83    92    94   ar
    84    92    91    1
    85    96    94   ar
    86   167   168    1
    87   175   173    1
    88   170   169    1
    89   170   173    1
    90   170   171    1
    91   146   143    1
    92   146   148    1
    93    19    18   ar
    94   173   174    1
    95   143   142    1
    96    17    18    1
    97   142   139   am
    98    18    20   ar
    99   171   172    2
   100    83    82    2
   101    40    38   ar
   102    32    33    1
   103   141   138    1
   104    85    84    1
   105   139   138    1
   106   139   140    2
   107    82    81    1
   108   138   137    1
   109    38    37    1
   110    38    39   ar
   111    37    36    1
   112    84    81    1
   113    84    86    1
   114    33    36    1
   115    33    34    1
   116    81    80    1
   117   176   177    1
   118   135   134    2
   119   137   134   am
   120   130   129    2
   121    80    71   am
   122    34    35    2
   123   134   133    1
   124   131   129   am
   125   129   128    1
   126   180   177    1
   127   180   181    1
   128   177   178    1
   129    58    56   ar
   130    58    60   ar
   131    53    52    2
   132    78    77    1
   133    56    55   ar
   134   128   127    1
   135    71    70    1
   136    71    72    2
   137   178   179    2
   138    49    48    1
   139    51    52    1
   140    51    50    1
   141    51    54    1
   142    70    69    1
   143    70    73    1
   144   133   132    1
   145   133   136    1
   146    60    59   ar
   147    52    61   am
   148    74    73    1
   149    74    75    1
   150   182   181    1
   151   182   183    1
   152    48    47    1
   153   183   184    2
   154    64    63    2
   155   126   125    2
   156   132   125   am
   157    77    79    1
   158    77    76    2
   159    55    54    1
   160    55    57   ar
   161   184   186    1
   162   184   185    1
   163   127   124    1
   164    69    63   am
   165   125   124    1
   166    63    62    1
   167    75    76    1
   168    41    42    1
   169    61    62    1
   170    47    46    1
   171    59    57   ar
   172   124   123    1
   173    62    65    1
   174    44    43    2
   175    46    45    1
   176    45    42    1
   177    42    43    1
   178    65    67    1
   179    65    66    1
   180    68    66    1
   181   195   194    1
   182   199   198    2
   183   194   193    1
   184   198   197    1
   185   193   192    1
   186   200   197    1
   187   200   201    1
   188   197   196    1
   189   192   191    1
   190   203   201   ar
   191   203   205   ar
   192   201   202   ar
   193   191   188    1
   194   205   206   ar
   195   202   204   ar
   196   189   188    1
   197   189   190    2
   198   188   187    1
   199   206   204   ar
   200   206   207    1
