@<TRIPOS>MOLECULE
tmp/4ydqA01.pdb
 160 156 0 0 0
SMALL
GASTEIGER

@<TRIPOS>ATOM
      1  N        187.3370   14.0910   20.8140 N.3    74  LEU74      -0.1245
      2  CA       187.0160   14.0300   22.2450 C.3    74  LEU74       0.1561
      3  C        186.9920   15.4010   22.8950 C.2    74  LEU74       0.2260
      4  O        186.2210   15.6310   23.8260 O.2    74  LEU74      -0.2867
      5  CB       188.0070   13.1430   22.9920 C.3    74  LEU74       0.0270
      6  CG       187.8420   13.0210   24.5110 C.3    74  LEU74       0.0019
      7  CD1      186.5370   12.3040   24.9020 C.3    74  LEU74       0.0001
      8  CD2      189.0410   12.2780   25.0900 C.3    74  LEU74       0.0001
      9  N        186.9300   16.6280   33.4010 N.3    82  PHE82      -0.1227
     10  CA       187.1130   15.1900   33.2180 C.3    82  PHE82       0.1736
     11  C        188.5150   14.8270   32.7350 C.2    82  PHE82       0.2596
     12  O        188.9390   13.6760   32.8380 O.2    82  PHE82      -0.2718
     13  CB       186.0950   14.6600   32.2130 C.3    82  PHE82       0.0547
     14  CG       184.6840   14.6890   32.7030 C.ar   82  PHE82      -0.0202
     15  CD1      184.3660   14.2200   33.9730 C.ar   82  PHE82      -0.0042
     16  CD2      183.6660   15.1790   31.8880 C.ar   82  PHE82      -0.0042
     17  CE1      183.0450   14.2370   34.4240 C.ar   82  PHE82      -0.0003
     18  CE2      182.3530   15.1970   32.3220 C.ar   82  PHE82      -0.0003
     19  CZ       182.0370   14.7280   33.5920 C.ar   82  PHE82      -0.0000
     20  N        189.2220   15.8250   32.2180 N.am   83  SER83      -0.1952
     21  CA       190.4810   15.6350   31.4960 C.3    83  SER83       0.1924
     22  C        191.5770   14.7630   32.1740 C.2    83  SER83       0.2314
     23  O        192.2290   13.9510   31.4870 O.2    83  SER83      -0.2863
     24  CB       191.0550   17.0120   31.1680 C.3    83  SER83       0.2116
     25  OG       191.8200   16.9570   29.9830 O.3    83  SER83      -0.2180
     26  N        191.2060   12.2060   33.8440 N.3    85  GLU85      -0.1231
     27  CA       190.7880   10.8110   33.8840 C.3    85  GLU85       0.1699
     28  C        190.8730   10.0830   32.5330 C.2    85  GLU85       0.2592
     29  O        190.6210    8.8760   32.4710 O.2    85  GLU85      -0.2718
     30  CB       189.3660   10.7140   34.4260 C.3    85  GLU85       0.0402
     31  CG       189.1820   11.1670   35.8690 C.3    85  GLU85       0.1161
     32  CD       187.7120   11.1230   36.3140 C.2    85  GLU85       0.3649
     33  OE1      186.8610   10.6080   35.5570 O.co2  85  GLU85      -0.2457
     34  OE2      187.4020   11.5990   37.4230 O.co2  85  GLU85      -0.2457
     35  N        191.2180   10.7970   31.4600 N.am   86  VAL86      -0.1980
     36  CA       191.3220   10.1940   30.1180 C.3    86  VAL86       0.1595
     37  C        192.5950    9.3620   29.9340 C.2    86  VAL86       0.2287
     38  O        193.7050    9.8560   30.1610 O.2    86  VAL86      -0.2864
     39  CB       191.3110   11.2650   28.9890 C.3    86  VAL86       0.0276
     40  CG1      191.4230   10.5930   27.5890 C.3    86  VAL86       0.0022
     41  CG2      190.0990   12.1810   29.0930 C.3    86  VAL86       0.0022
     42  N        185.7970    7.2360   27.5860 N.3   105  PRO105     -0.2102
     43  CA       185.3180    7.2620   28.9750 C.3   105  PRO105      0.1504
     44  C        183.7840    7.2670   29.0040 C.2   105  PRO105      0.2576
     45  O        183.1670    7.1460   30.0690 O.2   105  PRO105     -0.2718
     46  CB       185.8920    8.5740   29.5140 C.3   105  PRO105      0.0282
     47  CG       185.8460    9.5080   28.2780 C.3   105  PRO105      0.0208
     48  CD       186.0740    8.5920   27.0600 C.3   105  PRO105      0.0893
     49  N        183.2170    7.4310   27.8080 N.am  106  THR106     -0.1953
     50  CA       181.7820    7.4760   27.5140 C.3   106  THR106      0.1897
     51  C        181.7040    7.8380   26.0280 C.2   106  THR106      0.2313
     52  O        182.7190    8.2490   25.4520 O.2   106  THR106     -0.2863
     53  CB       181.0070    8.4870   28.3920 C.3   106  THR106      0.1794
     54  OG1      179.6220    8.4620   28.0240 O.3   106  THR106     -0.2208
     55  CG2      181.5880    9.9190   28.2650 C.3   106  THR106      0.0378
     56  N        179.3780    9.9850   24.0250 N.3   108  GLU108     -0.1245
     57  CA       178.8030   11.2300   23.4790 C.3   108  GLU108      0.1567
     58  C        179.5190   11.7640   22.2270 C.2   108  GLU108      0.2260
     59  O        178.9270   11.9130   21.1730 O.2   108  GLU108     -0.2867
     60  CB       178.8120   12.3350   24.5450 C.3   108  GLU108      0.0388
     61  CG       177.6470   12.2960   25.5420 C.3   108  GLU108      0.1160
     62  CD       177.8260   11.2480   26.6300 C.2   108  GLU108      0.3649
     63  OE1      178.7560   10.4250   26.5040 O.co2 108  GLU108     -0.2457
     64  OE2      177.0280   11.2360   27.6030 O.co2 108  GLU108     -0.2457
     65  N        188.1800    5.0300   32.7160 N.3   137  ARG137     -0.1245
     66  CA       188.3590    6.3210   33.3640 C.3   137  ARG137      0.1563
     67  C        189.4200    6.1410   34.4200 C.2   137  ARG137      0.2260
     68  O        189.2950    5.2870   35.3060 O.2   137  ARG137     -0.2867
     69  CB       187.0750    6.8440   34.0020 C.3   137  ARG137      0.0307
     70  CG       185.9410    7.0740   33.0460 C.3   137  ARG137      0.0489
     71  CD       184.6420    7.4400   33.7900 C.3   137  ARG137      0.2205
     72  NE       183.4950    7.4470   32.8720 N.pl3 137  ARG137     -0.0865
     73  CZ       182.2380    7.6800   33.2260 C.cat 137  ARG137      0.5346
     74  NH1      181.9470    7.8850   34.5090 N.pl3 137  ARG137      0.1354
     75  NH2      181.2620    7.6750   32.3050 N.pl3 137  ARG137      0.1354
     76  N        179.3020   -1.6360   31.2160 N.3   154  TRP154     -0.1241
     77  CA       178.0400   -0.9960   31.4210 C.3   154  TRP154      0.1605
     78  C        177.2400   -0.9490   30.1410 C.2   154  TRP154      0.2264
     79  O        177.6180   -1.4970   29.0880 O.2   154  TRP154     -0.2867
     80  CB       178.2900    0.3900   31.9760 C.3   154  TRP154      0.0550
     81  CG       179.1250    1.0250   31.0970 C.ar  154  TRP154      0.0003
     82  CD1      180.4170    0.7240   30.7900 C.ar  154  TRP154      0.0946
     83  CD2      178.8390    2.2370   30.4130 C.ar  154  TRP154      0.0152
     84  NE1      180.9100    1.6440   29.8890 N.ar  154  TRP154     -0.2442
     85  CE2      179.9510    2.5890   29.6670 C.ar  154  TRP154      0.0810
     86  CE3      177.7670    3.0860   30.3960 C.ar  154  TRP154      0.0012
     87  CZ2      179.9900    3.7360   28.8650 C.ar  154  TRP154      0.0191
     88  CZ3      177.8380    4.2560   29.6600 C.ar  154  TRP154      0.0001
     89  CH2      178.9310    4.5690   28.8990 C.ar  154  TRP154      0.0015
     90  N        175.3500    2.0740   27.9260 N.3   156  GLU156     -0.1245
     91  CA       174.9030    3.4680   27.5800 C.3   156  GLU156      0.1567
     92  C        173.8600    3.6130   26.4850 C.2   156  GLU156      0.2260
     93  O        174.1500    3.2650   25.3570 O.2   156  GLU156     -0.2867
     94  CB       176.1130    4.3810   27.1960 C.3   156  GLU156      0.0388
     95  CG       177.0310    3.9030   26.0750 C.3   156  GLU156      0.1160
     96  CD       178.2370    4.8380   25.8710 C.2   156  GLU156      0.3649
     97  OE1      178.0810    6.1050   25.8780 O.co2 156  GLU156     -0.2457
     98  OE2      179.3770    4.3240   25.6850 O.co2 156  GLU156     -0.2457
     99  N        171.5230    6.3210   24.2840 N.3   158  HIS158     -0.1241
    100  CA       171.3660    7.6880   23.8270 C.3   158  HIS158      0.1621
    101  C        170.1810    7.7380   22.8660 C.2   158  HIS158      0.2264
    102  O        170.0680    6.9080   21.9480 O.2   158  HIS158     -0.2867
    103  CB       172.6320    8.1760   23.1350 C.3   158  HIS158      0.0745
    104  CG       173.8800    7.9650   23.9360 C.ar  158  HIS158      0.0817
    105  ND1      174.5370    8.9940   24.5740 N.ar  158  HIS158     -0.2268
    106  CD2      174.5840    6.8390   24.2080 C.ar  158  HIS158      0.1154
    107  CE1      175.6070    8.5160   25.1890 C.ar  158  HIS158      0.1986
    108  NE2      175.6550    7.2080   24.9860 N.ar  158  HIS158     -0.2212
    109  N        174.8210   16.0870   35.5720 N.3   201  PHE201     -0.1241
    110  CA       175.6660   16.0500   34.3870 C.3   201  PHE201      0.1605
    111  C        175.6560   17.4200   33.6860 C.2   201  PHE201      0.2264
    112  O        174.5930   17.9220   33.3300 O.2   201  PHE201     -0.2867
    113  CB       175.1600   14.9430   33.4640 C.3   201  PHE201      0.0534
    114  CG       175.8970   14.8210   32.1520 C.ar  201  PHE201     -0.0203
    115  CD1      177.2710   15.0030   32.0780 C.ar  201  PHE201     -0.0042
    116  CD2      175.2050   14.4590   30.9940 C.ar  201  PHE201     -0.0042
    117  CE1      177.9460   14.8430   30.8710 C.ar  201  PHE201     -0.0003
    118  CE2      175.8760   14.3100   29.7870 C.ar  201  PHE201     -0.0003
    119  CZ       177.2590   14.4970   29.7310 C.ar  201  PHE201     -0.0000
    120  N        171.8260    6.4570   36.2170 N.3   225  THR225     -0.1218
    121  CA       171.5330    7.8190   35.7670 C.3   225  THR225      0.1862
    122  C        170.6770    7.8160   34.5240 C.2   225  THR225      0.2287
    123  O        170.8480    6.9810   33.6480 O.2   225  THR225     -0.2866
    124  CB       172.7970    8.6190   35.4230 C.3   225  THR225      0.1770
    125  OG1      173.3240    8.1520   34.1700 O.3   225  THR225     -0.2211
    126  CG2      173.8450    8.4730   36.5160 C.3   225  THR225      0.0375
    127  N        169.2620   11.0010   31.9890 N.3   227  HIS227     -0.1241
    128  CA       169.2700   12.4390   31.7220 C.3   227  HIS227      0.1621
    129  C        168.3010   12.8720   30.6410 C.2   227  HIS227      0.2264
    130  O        168.2330   12.2670   29.5620 O.2   227  HIS227     -0.2867
    131  CB       170.6560   12.9350   31.2660 C.3   227  HIS227      0.0745
    132  CG       171.8040   12.4040   32.0600 C.ar  227  HIS227      0.0817
    133  ND1      172.1830   12.9430   33.2690 N.ar  227  HIS227     -0.2268
    134  CD2      172.6820   11.4050   31.8010 C.ar  227  HIS227      0.1154
    135  CE1      173.2380   12.2970   33.7270 C.ar  227  HIS227      0.1986
    136  NE2      173.5580   11.3530   32.8590 N.ar  227  HIS227     -0.2212
    137  N        170.1660   10.4990   27.6260 N.3   255  SER255     -0.1202
    138  CA       171.1730    9.4630   27.7600 C.3   255  SER255      0.2020
    139  C        171.0470    8.8410   29.1370 C.2   255  SER255      0.2619
    140  O        170.5230    9.4460   30.0770 O.2   255  SER255     -0.2717
    141  CB       172.5860    9.9930   27.5300 C.3   255  SER255      0.2103
    142  OG       173.0340   10.7360   28.6460 O.3   255  SER255     -0.2182
    143  N        171.4930    7.6010   29.2430 N.am  256  TRP256     -0.1961
    144  CA       171.2230    6.8260   30.4390 C.3   256  TRP256      0.1771
    145  C        172.2410    5.7010   30.5370 C.2   256  TRP256      0.2620
    146  O        172.6570    5.1170   29.5280 O.2   256  TRP256     -0.2715
    147  CB       169.7560    6.3000   30.4350 C.3   256  TRP256      0.0590
    148  CG       169.1160    6.0570   29.0410 C.ar  256  TRP256      0.0006
    149  CD1      168.5060    6.9900   28.2250 C.ar  256  TRP256      0.0946
    150  CD2      169.0200    4.8080   28.3410 C.ar  256  TRP256      0.0152
    151  NE1      168.0420    6.3760   27.0700 N.ar  256  TRP256     -0.2442
    152  CE2      168.3540    5.0460   27.1120 C.ar  256  TRP256      0.0810
    153  CE3      169.4290    3.5110   28.6320 C.ar  256  TRP256      0.0012
    154  CZ2      168.1000    4.0230   26.1890 C.ar  256  TRP256      0.0191
    155  CZ3      169.1980    2.5220   27.7220 C.ar  256  TRP256      0.0001
    156  CH2      168.5280    2.7660   26.5220 C.ar  256  TRP256      0.0015
    157  N        172.6740    5.4050   31.7510 N.am  257  GLY257     -0.1954
    158  CA       173.6950    4.3950   31.8860 C.3   257  GLY257      0.1869
    159  C        173.6180    3.6960   33.2120 C.2   257  GLY257      0.2309
    160  O        173.1970    4.3080   34.2090 O.2   257  GLY257     -0.2863
@<TRIPOS>BOND
     1     1     2    1
     2    59    58    2
     3   102   101    2
     4    58    57    1
     5     2     3    1
     6     2     5    1
     7   101   100    1
     8     3     4    2
     9     5     6    1
    10   103   100    1
    11   103   104    1
    12    57    56    1
    13    57    60    1
    14   100    99    1
    15   104   106   ar
    16   104   105   ar
    17   106   108   ar
    18     6     7    1
    19     6     8    1
    20    60    61    1
    21   105   107   ar
    22   108   107   ar
    23    93    92    2
    24    52    51    2
    25    61    62    1
    26    98    96   ar
    27    96    97   ar
    28    96    95    1
    29    51    50    1
    30    95    94    1
    31   154   156   ar
    32   154   152   ar
    33    92    91    1
    34    63    62   ar
    35   156   155   ar
    36    62    64   ar
    37    48    42    1
    38    48    47    1
    39   151   152   ar
    40   151   149   ar
    41   152   150   ar
    42    94    91    1
    43    50    49    1
    44    50    53    1
    45   141   138    1
    46   141   142    1
    47    91    90    1
    48    42    43    1
    49    40    39    1
    50   137   138    1
    51   155   153   ar
    52   138   139    1
    53    49    44   am
    54    54    53    1
    55   149   148   ar
    56    55    53    1
    57    47    46    1
    58   150   153   ar
    59   150   148   ar
    60    87    89   ar
    61    87    85   ar
    62    89    88   ar
    63    43    44    1
    64    43    46    1
    65    39    41    1
    66    39    36    1
    67    44    45    2
    68   148   147    1
    69    79    78    2
    70   139   143   am
    71   139   140    2
    72   143   144    1
    73   146   145    2
    74   130   129    2
    75    88    86   ar
    76    85    84   ar
    77    85    83   ar
    78   119   118   ar
    79   119   117   ar
    80   118   116   ar
    81    84    82   ar
    82    37    36    1
    83    37    38    2
    84    25    24    1
    85    36    35    1
    86    78    77    1
    87    86    83   ar
    88    83    81   ar
    89   147   144    1
    90   144   145    1
    91   145   157   am
    92   129   128    1
    93    82    81   ar
    94   117   115   ar
    95   116   114   ar
    96    81    80    1
    97    24    21    1
    98    76    77    1
    99   131   128    1
   100   131   132    1
   101    77    80    1
   102    35    28   am
   103    23    22    2
   104    21    22    1
   105    21    20    1
   106   128   127    1
   107   157   158    1
   108   134   132   ar
   109   134   136   ar
   110   158   159    1
   111    16    18   ar
   112    16    14   ar
   113   132   133   ar
   114   115   114   ar
   115   114   113    1
   116    13    14    1
   117    13    10    1
   118    20    11   am
   119    75    73    1
   120    18    19   ar
   121    29    28    2
   122    28    27    1
   123    14    15   ar
   124    65    66    1
   125    11    12    2
   126    11    10    1
   127   136   135   ar
   128    72    73    2
   129    72    71    1
   130    70    71    1
   131    70    69    1
   132   159   160    2
   133    10     9    1
   134    73    74    1
   135   133   135   ar
   136   112   111    2
   137    66    69    1
   138    66    67    1
   139   113   110    1
   140    19    17   ar
   141   123   122    2
   142   111   110    1
   143    26    27    1
   144    27    30    1
   145    15    17   ar
   146   125   124    1
   147   110   109    1
   148    67    68    2
   149    30    31    1
   150   122   121    1
   151   124   121    1
   152   124   126    1
   153    33    32   ar
   154   121   120    1
   155    31    32    1
   156    32    34   ar
