@<TRIPOS>MOLECULE
tmp/4yduB00.pdb
 168 161 0 0 0
SMALL
GASTEIGER

@<TRIPOS>ATOM
      1  N        -25.9800   50.3440  -37.2040 N.3     9  SER9       -0.1202
      2  CA       -27.3660   50.2300  -37.6320 C.3     9  SER9        0.2020
      3  C        -27.7890   48.8040  -37.8920 C.2     9  SER9        0.2619
      4  O        -28.9500   48.4820  -37.7120 O.2     9  SER9       -0.2717
      5  CB       -27.6610   51.0930  -38.8670 C.3     9  SER9        0.2103
      6  OG       -27.2320   50.4550  -40.0590 O.3     9  SER9       -0.2182
      7  N        -26.8710   47.9360  -38.2900 N.am   10  CYS10      -0.1955
      8  CA       -27.2400   46.5210  -38.5120 C.3    10  CYS10       0.1843
      9  C        -26.1410   45.5850  -37.9800 C.2    10  CYS10       0.2625
     10  O        -26.1580   45.2280  -36.8100 O.2    10  CYS10      -0.2714
     11  CB       -27.5280   46.2700  -39.9940 C.3    10  CYS10       0.0997
     12  SG       -28.2310   44.6540  -40.3910 S.3    10  CYS10      -0.0797
     13  N        -25.1820   45.2080  -38.8220 N.am   11  ASP11      -0.1957
     14  CA       -24.1770   44.2450  -38.4370 C.3    11  ASP11       0.1840
     15  C        -22.7590   44.6840  -38.7320 C.2    11  ASP11       0.2621
     16  O        -21.8410   43.8720  -38.7230 O.2    11  ASP11      -0.2715
     17  CB       -24.4720   42.8740  -39.0880 C.3    11  ASP11       0.1450
     18  CG       -24.3440   42.8800  -40.6350 C.2    11  ASP11       0.3671
     19  OD1      -24.6240   43.9300  -41.2860 O.co2  11  ASP11      -0.2456
     20  OD2      -23.9620   41.8040  -41.1770 O.co2  11  ASP11      -0.2456
     21  N        -22.5800   45.9840  -38.9360 N.am   12  GLU12      -0.1977
     22  CA       -21.2700   46.5700  -39.0410 C.3    12  GLU12       0.1602
     23  C        -21.1580   47.6050  -37.9480 C.2    12  GLU12       0.2287
     24  O        -22.0590   48.4010  -37.8010 O.2    12  GLU12      -0.2864
     25  CB       -21.0350   47.2500  -40.4090 C.3    12  GLU12       0.0415
     26  CG       -20.4020   46.3740  -41.4990 C.3    12  GLU12       0.1163
     27  CD       -21.3510   45.3170  -42.1160 C.2    12  GLU12       0.3649
     28  OE1      -22.6050   45.5920  -42.3250 O.co2  12  GLU12      -0.2457
     29  OE2      -20.8280   44.1900  -42.4150 O.co2  12  GLU12      -0.2457
     30  N        -29.1960   56.9970  -41.3790 N.3   111  HIS111     -0.1226
     31  CA       -28.3190   56.0170  -42.0590 C.3   111  HIS111      0.1752
     32  C        -28.2660   56.1910  -43.5950 C.2   111  HIS111      0.2595
     33  O        -27.1840   56.1350  -44.2170 O.2   111  HIS111     -0.2718
     34  CB       -28.7900   54.5930  -41.7510 C.3   111  HIS111      0.0759
     35  CG       -27.8820   53.5250  -42.2790 C.ar  111  HIS111      0.0818
     36  ND1      -26.6130   53.3080  -41.7820 N.ar  111  HIS111     -0.2268
     37  CD2      -28.0560   52.5950  -43.2580 C.ar  111  HIS111      0.1154
     38  CE1      -26.0380   52.3100  -42.4430 C.ar  111  HIS111      0.1986
     39  NE2      -26.8860   51.8710  -43.3560 N.ar  111  HIS111     -0.2212
     40  N        -29.4240   56.3680  -44.2100 N.am  112  MET112     -0.1979
     41  CA       -29.4820   56.4890  -45.6680 C.3   112  MET112      0.1605
     42  C        -28.9680   57.8470  -46.1300 C.2   112  MET112      0.2287
     43  O        -28.4650   57.9560  -47.2630 O.2   112  MET112     -0.2864
     44  CB       -30.9020   56.2300  -46.1970 C.3   112  MET112      0.0413
     45  CG       -31.4670   54.8400  -45.8540 C.3   112  MET112      0.0598
     46  SD       -30.4550   53.5570  -46.5970 S.3   112  MET112     -0.1393
     47  CE       -30.6020   52.1790  -45.4740 C.3   112  MET112      0.0692
     48  N        -25.4090   57.1380  -46.4860 N.3   115  HIS115     -0.1241
     49  CA       -25.0720   56.5050  -47.7440 C.3   115  HIS115      0.1621
     50  C        -25.0720   57.5360  -48.8440 C.2   115  HIS115      0.2264
     51  O        -24.1650   57.5930  -49.6630 O.2   115  HIS115     -0.2867
     52  CB       -26.0800   55.4390  -48.1230 C.3   115  HIS115      0.0745
     53  CG       -25.8310   54.1250  -47.4950 C.ar  115  HIS115      0.0817
     54  ND1      -24.6610   53.4250  -47.7030 N.ar  115  HIS115     -0.2268
     55  CD2      -26.6140   53.3350  -46.7270 C.ar  115  HIS115      0.1154
     56  CE1      -24.7260   52.2650  -47.0650 C.ar  115  HIS115      0.1986
     57  NE2      -25.9050   52.1850  -46.4670 N.ar  115  HIS115     -0.2212
     58  N        -29.5730   49.5490  -51.3910 N.3   136  SER136     -0.1202
     59  CA       -28.9740   48.8220  -50.2760 C.3   136  SER136      0.2020
     60  C        -29.6670   47.4370  -50.0450 C.2   136  SER136      0.2619
     61  O        -30.3980   46.9210  -50.9240 O.2   136  SER136     -0.2717
     62  CB       -29.0070   49.7220  -49.0090 C.3   136  SER136      0.2103
     63  OG       -30.3290   49.9430  -48.5760 O.3   136  SER136     -0.2182
     64  N        -29.4310   46.8630  -48.8620 N.am  137  GLY137     -0.1942
     65  CA       -29.9810   45.5290  -48.4800 C.3   137  GLY137      0.2014
     66  C        -31.4740   45.6110  -48.4570 C.2   137  GLY137      0.2639
     67  O        -32.1400   44.7660  -49.0270 O.2   137  GLY137     -0.2714
     68  N        -31.9940   46.7000  -47.8870 N.am  138  GLY138     -0.1954
     69  CA       -33.4270   46.8220  -47.6790 C.3   138  GLY138      0.1869
     70  C        -34.0140   48.0540  -48.2980 C.2   138  GLY138      0.2309
     71  O        -35.2030   48.2710  -48.1810 O.2   138  GLY138     -0.2863
     72  N        -30.6720   44.8270  -53.0340 N.3   163  GLY163     -0.1225
     73  CA       -29.7360   44.0500  -52.2350 C.3   163  GLY163      0.1811
     74  C        -30.3480   42.7030  -51.8520 C.2   163  GLY163      0.2280
     75  O        -29.7600   41.6320  -52.0910 O.2   163  GLY163     -0.2866
     76  N        -30.4440   40.3040  -54.7640 N.3   166  PHE166     -0.1227
     77  CA       -29.1370   39.6310  -54.9460 C.3   166  PHE166      0.1736
     78  C        -28.9310   38.5490  -53.8710 C.2   166  PHE166      0.2595
     79  O        -28.4870   37.4690  -54.1800 O.2   166  PHE166     -0.2718
     80  CB       -27.9730   40.6080  -54.8570 C.3   166  PHE166      0.0547
     81  CG       -27.5610   41.2270  -56.1720 C.ar  166  PHE166     -0.0202
     82  CD1      -26.6530   40.6110  -56.9760 C.ar  166  PHE166     -0.0042
     83  CD2      -28.0240   42.4700  -56.5370 C.ar  166  PHE166     -0.0042
     84  CE1      -26.2450   41.1990  -58.1440 C.ar  166  PHE166     -0.0003
     85  CE2      -27.6210   43.0790  -57.7160 C.ar  166  PHE166     -0.0003
     86  CZ       -26.7400   42.4530  -58.5210 C.ar  166  PHE166     -0.0000
     87  N        -29.2410   38.8290  -52.6090 N.am  167  ASP167     -0.1974
     88  CA       -28.9260   37.8360  -51.5910 C.3   167  ASP167      0.1709
     89  C        -29.8050   36.6150  -51.6830 C.2   167  ASP167      0.2293
     90  O        -29.3360   35.5200  -51.4310 O.2   167  ASP167     -0.2864
     91  CB       -28.9920   38.4280  -50.1780 C.3   167  ASP167      0.1436
     92  CG       -27.9940   39.5740  -49.9650 C.2   167  ASP167      0.3671
     93  OD1      -26.9220   39.6130  -50.6400 O.co2 167  ASP167     -0.2456
     94  OD2      -28.2710   40.4280  -49.0860 O.co2 167  ASP167     -0.2456
     95  N        -24.2670   37.2180  -46.6170 N.3   178  PRO178     -0.2116
     96  CA       -25.0100   37.7120  -47.7840 C.3   178  PRO178      0.1372
     97  C        -24.2270   37.4150  -49.0600 C.2   178  PRO178      0.2244
     98  O        -23.0600   37.7370  -49.1370 O.2   178  PRO178     -0.2868
     99  CB       -25.0760   39.2100  -47.5430 C.3   178  PRO178      0.0268
    100  CG       -23.8290   39.5130  -46.7570 C.3   178  PRO178      0.0207
    101  CD       -23.5960   38.3100  -45.8910 C.3   178  PRO178      0.0892
    102  N        -24.5880   38.5410  -52.2180 N.3   180  GLY180     -0.1210
    103  CA       -24.6240   39.4920  -53.3070 C.3   180  GLY180      0.1940
    104  C        -23.2920   39.6190  -54.0300 C.2   180  GLY180      0.2453
    105  O        -23.2400   39.4510  -55.2370 O.2   180  GLY180     -0.2732
    106  N        -22.2130   39.9340  -53.2840 N.am  181  PRO181     -0.2728
    107  CA       -20.8640   40.0470  -53.8230 C.3   181  PRO181      0.1401
    108  C        -20.3980   38.8320  -54.4910 C.2   181  PRO181      0.2269
    109  O        -19.8010   38.9240  -55.5440 O.2   181  PRO181     -0.2865
    110  CB       -19.9910   40.3170  -52.5930 C.3   181  PRO181      0.0296
    111  CG       -20.9100   40.8490  -51.5390 C.3   181  PRO181      0.0237
    112  CD       -22.2930   40.3440  -51.8660 C.3   181  PRO181      0.0939
    113  N        -22.0750   38.2250  -57.7860 N.3   184  SER184     -0.1217
    114  CA       -21.3910   39.0680  -58.7680 C.3   184  SER184      0.1889
    115  C        -20.0710   38.4880  -59.2680 C.2   184  SER184      0.2288
    116  O        -19.7440   38.6430  -60.4410 O.2   184  SER184     -0.2866
    117  CB       -21.1520   40.4820  -58.2270 C.3   184  SER184      0.2089
    118  OG       -20.7350   41.3240  -59.2860 O.3   184  SER184     -0.2183
    119  N        -25.0980   49.6190  -50.5890 N.3   268  GLY268     -0.1210
    120  CA       -24.2320   48.5190  -50.7670 C.3   268  GLY268      0.1956
    121  C        -24.1580   48.0370  -52.1570 C.2   268  GLY268      0.2611
    122  O        -23.1050   47.6290  -52.6210 O.2   268  GLY268     -0.2717
    123  N        -25.2780   48.0300  -52.8350 N.am  269  VAL269     -0.1979
    124  CA       -25.2760   47.5520  -54.2100 C.3   269  VAL269      0.1595
    125  C        -24.4800   48.4600  -55.1710 C.2   269  VAL269      0.2287
    126  O        -24.1080   48.0230  -56.2650 O.2   269  VAL269     -0.2864
    127  CB       -26.7140   47.3470  -54.7230 C.3   269  VAL269      0.0276
    128  CG1      -26.7130   47.0060  -56.2050 C.3   269  VAL269      0.0022
    129  CG2      -27.3930   46.2300  -53.9670 C.3   269  VAL269      0.0022
    130  N        -21.5610   49.2260  -54.8130 N.3   271  ALA271     -0.1231
    131  CA       -20.2550   48.5820  -54.9480 C.3   271  ALA271      0.1694
    132  C        -20.2210   47.7190  -56.1770 C.2   271  ALA271      0.2592
    133  O        -19.1640   47.3310  -56.6140 O.2   271  ALA271     -0.2718
    134  CB       -19.9410   47.7240  -53.7370 C.3   271  ALA271      0.0304
    135  N        -21.3780   47.3790  -56.7240 N.am  272  ASN272     -0.1960
    136  CA       -21.4090   46.4290  -57.8440 C.3   272  ASN272      0.1819
    137  C        -20.6770   46.9680  -59.0700 C.2   272  ASN272      0.2621
    138  O        -21.0330   48.0080  -59.5830 O.2   272  ASN272     -0.2715
    139  CB       -22.8360   46.1290  -58.2530 C.3   272  ASN272      0.1195
    140  CG       -22.9240   45.0120  -59.2670 C.2   272  ASN272      0.2630
    141  OD1      -22.9600   45.2570  -60.4830 O.2   272  ASN272     -0.2716
    142  ND2      -22.9690   43.7730  -58.7780 N.am  272  ASN272     -0.0877
    143  N        -19.6580   46.2410  -59.5020 N.am  273  ARG273     -0.1977
    144  CA       -18.8610   46.5780  -60.6510 C.3   273  ARG273      0.1597
    145  C        -19.6350   46.7910  -61.9610 C.2   273  ARG273      0.2287
    146  O        -19.3600   47.7750  -62.6660 O.2   273  ARG273     -0.2864
    147  CB       -17.7110   45.5740  -60.8520 C.3   273  ARG273      0.0334
    148  CG       -16.7770   45.4080  -59.6070 C.3   273  ARG273      0.0492
    149  CD       -16.5880   46.6680  -58.7420 C.3   273  ARG273      0.2205
    150  NE       -15.5550   46.4890  -57.7380 N.pl3 273  ARG273     -0.0865
    151  CZ       -15.7250   46.2900  -56.4170 C.cat 273  ARG273      0.5346
    152  NH1      -16.9130   46.3020  -55.8280 N.pl3 273  ARG273      0.1354
    153  NH2      -14.6420   46.0950  -55.6610 N.pl3 273  ARG273      0.1354
    154  N        -20.9670   49.9590  -48.9930 N.3   299  THR299     -0.1203
    155  CA       -21.4580   49.2080  -47.8230 C.3   299  THR299      0.1994
    156  C        -21.2360   49.9900  -46.5280 C.2   299  THR299      0.2617
    157  O        -20.4830   50.9780  -46.5210 O.2   299  THR299     -0.2717
    158  CB       -20.7930   47.8340  -47.7060 C.3   299  THR299      0.1784
    159  OG1      -19.3680   47.9720  -47.8410 O.3   299  THR299     -0.2211
    160  CG2      -21.3160   46.9220  -48.8630 C.3   299  THR299      0.0376
    161  N        -21.8900   49.5360  -45.4510 N.am  300  ASP300     -0.1973
    162  CA       -21.9530   50.2700  -44.1900 C.3   300  ASP300      0.1709
    163  C        -20.6240   50.5900  -43.5910 C.2   300  ASP300      0.2293
    164  O        -19.7410   49.7420  -43.5300 O.2   300  ASP300     -0.2864
    165  CB       -22.7790   49.5340  -43.1710 C.3   300  ASP300      0.1436
    166  CG       -24.2530   49.6510  -43.4450 C.2   300  ASP300      0.3671
    167  OD1      -24.6070   50.2160  -44.5380 O.co2 300  ASP300     -0.2456
    168  OD2      -25.0220   49.1750  -42.5700 O.co2 300  ASP300     -0.2456
@<TRIPOS>BOND
     1   146   145    2
     2   145   144    1
     3   147   144    1
     4   147   148    1
     5   144   143    1
     6   141   140    2
     7   116   115    2
     8   148   149    1
     9   138   137    2
    10   143   137   am
    11   118   117    1
    12   115   114    1
    13   140   142   am
    14   140   139    1
    15   137   136    1
    16   114   117    1
    17   114   113    1
    18   149   150    1
    19    86    84   ar
    20    86    85   ar
    21   139   136    1
    22    84    82   ar
    23   136   135    1
    24   150   151    2
    25    85    83   ar
    26    82    81   ar
    27   135   132   am
    28   133   132    2
    29    83    81   ar
    30   151   152    1
    31   151   153    1
    32   126   125    2
    33   128   127    1
    34   132   131    1
    35    81    80    1
    36   109   108    2
    37   105   104    2
    38   125   124    1
    39   131   130    1
    40   131   134    1
    41    77    80    1
    42    77    76    1
    43    77    78    1
    44   127   124    1
    45   127   129    1
    46   108   107    1
    47   124   123    1
    48    79    78    2
    49   104   103    1
    50   104   106   am
    51    78    87   am
    52   107   106    1
    53   107   110    1
    54   103   102    1
    55   106   112    1
    56    72    73    1
    57   123   121   am
    58   122   121    2
    59    87    88    1
    60   110   111    1
    61    73    74    1
    62   121   120    1
    63    75    74    2
    64   112   111    1
    65    89    88    1
    66    89    90    2
    67    88    91    1
    68    58    59    1
    69    61    60    2
    70   120   119    1
    71    93    92   ar
    72    59    60    1
    73    59    62    1
    74    91    92    1
    75    60    64   am
    76    92    94   ar
    77    51    50    2
    78    98    97    2
    79    97    96    1
    80    67    66    2
    81    62    63    1
    82   154   155    1
    83   160   158    1
    84    64    65    1
    85    50    49    1
    86    65    66    1
    87    66    68   am
    88    70    71    2
    89    70    69    1
    90    52    49    1
    91    52    53    1
    92    68    69    1
    93   159   158    1
    94   155   158    1
    95   155   156    1
    96    96    99    1
    97    96    95    1
    98    49    48    1
    99    54    53   ar
   100    54    56   ar
   101    99   100    1
   102    53    55   ar
   103    43    42    2
   104    56    57   ar
   105   100   101    1
   106    55    57   ar
   107    95   101    1
   108    46    45    1
   109    46    47    1
   110   156   157    2
   111   156   161   am
   112    44    45    1
   113    44    41    1
   114    42    41    1
   115    41    40    1
   116   161   162    1
   117   167   166   ar
   118    33    32    2
   119    40    32   am
   120   162   163    1
   121   162   165    1
   122    32    31    1
   123   163   164    2
   124   166   165    1
   125   166   168   ar
   126    39    37   ar
   127    39    38   ar
   128    37    35   ar
   129    38    36   ar
   130    29    27   ar
   131    28    27   ar
   132    35    36   ar
   133    35    34    1
   134    27    26    1
   135    31    34    1
   136    31    30    1
   137    26    25    1
   138    19    18   ar
   139    20    18   ar
   140    18    17    1
   141    25    22    1
   142    12    11    1
   143     6     5    1
   144    11     8    1
   145    17    14    1
   146    22    21    1
   147    22    23    1
   148    21    15   am
   149     5     2    1
   150    13    14    1
   151    13     9   am
   152    15    16    2
   153    15    14    1
   154     8     7    1
   155     8     9    1
   156     7     3   am
   157     9    10    2
   158    23    24    2
   159     3     4    2
   160     3     2    1
   161     2     1    1
