@<TRIPOS>MOLECULE
tmp/4yduC00.pdb
 98 96 0 0 0
SMALL
GASTEIGER

@<TRIPOS>ATOM
      1  N         -2.9300   39.1480  -55.0990 N.3    10  THR10      -0.1218
      2  CA        -4.3010   39.6000  -55.2970 C.3    10  THR10       0.1862
      3  C         -5.1670   38.4410  -54.8540 C.2    10  THR10       0.2287
      4  O         -4.6340   37.5050  -54.2590 O.2    10  THR10      -0.2866
      5  CB        -4.5790   39.9090  -56.7840 C.3    10  THR10       0.1770
      6  OG1       -4.5030   38.6810  -57.5260 O.3    10  THR10      -0.2211
      7  CG2       -3.5530   40.9080  -57.3810 C.3    10  THR10       0.0375
      8  N         -9.8000   33.6340  -52.4140 N.3    31  PRO31      -0.2102
      9  CA        -9.9800   34.5120  -51.2590 C.3    31  PRO31       0.1504
     10  C        -10.0840   33.6680  -49.9690 C.2    31  PRO31       0.2576
     11  O        -10.8210   32.6690  -49.9300 O.2    31  PRO31      -0.2718
     12  CB       -11.2820   35.2480  -51.5800 C.3    31  PRO31       0.0282
     13  CG       -12.0550   34.3050  -52.4600 C.3    31  PRO31       0.0208
     14  CD       -11.0190   33.5450  -53.2470 C.3    31  PRO31       0.0893
     15  N         -9.2810   34.0330  -48.9670 N.am   32  ARG32      -0.1966
     16  CA        -9.2660   33.3600  -47.6690 C.3    32  ARG32       0.1729
     17  C         -8.5150   32.0120  -47.6900 C.2    32  ARG32       0.2616
     18  O         -8.4000   31.3910  -46.6680 O.2    32  ARG32      -0.2715
     19  CB       -10.7100   33.1980  -47.1150 C.3    32  ARG32       0.0348
     20  CG       -11.3250   34.5170  -46.6580 C.3    32  ARG32       0.0492
     21  CD       -12.6150   34.2430  -45.8790 C.3    32  ARG32       0.2205
     22  NE       -13.6090   33.6040  -46.7350 N.pl3  32  ARG32      -0.0865
     23  CZ       -14.3600   34.2530  -47.6220 C.cat  32  ARG32       0.5346
     24  NH1      -14.2840   35.5710  -47.7500 N.pl3  32  ARG32       0.1354
     25  NH2      -15.2210   33.5800  -48.3820 N.pl3  32  ARG32       0.1354
     26  N         -7.9890   31.5780  -48.8350 N.am   33  GLU33      -0.1963
     27  CA        -7.4550   30.2200  -48.9850 C.3    33  GLU33       0.1733
     28  C         -6.0010   30.1700  -49.4920 C.2    33  GLU33       0.2616
     29  O         -5.4150   29.0890  -49.5910 O.2    33  GLU33      -0.2715
     30  CB        -8.3630   29.4120  -49.9310 C.3    33  GLU33       0.0429
     31  CG        -9.7950   29.1910  -49.4550 C.3    33  GLU33       0.1163
     32  CD        -9.9240   28.2600  -48.2450 C.2    33  GLU33       0.3649
     33  OE1       -8.9150   27.6980  -47.7780 O.co2  33  GLU33      -0.2457
     34  OE2      -11.0510   28.0640  -47.7440 O.co2  33  GLU33      -0.2457
     35  N         -5.3940   31.3260  -49.7790 N.am   34  HIS34      -0.1959
     36  CA        -4.0660   31.3420  -50.3820 C.3    34  HIS34       0.1787
     37  C         -3.1020   30.3760  -49.6670 C.2    34  HIS34       0.2620
     38  O         -2.4200   29.5810  -50.3120 O.2    34  HIS34      -0.2715
     39  CB        -3.4280   32.7420  -50.3610 C.3    34  HIS34       0.0785
     40  CG        -4.1500   33.7510  -51.1880 C.ar   34  HIS34       0.0821
     41  ND1       -5.2520   34.4390  -50.7310 N.ar   34  HIS34      -0.2267
     42  CD2       -3.9110   34.2120  -52.4380 C.ar   34  HIS34       0.1154
     43  CE1       -5.6700   35.2670  -51.6700 C.ar   34  HIS34       0.1986
     44  NE2       -4.8700   35.1540  -52.7130 N.ar   34  HIS34      -0.2212
     45  N         -3.0580   30.4450  -48.3380 N.am   35  THR35      -0.1951
     46  CA        -2.0680   29.6780  -47.6070 C.3    35  THR35       0.1897
     47  C         -2.4390   28.2010  -47.5280 C.2    35  THR35       0.2313
     48  O         -1.5820   27.3690  -47.1820 O.2    35  THR35      -0.2863
     49  CB        -1.8480   30.2030  -46.1830 C.3    35  THR35       0.1794
     50  OG1       -3.0940   30.1860  -45.4690 O.3    35  THR35      -0.2208
     51  CG2       -1.2210   31.6120  -46.2050 C.3    35  THR35       0.0378
     52  N         -2.3210   43.2100  -52.3240 N.3    67  SER67      -0.1202
     53  CA        -2.6450   42.9810  -50.9020 C.3    67  SER67       0.2020
     54  C         -1.3360   42.8940  -50.0720 C.2    67  SER67       0.2619
     55  O         -0.4370   42.1510  -50.4080 O.2    67  SER67      -0.2717
     56  CB        -3.4470   41.6830  -50.7140 C.3    67  SER67       0.2103
     57  OG        -3.4700   41.3430  -49.3550 O.3    67  SER67      -0.2182
     58  N         -1.2270   43.6870  -49.0170 N.am   68  PHE68      -0.1961
     59  CA        -0.0350   43.6550  -48.1990 C.3    68  PHE68       0.1771
     60  C          0.1560   42.2350  -47.6680 C.2    68  PHE68       0.2620
     61  O          1.2220   41.6880  -47.7500 O.2    68  PHE68      -0.2715
     62  CB        -0.1590   44.6320  -47.0030 C.3    68  PHE68       0.0574
     63  CG        -0.0290   46.0890  -47.3540 C.ar   68  PHE68      -0.0200
     64  CD1        0.4310   46.5300  -48.6210 C.ar   68  PHE68      -0.0042
     65  CD2       -0.3330   47.0300  -46.4090 C.ar   68  PHE68      -0.0042
     66  CE1        0.5250   47.8690  -48.9160 C.ar   68  PHE68      -0.0003
     67  CE2       -0.2250   48.3800  -46.6960 C.ar   68  PHE68      -0.0003
     68  CZ         0.2010   48.7930  -47.9410 C.ar   68  PHE68      -0.0000
     69  N         -0.8760   41.6620  -47.0750 N.am   69  THR69      -0.1937
     70  CA        -0.7970   40.2900  -46.5840 C.3    69  THR69       0.2028
     71  C         -0.4760   39.2860  -47.6880 C.2    69  THR69       0.2642
     72  O          0.3730   38.3960  -47.5180 O.2    69  THR69      -0.2714
     73  CB        -2.1040   39.8980  -45.8700 C.3    69  THR69       0.1808
     74  OG1       -2.4560   40.9100  -44.9190 O.3    69  THR69      -0.2208
     75  CG2       -1.9520   38.6240  -45.1020 C.3    69  THR69       0.0379
     76  N         -1.1330   39.4460  -48.8250 N.am   70  GLY70      -0.1954
     77  CA        -0.9680   38.5800  -49.9730 C.3    70  GLY70       0.1869
     78  C          0.4500   38.5780  -50.5010 C.2    70  GLY70       0.2309
     79  O          1.0370   37.5140  -50.7140 O.2    70  GLY70      -0.2863
     80  N          2.5850   36.7710  -48.1590 N.3    73  ILE73      -0.1245
     81  CA         2.4060   35.3200  -48.2990 C.3    73  ILE73       0.1561
     82  C          3.3030   34.8440  -49.4100 C.2    73  ILE73       0.2260
     83  O          4.1160   33.9460  -49.2250 O.2    73  ILE73      -0.2867
     84  CB         0.9430   34.9180  -48.5880 C.3    73  ILE73       0.0252
     85  CG1        0.1590   35.0300  -47.2900 C.3    73  ILE73       0.0019
     86  CG2        0.8810   33.4920  -49.1030 C.3    73  ILE73       0.0019
     87  CD1       -1.3590   35.0880  -47.4300 C.3    73  ILE73       0.0001
     88  N         -7.4150   50.2350  -52.5870 N.3   118  ARG118     -0.1245
     89  CA        -8.2330   50.6360  -51.4740 C.3   118  ARG118      0.1563
     90  C         -7.8550   52.0310  -51.0720 C.2   118  ARG118      0.2260
     91  O         -7.0040   52.6420  -51.7050 O.2   118  ARG118     -0.2867
     92  CB        -8.1330   49.6380  -50.3090 C.3   118  ARG118      0.0307
     93  CG        -9.1210   48.5400  -50.5390 C.3   118  ARG118      0.0489
     94  CD        -8.9670   47.2960  -49.7210 C.3   118  ARG118      0.2205
     95  NE        -9.3330   46.2070  -50.6350 N.pl3 118  ARG118     -0.0865
     96  CZ        -9.9680   45.0790  -50.3170 C.cat 118  ARG118      0.5346
     97  NH1      -10.3580   44.8390  -49.0770 N.pl3 118  ARG118      0.1354
     98  NH2      -10.2080   44.1830  -51.2730 N.pl3 118  ARG118      0.1354
@<TRIPOS>BOND
     1     6     5    1
     2     7     5    1
     3     5     2    1
     4     2     1    1
     5     2     3    1
     6     3     4    2
     7    14    13    1
     8    14     8    1
     9    44    42   ar
    10    44    43   ar
    11    88    89    1
    12    13    12    1
    13    42    40   ar
    14     8     9    1
    15    52    53    1
    16    91    90    2
    17    43    41   ar
    18    12     9    1
    19    89    90    1
    20    89    92    1
    21    98    96    1
    22     9    10    1
    23    40    41   ar
    24    40    39    1
    25    53    56    1
    26    53    54    1
    27    79    78    2
    28    56    57    1
    29    95    96    2
    30    95    94    1
    31    93    92    1
    32    93    94    1
    33    78    77    1
    34    55    54    2
    35    36    39    1
    36    36    35    1
    37    36    37    1
    38    96    97    1
    39    38    37    2
    40    54    58   am
    41    77    76    1
    42    10    11    2
    43    10    15   am
    44    30    31    1
    45    30    27    1
    46    35    28   am
    47    37    45   am
    48    29    28    2
    49    28    27    1
    50    31    32    1
    51    82    83    2
    52    82    81    1
    53    86    84    1
    54    58    59    1
    55    27    26    1
    56    15    16    1
    57    66    64   ar
    58    66    68   ar
    59    26    17   am
    60    76    71   am
    61    64    63   ar
    62    84    81    1
    63    84    85    1
    64    25    23    1
    65    45    46    1
    66    81    80    1
    67    32    33   ar
    68    32    34   ar
    69    59    60    1
    70    59    62    1
    71    68    67   ar
    72    61    60    2
    73    24    23    1
    74    17    16    1
    75    17    18    2
    76    71    72    2
    77    71    70    1
    78    16    19    1
    79    60    69   am
    80    23    22    2
    81    46    47    1
    82    46    49    1
    83    47    48    2
    84    87    85    1
    85    63    62    1
    86    63    65   ar
    87    19    20    1
    88    69    70    1
    89    22    21    1
    90    67    65   ar
    91    20    21    1
    92    70    73    1
    93    51    49    1
    94    49    50    1
    95    73    75    1
    96    73    74    1
