@<TRIPOS>MOLECULE
tmp/4ydvD00.pdb
 138 136 0 0 0
SMALL
GASTEIGER

@<TRIPOS>ATOM
      1  N         -4.3840  -15.2600   26.3990 N.3    31  GLU31      -0.1231
      2  CA        -3.3930  -14.4870   27.1410 C.3    31  GLU31       0.1699
      3  C         -2.2910  -13.9200   26.2580 C.2    31  GLU31       0.2592
      4  O         -1.4380  -13.1840   26.7430 O.2    31  GLU31      -0.2718
      5  CB        -2.7760  -15.3110   28.2610 C.3    31  GLU31       0.0402
      6  CG        -3.6870  -15.5020   29.4420 C.3    31  GLU31       0.1161
      7  CD        -3.0970  -16.4490   30.4600 C.2    31  GLU31       0.3649
      8  OE1       -1.8670  -16.6860   30.3910 O.co2  31  GLU31      -0.2457
      9  OE2       -3.8580  -16.9590   31.3170 O.co2  31  GLU31      -0.2457
     10  N         -2.3080  -14.2540   24.9710 N.am   32  TYR32      -0.1962
     11  CA        -1.2530  -13.8250   24.0530 C.3    32  TYR32       0.1771
     12  C         -1.7530  -13.0770   22.8060 C.2    32  TYR32       0.2619
     13  O         -2.7590  -13.4460   22.2050 O.2    32  TYR32      -0.2715
     14  CB        -0.4530  -15.0360   23.5830 C.3    32  TYR32       0.0574
     15  CG         0.4090  -15.7070   24.6270 C.ar   32  TYR32      -0.0198
     16  CD1        1.7250  -15.3120   24.8180 C.ar   32  TYR32      -0.0009
     17  CD2       -0.0780  -16.7480   25.4010 C.ar   32  TYR32      -0.0009
     18  CE1        2.5260  -15.9230   25.7340 C.ar   32  TYR32       0.0417
     19  CE2        0.7160  -17.3600   26.3280 C.ar   32  TYR32       0.0417
     20  CZ         2.0270  -16.9400   26.4970 C.ar   32  TYR32       0.1957
     21  OH         2.8580  -17.5420   27.4270 O.3    32  TYR32      -0.2866
     22  N         -1.0470  -12.0190   22.4290 N.am   33  TYR33      -0.1974
     23  CA        -1.1410  -11.4660   21.0820 C.3    33  TYR33       0.1639
     24  C         -0.4990  -12.4610   20.1090 C.2    33  TYR33       0.2290
     25  O          0.5700  -13.0090   20.3930 O.2    33  TYR33      -0.2864
     26  CB        -0.3710  -10.1490   21.0100 C.3    33  TYR33       0.0560
     27  CG        -1.1360   -8.9290   21.4650 C.ar   33  TYR33      -0.0198
     28  CD1       -1.7810   -8.8980   22.6910 C.ar   33  TYR33      -0.0009
     29  CD2       -1.1960   -7.7920   20.6670 C.ar   33  TYR33      -0.0009
     30  CE1       -2.4840   -7.7620   23.1050 C.ar   33  TYR33       0.0417
     31  CE2       -1.8810   -6.6590   21.0680 C.ar   33  TYR33       0.0417
     32  CZ        -2.5230   -6.6440   22.2850 C.ar   33  TYR33       0.1957
     33  OH        -3.2020   -5.5100   22.6850 O.3    33  TYR33      -0.2866
     34  N         -5.4360   -9.8440   21.9440 N.3    53  LYS53      -0.1245
     35  CA        -6.0590  -10.9800   22.6200 C.3    53  LYS53       0.1561
     36  C         -7.5170  -11.1860   22.2270 C.2    53  LYS53       0.2260
     37  O         -7.9200  -12.2990   21.8800 O.2    53  LYS53      -0.2867
     38  CB        -5.9820  -10.8060   24.1370 C.3    53  LYS53       0.0271
     39  CG        -4.5870  -10.6910   24.6970 C.3    53  LYS53       0.0035
     40  CD        -4.6620  -10.1330   26.1020 C.3    53  LYS53       0.0206
     41  CE        -3.3260  -10.1950   26.8020 C.3    53  LYS53       0.1093
     42  NZ        -3.3510   -9.4970   28.1310 N.3    53  LYS53      -0.1314
     43  N          3.4880  -14.0890   20.5610 N.3    99  ALA99      -0.1231
     44  CA         4.2100  -12.9100   21.0210 C.3    99  ALA99       0.1694
     45  C          4.1130  -12.7370   22.5350 C.2    99  ALA99       0.2592
     46  O          3.0210  -12.7470   23.1120 O.2    99  ALA99      -0.2718
     47  CB         3.6880  -11.6750   20.3240 C.3    99  ALA99       0.0304
     48  N          5.2680  -12.5800   23.1700 N.am  100  ASP100     -0.1960
     49  CA         5.3300  -12.2690   24.5870 C.3   100  ASP100      0.1840
     50  C          5.8820  -10.8640   24.7010 C.2   100  ASP100      0.2623
     51  O          6.9620  -10.5880   24.1910 O.2   100  ASP100     -0.2715
     52  CB         6.2460  -13.2530   25.3190 C.3   100  ASP100      0.1450
     53  CG         6.1240  -13.1560   26.8310 C.2   100  ASP100      0.3671
     54  OD1        6.5090  -12.1110   27.4080 O.co2 100  ASP100     -0.2456
     55  OD2        5.6500  -14.1350   27.4470 O.co2 100  ASP100     -0.2456
     56  N          5.1530   -9.9610   25.3400 N.am  101  GLY101     -0.1940
     57  CA         5.6330   -8.5930   25.4290 C.3   101  GLY101      0.2014
     58  C          4.7660   -7.7280   26.3110 C.2   101  GLY101      0.2639
     59  O          3.9160   -8.2210   27.0600 O.2   101  GLY101     -0.2714
     60  N          4.9830   -6.4240   26.2370 N.am  102  LEU102     -0.1963
     61  CA         4.1420   -5.4940   26.9650 C.3   102  LEU102      0.1728
     62  C          2.9950   -5.0620   26.0630 C.2   102  LEU102      0.2617
     63  O          3.1130   -5.1060   24.8400 O.2   102  LEU102     -0.2715
     64  CB         4.9510   -4.2760   27.3960 C.3   102  LEU102      0.0311
     65  CG         6.1760   -4.5130   28.2890 C.3   102  LEU102      0.0022
     66  CD1        6.8490   -3.1940   28.6090 C.3   102  LEU102      0.0001
     67  CD2        5.7740   -5.2190   29.5730 C.3   102  LEU102      0.0001
     68  N          1.8810   -4.6690   26.6720 N.am  103  THR103     -0.1937
     69  CA         0.8360   -3.9750   25.9500 C.3   103  THR103      0.2028
     70  C          0.6210   -2.6040   26.5690 C.2   103  THR103      0.2642
     71  O          0.7270   -2.4430   27.7790 O.2   103  THR103     -0.2714
     72  CB        -0.4890   -4.7610   25.9230 C.3   103  THR103      0.1808
     73  OG1       -1.0070   -4.9250   27.2490 O.3   103  THR103     -0.2208
     74  CG2       -0.2830   -6.1110   25.2930 C.3   103  THR103      0.0379
     75  N          0.3540   -1.6070   25.7320 N.am  104  TYR104     -0.1959
     76  CA        -0.0240   -0.2850   26.2160 C.3   104  TYR104      0.1771
     77  C         -1.3120    0.0610   25.5220 C.2   104  TYR104      0.2619
     78  O         -1.3070    0.3720   24.3370 O.2   104  TYR104     -0.2715
     79  CB         1.0370    0.7610   25.8890 C.3   104  TYR104      0.0574
     80  CG         0.6990    2.1180   26.4570 C.ar  104  TYR104     -0.0198
     81  CD1        0.5430    2.2910   27.8280 C.ar  104  TYR104     -0.0009
     82  CD2        0.5230    3.2280   25.6340 C.ar  104  TYR104     -0.0009
     83  CE1        0.2300    3.5150   28.3700 C.ar  104  TYR104      0.0417
     84  CE2        0.2040    4.4720   26.1750 C.ar  104  TYR104      0.0417
     85  CZ         0.0630    4.6000   27.5490 C.ar  104  TYR104      0.1957
     86  OH        -0.2450    5.8140   28.1290 O.3   104  TYR104     -0.2866
     87  N         -2.4100    0.0120   26.2640 N.am  105  PHE105     -0.1974
     88  CA        -3.7410   -0.0300   25.6640 C.3   105  PHE105      0.1639
     89  C         -3.7860   -1.2030   24.6860 C.2   105  PHE105      0.2290
     90  O         -3.5630   -2.3330   25.1010 O.2   105  PHE105     -0.2864
     91  CB        -4.1460    1.3190   25.0650 C.3   105  PHE105      0.0560
     92  CG        -4.3720    2.3850   26.1120 C.ar  105  PHE105     -0.0200
     93  CD1       -3.2990    3.0450   26.6910 C.ar  105  PHE105     -0.0042
     94  CD2       -5.6530    2.6970   26.5460 C.ar  105  PHE105     -0.0042
     95  CE1       -3.5010    4.0020   27.6620 C.ar  105  PHE105     -0.0003
     96  CE2       -5.8600    3.6560   27.5200 C.ar  105  PHE105     -0.0003
     97  CZ        -4.7830    4.3080   28.0780 C.ar  105  PHE105     -0.0000
     98  N          0.9990   -3.3810   21.0030 N.3   108  LEU108     -0.1231
     99  CA         1.9740   -4.3830   21.4460 C.3   108  LEU108      0.1693
    100  C          3.4000   -3.8120   21.4410 C.2   108  LEU108      0.2592
    101  O          3.8300   -3.2050   20.4590 O.2   108  LEU108     -0.2718
    102  CB         1.9010   -5.6340   20.5610 C.3   108  LEU108      0.0284
    103  CG         2.7630   -6.8420   20.9480 C.3   108  LEU108      0.0019
    104  CD1        2.3220   -7.4620   22.2790 C.3   108  LEU108      0.0001
    105  CD2        2.7810   -7.8840   19.8150 C.3   108  LEU108      0.0001
    106  N          4.1320   -4.0170   22.5320 N.am  109  LEU109     -0.1966
    107  CA         5.4250   -3.3650   22.7280 C.3   109  LEU109      0.1728
    108  C          6.4320   -4.3480   23.2490 C.2   109  LEU109      0.2616
    109  O          6.0580   -5.3020   23.9230 O.2   109  LEU109     -0.2715
    110  CB         5.2960   -2.2680   23.7810 C.3   109  LEU109      0.0311
    111  CG         4.5070   -1.0410   23.3690 C.3   109  LEU109      0.0022
    112  CD1        4.4660   -0.0530   24.5000 C.3   109  LEU109      0.0001
    113  CD2        5.1790   -0.4490   22.1540 C.3   109  LEU109      0.0001
    114  N          7.7070   -4.0960   22.9790 N.am  110  GLN110     -0.1977
    115  CA         8.7810   -4.9110   23.5350 C.3   110  GLN110      0.1601
    116  C          8.4890   -6.3960   23.3990 C.2   110  GLN110      0.2287
    117  O          8.4250   -7.0910   24.4060 O.2   110  GLN110     -0.2864
    118  CB         8.9360   -4.5930   25.0140 C.3   110  GLN110      0.0394
    119  CG         9.4410   -3.2040   25.2790 C.3   110  GLN110      0.0908
    120  CD        10.9480   -3.1640   25.3300 C.2   110  GLN110      0.2608
    121  OE1       11.6140   -2.9280   24.3180 O.2   110  GLN110     -0.2717
    122  NE2       11.5040   -3.4200   26.5120 N.am  110  GLN110     -0.0878
    123  N          8.8880  -10.4170   21.9430 N.3   112  ILE112     -0.1245
    124  CA         9.7230  -11.4580   21.3930 C.3   112  ILE112      0.1561
    125  C          8.8200  -12.5930   20.9170 C.2   112  ILE112      0.2260
    126  O          7.7130  -12.7750   21.4300 O.2   112  ILE112     -0.2867
    127  CB        10.7050  -11.9570   22.4480 C.3   112  ILE112      0.0252
    128  CG1        9.9470  -12.6150   23.6070 C.3   112  ILE112      0.0019
    129  CG2       11.5490  -10.7960   22.9560 C.3   112  ILE112      0.0019
    130  CD1       10.8420  -13.1130   24.7280 C.3   112  ILE112      0.0001
    131  N          8.2970  -16.1790   21.0340 N.3   114  ASP114     -0.1239
    132  CA         8.8010  -17.2860   21.8360 C.3   114  ASP114      0.1674
    133  C          8.2880  -18.6640   21.4220 C.2   114  ASP114      0.2266
    134  O          8.7500  -19.6880   21.9390 O.2   114  ASP114     -0.2867
    135  CB         8.5500  -17.0400   23.3280 C.3   114  ASP114      0.1410
    136  CG         7.1020  -17.2400   23.7240 C.2   114  ASP114      0.3668
    137  OD1        6.2070  -17.0390   22.8630 O.co2 114  ASP114     -0.2456
    138  OD2        6.8680  -17.5960   24.9060 O.co2 114  ASP114     -0.2456
@<TRIPOS>BOND
     1   105   103    1
     2    24    25    2
     3    24    23    1
     4    47    44    1
     5   101   100    2
     6    43    44    1
     7   102   103    1
     8   102    99    1
     9    29    31   ar
    10    29    27   ar
    11   125   124    1
    12   125   126    2
    13   103   104    1
    14    98    99    1
    15    26    23    1
    16    26    27    1
    17    44    45    1
    18   131   132    1
    19    31    32   ar
    20    23    22    1
    21   124   123    1
    22   124   127    1
    23   133   132    1
    24   133   134    2
    25   100    99    1
    26   100   106   am
    27    27    28   ar
    28   132   135    1
    29    37    36    2
    30    34    35    1
    31   113   111    1
    32    13    12    2
    33    36    35    1
    34    32    33    1
    35    32    30   ar
    36    22    12   am
    37   127   129    1
    38   127   128    1
    39   106   107    1
    40    45    46    2
    41    45    48   am
    42    35    38    1
    43    28    30   ar
    44   107   108    1
    45   107   110    1
    46    12    11    1
    47   137   136   ar
    48   114   108   am
    49   114   115    1
    50    48    49    1
    51   108   109    2
    52   135   136    1
    53   111   110    1
    54   111   112    1
    55   116   115    1
    56   116   117    2
    57   115   118    1
    58    14    11    1
    59    14    15    1
    60   128   130    1
    61   136   138   ar
    62    11    10    1
    63    38    39    1
    64    51    50    2
    65   121   120    2
    66    78    77    2
    67    49    50    1
    68    49    52    1
    69    15    16   ar
    70    15    17   ar
    71    89    90    2
    72    89    88    1
    73    39    40    1
    74    50    56   am
    75    16    18   ar
    76    63    62    2
    77    10     3   am
    78   118   119    1
    79    91    88    1
    80    91    92    1
    81   119   120    1
    82    74    72    1
    83    52    53    1
    84   120   122   am
    85    56    57    1
    86    17    19   ar
    87    57    58    1
    88    77    76    1
    89    77    87   am
    90    82    84   ar
    91    82    80   ar
    92    88    87    1
    93    75    76    1
    94    75    70   am
    95    18    20   ar
    96    79    76    1
    97    79    80    1
    98    72    69    1
    99    72    73    1
   100    69    70    1
   101    69    68    1
   102    62    68   am
   103    62    61    1
   104    40    41    1
   105    92    94   ar
   106    92    93   ar
   107    84    85   ar
   108    60    58   am
   109    60    61    1
   110     3     4    2
   111     3     2    1
   112    58    59    2
   113    19    20   ar
   114     1     2    1
   115    80    81   ar
   116    20    21    1
   117    94    96   ar
   118    70    71    2
   119    93    95   ar
   120    41    42    1
   121    53    54   ar
   122    53    55   ar
   123    61    64    1
   124     2     5    1
   125    64    65    1
   126    96    97   ar
   127    85    86    1
   128    85    83   ar
   129    95    97   ar
   130    81    83   ar
   131     5     6    1
   132    65    66    1
   133    65    67    1
   134     6     7    1
   135     8     7   ar
   136     7     9   ar
