@<TRIPOS>MOLECULE
tmp/4ye2A00.pdb
 103 96 0 0 0
SMALL
GASTEIGER

@<TRIPOS>ATOM
      1  N         -4.8270  -33.0900  -13.6770 N.3    25  HIS25      -0.1241
      2  CA        -6.2220  -32.7890  -13.9720 C.3    25  HIS25       0.1621
      3  C         -6.4810  -31.2980  -14.1350 C.2    25  HIS25       0.2264
      4  O         -5.6430  -30.4640  -13.7970 O.2    25  HIS25      -0.2867
      5  CB        -7.1450  -33.3510  -12.8830 C.3    25  HIS25       0.0745
      6  CG        -6.9050  -32.7780  -11.5210 C.ar   25  HIS25       0.0817
      7  ND1       -5.9660  -33.2890  -10.6510 N.ar   25  HIS25      -0.2268
      8  CD2       -7.4840  -31.7380  -10.8770 C.ar   25  HIS25       0.1154
      9  CE1       -5.9790  -32.5910   -9.5290 C.ar   25  HIS25       0.1986
     10  NE2       -6.8910  -31.6430   -9.6410 N.ar   25  HIS25      -0.2212
     11  N         -9.1550  -28.7810  -12.5800 N.3    27  THR27      -0.1218
     12  CA       -10.2460  -28.5170  -11.6590 C.3    27  THR27       0.1862
     13  C        -11.2340  -27.6010  -12.3680 C.2    27  THR27       0.2287
     14  O        -10.8330  -26.6340  -13.0170 O.2    27  THR27      -0.2866
     15  CB        -9.7450  -27.8690  -10.3490 C.3    27  THR27       0.1770
     16  OG1       -8.8080  -28.7410   -9.7080 O.3    27  THR27      -0.2211
     17  CG2      -10.9030  -27.5900   -9.4040 C.3    27  THR27       0.0375
     18  N          1.7760  -20.2950  -10.5680 N.3    65  LEU65      -0.1231
     19  CA         0.4990  -19.7420  -10.1540 C.3    65  LEU65       0.1693
     20  C          0.6720  -19.0000   -8.8350 C.2    65  LEU65       0.2592
     21  O          0.1590  -17.8960   -8.6490 O.2    65  LEU65      -0.2718
     22  CB        -0.5310  -20.8660  -10.0460 C.3    65  LEU65       0.0284
     23  CG        -1.9900  -20.5720   -9.7200 C.3    65  LEU65       0.0019
     24  CD1       -2.8010  -20.4180  -10.9930 C.3    65  LEU65       0.0001
     25  CD2       -2.5190  -21.7300   -8.9130 C.3    65  LEU65       0.0001
     26  N          1.4090  -19.6270   -7.9270 N.am   66  SER66      -0.1952
     27  CA         1.7050  -19.0710   -6.6160 C.3    66  SER66       0.1924
     28  C          2.9820  -19.7500   -6.1450 C.2    66  SER66       0.2314
     29  O          3.5380  -20.5790   -6.8700 O.2    66  SER66      -0.2863
     30  CB         0.5550  -19.2980   -5.6340 C.3    66  SER66       0.2116
     31  OG         0.9260  -18.9290   -4.3160 O.3    66  SER66      -0.2180
     32  N          3.7940  -23.5250   -6.6970 N.3    69  ILE69      -0.1245
     33  CA         2.7640  -24.1050   -7.5530 C.3    69  ILE69       0.1561
     34  C          3.0920  -23.8670   -9.0240 C.2    69  ILE69       0.2260
     35  O          2.9900  -22.7450   -9.5260 O.2    69  ILE69      -0.2867
     36  CB         1.3620  -23.5230   -7.2510 C.3    69  ILE69       0.0252
     37  CG1        1.0950  -23.5000   -5.7430 C.3    69  ILE69       0.0019
     38  CG2        0.2870  -24.3230   -7.9770 C.3    69  ILE69       0.0019
     39  CD1       -0.3300  -23.1530   -5.3700 C.3    69  ILE69       0.0001
     40  N        -15.9130  -19.9070   -5.2770 N.3    97  GLN97      -0.1245
     41  CA       -15.1580  -19.4590   -4.1150 C.3    97  GLN97       0.1566
     42  C        -15.1380  -17.9420   -4.1310 C.2    97  GLN97       0.2260
     43  O        -15.5950  -17.3230   -5.0940 O.2    97  GLN97      -0.2867
     44  CB       -13.7230  -19.9940   -4.1230 C.3    97  GLN97       0.0367
     45  CG       -13.5870  -21.5000   -4.0940 C.3    97  GLN97       0.0905
     46  CD       -12.5620  -21.9750   -3.0770 C.2    97  GLN97       0.2608
     47  OE1      -12.9060  -22.3260   -1.9470 O.2    97  GLN97      -0.2717
     48  NE2      -11.2940  -21.9910   -3.4780 N.am   97  GLN97      -0.0878
     49  N        -12.4820  -16.1700   -4.0600 N.3    99  ARG99      -0.1231
     50  CA       -11.3690  -15.8940   -4.9540 C.3    99  ARG99       0.1694
     51  C        -11.7410  -16.2250   -6.3920 C.2    99  ARG99       0.2591
     52  O        -12.5200  -17.1480   -6.6380 O.2    99  ARG99      -0.2718
     53  CB       -10.1460  -16.7080   -4.5230 C.3    99  ARG99       0.0321
     54  CG        -8.8250  -16.2990   -5.1500 C.3    99  ARG99       0.0489
     55  CD        -7.7180  -17.2130   -4.6460 C.3    99  ARG99       0.2205
     56  NE        -8.0000  -18.6190   -4.9280 N.pl3  99  ARG99      -0.0865
     57  CZ        -7.2470  -19.6320   -4.5100 C.cat  99  ARG99       0.5346
     58  NH1       -6.1620  -19.3990   -3.7840 N.pl3  99  ARG99       0.1354
     59  NH2       -7.5860  -20.8790   -4.8080 N.pl3  99  ARG99       0.1354
     60  N        -11.1880  -15.4720   -7.3390 N.am  100  MET100     -0.1979
     61  CA       -11.5230  -15.6650   -8.7450 C.3   100  MET100      0.1605
     62  C        -11.0610  -17.0310   -9.2180 C.2   100  MET100      0.2287
     63  O        -10.1250  -17.6090   -8.6660 O.2   100  MET100     -0.2864
     64  CB       -10.9010  -14.5880   -9.6360 C.3   100  MET100      0.0413
     65  CG       -11.8070  -13.4080   -9.9330 C.3   100  MET100      0.0598
     66  SD       -10.9030  -12.0110  -10.6260 S.3   100  MET100     -0.1393
     67  CE        -9.6340  -12.8640  -11.5630 C.3   100  MET100      0.0692
     68  N         -9.1900  -19.3800  -11.7310 N.3   102  ILE102     -0.1245
     69  CA        -8.2020  -19.4860  -12.7980 C.3   102  ILE102      0.1561
     70  C         -8.0660  -20.9360  -13.2220 C.2   102  ILE102      0.2260
     71  O         -7.7700  -21.8090  -12.4050 O.2   102  ILE102     -0.2867
     72  CB        -6.8110  -18.9470  -12.3790 C.3   102  ILE102      0.0252
     73  CG1       -6.9150  -17.5080  -11.8690 C.3   102  ILE102      0.0019
     74  CG2       -5.8430  -19.0030  -13.5530 C.3   102  ILE102      0.0019
     75  CD1       -5.6300  -16.9730  -11.2510 C.3   102  ILE102      0.0001
     76  N         -6.3100  -24.0660  -14.6050 N.3   104  HIS104     -0.1241
     77  CA        -4.9290  -24.5020  -14.7600 C.3   104  HIS104      0.1621
     78  C         -4.7920  -26.0080  -14.6380 C.2   104  HIS104      0.2264
     79  O         -5.6740  -26.6820  -14.1100 O.2   104  HIS104     -0.2867
     80  CB        -4.0340  -23.8310  -13.7170 C.3   104  HIS104      0.0745
     81  CG        -4.4540  -24.0870  -12.3030 C.ar  104  HIS104      0.0817
     82  ND1       -5.4700  -23.3900  -11.6880 N.ar  104  HIS104     -0.2268
     83  CD2       -4.0050  -24.9790  -11.3880 C.ar  104  HIS104      0.1154
     84  CE1       -5.6210  -23.8300  -10.4510 C.ar  104  HIS104      0.1986
     85  NE2       -4.7450  -24.7960  -10.2450 N.ar  104  HIS104     -0.2212
     86  N         -2.1140  -28.4480  -12.7890 N.3   106  THR106     -0.1218
     87  CA        -0.9560  -28.4480  -11.9110 C.3   106  THR106      0.1862
     88  C          0.0640  -29.4240  -12.4740 C.2   106  THR106      0.2287
     89  O         -0.2410  -30.5940  -12.7050 O.2   106  THR106     -0.2866
     90  CB        -1.3240  -28.8410  -10.4700 C.3   106  THR106      0.1770
     91  OG1       -2.5650  -28.2250  -10.1110 O.3   106  THR106     -0.2211
     92  CG2       -0.2460  -28.3870   -9.5030 C.3   106  THR106      0.0375
     93  N          4.6010  -29.2970   -7.7480 N.3   109  PHE109     -0.1241
     94  CA         4.3780  -28.5600   -6.5120 C.3   109  PHE109      0.1605
     95  C          5.6910  -27.9340   -6.0460 C.2   109  PHE109      0.2264
     96  O          5.9340  -27.7660   -4.8510 O.2   109  PHE109     -0.2867
     97  CB         3.7700  -29.4710   -5.4490 C.3   109  PHE109      0.0534
     98  CG         2.2680  -29.4870   -5.4730 C.ar  109  PHE109     -0.0203
     99  CD1        1.5440  -28.4430   -4.9220 C.ar  109  PHE109     -0.0042
    100  CD2        1.5810  -30.5250   -6.0800 C.ar  109  PHE109     -0.0042
    101  CE1        0.1650  -28.4460   -4.9530 C.ar  109  PHE109     -0.0003
    102  CE2        0.2000  -30.5320   -6.1150 C.ar  109  PHE109     -0.0003
    103  CZ        -0.5090  -29.4900   -5.5500 C.ar  109  PHE109     -0.0000
@<TRIPOS>BOND
     1    77    78    1
     2    77    76    1
     3    77    80    1
     4    78    79    2
     5     3     2    1
     6     3     4    2
     7     2     1    1
     8     2     5    1
     9    80    81    1
    10    74    72    1
    11    70    69    1
    12    70    71    2
    13    14    13    2
    14     5     6    1
    15    69    72    1
    16    69    68    1
    17    86    87    1
    18    89    88    2
    19    11    12    1
    20    88    87    1
    21    72    73    1
    22    13    12    1
    23    81    82   ar
    24    81    83   ar
    25    87    90    1
    26    73    75    1
    27    82    84   ar
    28    12    15    1
    29    67    66    1
    30     6     8   ar
    31     6     7   ar
    32    83    85   ar
    33    24    23    1
    34     8    10   ar
    35     7     9   ar
    36    66    65    1
    37    18    19    1
    38    90    91    1
    39    90    92    1
    40    84    85   ar
    41    15    16    1
    42    15    17    1
    43    19    22    1
    44    19    20    1
    45    22    23    1
    46    65    64    1
    47    23    25    1
    48    10     9   ar
    49    64    61    1
    50    35    34    2
    51    62    61    1
    52    62    63    2
    53    34    33    1
    54    20    21    2
    55    20    26   am
    56    61    60    1
    57    38    36    1
    58    26    27    1
    59    93    94    1
    60    33    36    1
    61    33    32    1
    62    60    51   am
    63    36    37    1
    64    29    28    2
    65    52    51    2
    66    27    28    1
    67    27    30    1
    68    94    95    1
    69    94    97    1
    70    51    50    1
    71   102   100   ar
    72   102   103   ar
    73   100    98   ar
    74    95    96    2
    75    37    39    1
    76    30    31    1
    77   103   101   ar
    78    98    97    1
    79    98    99   ar
    80    40    41    1
    81    54    55    1
    82    54    53    1
    83    43    42    2
    84    50    53    1
    85    50    49    1
    86   101    99   ar
    87    56    55    1
    88    56    57    2
    89    59    57    1
    90    57    58    1
    91    42    41    1
    92    44    41    1
    93    44    45    1
    94    45    46    1
    95    48    46   am
    96    46    47    2
