@<TRIPOS>MOLECULE
tmp/4ye3B00.pdb
 111 105 0 0 0
SMALL
GASTEIGER

@<TRIPOS>ATOM
      1  N        -19.3240  -15.8940    1.0370 N.3    23  LEU23      -0.1301
      2  CA       -18.8360  -16.8540    0.0880 C.3    23  LEU23       0.1247
      3  C        -18.2540  -18.1070    0.8490 C.3    23  LEU23       0.2009
      4  O        -17.3000  -17.8140    1.6370 O.3    23  LEU23      -0.2188
      5  CB       -17.7260  -16.0370   -0.6380 C.3    23  LEU23       0.0217
      6  CG       -16.9770  -16.7490   -1.7350 C.3    23  LEU23       0.0015
      7  CD1      -17.9670  -17.0210   -2.8730 C.3    23  LEU23       0.0000
      8  CD2      -15.9280  -15.8510   -2.2280 C.3    23  LEU23       0.0000
      9  N        -15.7320  -20.4860    1.2790 N.3    25  ASP25      -0.1239
     10  CA       -14.4120  -20.3120    0.7040 C.3    25  ASP25       0.1674
     11  C        -13.3720  -21.2610    1.2390 C.2    25  ASP25       0.2266
     12  O        -12.7850  -21.0210    2.3020 O.2    25  ASP25      -0.2867
     13  CB       -14.0200  -18.8710    0.9470 C.3    25  ASP25       0.1410
     14  CG       -12.8370  -18.5230    0.2550 C.2    25  ASP25       0.3668
     15  OD1      -12.2120  -19.4330   -0.3600 O.co2  25  ASP25      -0.2456
     16  OD2      -12.4840  -17.3300    0.2280 O.co2  25  ASP25      -0.2456
     17  N        -10.5080  -21.7710    0.2970 N.3    27  GLY27      -0.1210
     18  CA        -9.1620  -21.2070    0.3180 C.3    27  GLY27       0.1956
     19  C         -8.9510  -20.2230    1.4750 C.2    27  GLY27       0.2612
     20  O         -7.8530  -19.6290    1.5560 O.2    27  GLY27      -0.2717
     21  N         -9.9600  -19.9850    2.3300 N.am   28  ALA28      -0.1965
     22  CA        -9.8390  -19.0410    3.4230 C.3    28  ALA28       0.1728
     23  C         -9.7330  -19.8290    4.7320 C.2    28  ALA28       0.2616
     24  O        -10.5680  -20.6530    5.0710 O.2    28  ALA28      -0.2715
     25  CB       -11.0630  -18.1970    3.4790 C.3    28  ALA28       0.0334
     26  N         -8.6710  -19.5540    5.5060 N.am   29  ASP29      -0.1957
     27  CA        -8.5000  -20.2120    6.8120 C.3    29  ASP29       0.1840
     28  C         -9.5540  -19.6430    7.7860 C.2    29  ASP29       0.2622
     29  O        -10.0560  -20.4150    8.6370 O.2    29  ASP29      -0.2715
     30  CB        -7.1600  -19.9140    7.4060 C.3    29  ASP29       0.1450
     31  CG        -6.0040  -20.4490    6.6270 C.2    29  ASP29       0.3671
     32  OD1       -6.0580  -21.3450    5.7820 O.co2  29  ASP29      -0.2456
     33  OD2       -4.8450  -19.9370    6.9090 O.co2  29  ASP29      -0.2456
     34  N         -9.8350  -18.3240    7.7480 N.am   30  ASN30      -0.1972
     35  CA       -10.7780  -17.7470    8.6950 C.3    30  ASN30       0.1688
     36  C        -11.9510  -17.0940    7.9900 C.2    30  ASN30       0.2292
     37  O        -11.9540  -16.8650    6.7960 O.2    30  ASN30      -0.2864
     38  CB       -10.1820  -16.5790    9.5540 C.3    30  ASN30       0.1181
     39  CG        -9.2220  -16.9960   10.6020 C.2    30  ASN30       0.2629
     40  OD1       -8.0430  -17.1760   10.3610 O.2    30  ASN30      -0.2716
     41  ND2       -9.7280  -17.2300   11.7570 N.am   30  ASN30      -0.0877
     42  N        -14.5280  -13.9170    7.6290 N.3    32  ILE32      -0.1245
     43  CA       -14.3320  -12.4940    7.5810 C.3    32  ILE32       0.1561
     44  C        -15.5980  -11.7890    7.1140 C.2    32  ILE32       0.2260
     45  O        -16.2170  -12.1910    6.0780 O.2    32  ILE32      -0.2867
     46  CB       -13.1910  -12.0800    6.6540 C.3    32  ILE32       0.0252
     47  CG1      -11.9110  -12.8810    6.9670 C.3    32  ILE32       0.0019
     48  CG2      -12.8970  -10.5860    6.7700 C.3    32  ILE32       0.0019
     49  CD1      -10.7460  -12.5920    6.0910 C.3    32  ILE32       0.0001
     50  N         -4.6050   -9.9570    7.8570 N.3    47  VAL47      -0.1231
     51  CA        -4.6390  -11.1230    6.8990 C.3    47  VAL47       0.1692
     52  C         -4.2130  -10.8550    5.4870 C.2    47  VAL47       0.2593
     53  O         -4.4280   -9.7610    5.0040 O.2    47  VAL47      -0.2718
     54  CB        -6.0200  -11.9040    6.8480 C.3    47  VAL47       0.0266
     55  CG1       -6.5340  -12.0490    8.2210 C.3    47  VAL47       0.0020
     56  CG2       -7.0850  -11.1230    6.0350 C.3    47  VAL47       0.0020
     57  N         -3.6650  -11.8390    4.7890 N.am   48  GLY48      -0.1942
     58  CA        -3.0450  -11.5780    3.4680 C.3    48  GLY48       0.2014
     59  C         -3.7240  -12.3990    2.4100 C.2    48  GLY48       0.2639
     60  O         -4.0780  -13.5380    2.6510 O.2    48  GLY48      -0.2714
     61  N         -3.8840  -11.8160    1.2130 N.am   49  GLY49      -0.1939
     62  CA        -4.3300  -12.6430    0.1090 C.3    49  GLY49       0.2014
     63  C         -3.7070  -12.1060   -1.1190 C.2    49  GLY49       0.2638
     64  O         -2.6470  -11.4670   -1.0930 O.2    49  GLY49      -0.2714
     65  N         -4.3330  -12.3400   -2.1630 N.am   50  ILE50      -0.1977
     66  CA        -3.5980  -11.9480   -3.2320 C.3    50  ILE50       0.1596
     67  C         -3.6760  -10.4120   -3.0520 C.2    50  ILE50       0.2287
     68  O         -4.1030   -9.9770   -2.0440 O.2    50  ILE50      -0.2864
     69  CB        -4.1800  -12.4260   -4.4430 C.3    50  ILE50       0.0276
     70  CG1       -5.3870  -11.7250   -4.6820 C.3    50  ILE50       0.0022
     71  CG2       -4.3640  -13.8830   -4.4920 C.3    50  ILE50       0.0022
     72  CD1       -5.3130  -11.4890   -6.0620 C.3    50  ILE50       0.0001
     73  N         -2.4830   -7.3010    2.1430 N.3    53  PHE53      -0.1241
     74  CA        -3.0550   -7.4530    3.5420 C.3    53  PHE53       0.1605
     75  C         -4.1660   -6.4810    3.9850 C.2    53  PHE53       0.2264
     76  O         -4.0850   -5.2740    3.7340 O.2    53  PHE53      -0.2867
     77  CB        -1.9640   -7.3690    4.6350 C.3    53  PHE53       0.0534
     78  CG        -1.1290   -8.5650    4.7620 C.ar   53  PHE53      -0.0203
     79  CD1       -1.0190   -9.2680    5.9510 C.ar   53  PHE53      -0.0042
     80  CD2       -0.3410   -8.9640    3.7120 C.ar   53  PHE53      -0.0042
     81  CE1       -0.2240  -10.3650    6.0280 C.ar   53  PHE53      -0.0003
     82  CE2        0.4520  -10.0950    3.8230 C.ar   53  PHE53      -0.0003
     83  CZ         0.5400  -10.7560    4.9460 C.ar   53  PHE53      -0.0000
     84  N        -13.0720   -6.2830    3.8130 N.3    80  THR80      -0.1204
     85  CA       -12.9890   -7.2470    2.7570 C.3    80  THR80       0.1979
     86  C        -14.0040   -6.9190    1.6530 C.2    80  THR80       0.2460
     87  O        -15.0790   -6.4740    1.9430 O.2    80  THR80      -0.2732
     88  CB       -13.2830   -8.6680    3.3360 C.3    80  THR80       0.1783
     89  OG1      -13.2130   -9.6040    2.2290 O.3    80  THR80      -0.2211
     90  CG2      -14.6430   -8.7720    4.0900 C.3    80  THR80       0.0376
     91  N        -13.6610   -7.1840    0.3870 N.am   81  PRO81      -0.2717
     92  CA       -14.5840   -6.9010   -0.6850 C.3    81  PRO81       0.1535
     93  C        -15.7820   -7.8120   -0.7290 C.2    81  PRO81       0.2598
     94  O        -16.7920   -7.4230   -1.2780 O.2    81  PRO81      -0.2715
     95  CB       -13.7410   -7.2330   -1.9700 C.3    81  PRO81       0.0310
     96  CG       -12.4070   -7.1900   -1.5540 C.3    81  PRO81       0.0237
     97  CD       -12.3430   -7.5600   -0.1040 C.3    81  PRO81       0.0939
     98  N        -15.6480   -9.0260   -0.1900 N.am   82  VAL82      -0.1978
     99  CA       -16.8000   -9.8690   -0.0450 C.3    82  VAL82       0.1596
    100  C        -16.6160  -10.5330    1.3210 C.2    82  VAL82       0.2287
    101  O        -15.4710  -10.6920    1.8440 O.2    82  VAL82      -0.2864
    102  CB       -16.9170  -10.9340   -1.1870 C.3    82  VAL82       0.0276
    103  CG1      -15.8530  -11.9410   -1.0910 C.3    82  VAL82       0.0022
    104  CG2      -18.2260  -11.5770   -1.1390 C.3    82  VAL82       0.0022
    105  N        -16.4230  -13.7420    3.6610 N.3    84  VAL84      -0.1245
    106  CA       -16.1030  -15.1560    3.4210 C.3    84  VAL84       0.1561
    107  C        -16.2210  -15.9800    4.6640 C.2    84  VAL84       0.2260
    108  O        -15.7250  -15.6000    5.7620 O.2    84  VAL84      -0.2867
    109  CB       -14.6670  -15.3940    2.8650 C.3    84  VAL84       0.0252
    110  CG1      -14.5090  -14.7880    1.4820 C.3    84  VAL84       0.0019
    111  CG2      -13.6680  -14.7470    3.8280 C.3    84  VAL84       0.0019
@<TRIPOS>BOND
     1    72    70    1
     2    70    69    1
     3    71    69    1
     4    69    66    1
     5    66    67    1
     6    66    65    1
     7    67    68    2
     8     7     6    1
     9     8     6    1
    10    65    63   am
    11    95    96    1
    12    95    92    1
    13     6     5    1
    14    96    97    1
    15    94    93    2
    16   102   104    1
    17   102   103    1
    18   102    99    1
    19    63    64    2
    20    63    62    1
    21    93    92    1
    22    93    98   am
    23    92    91    1
    24     5     2    1
    25    15    14   ar
    26    98    99    1
    27    97    91    1
    28    99   100    1
    29     2     3    1
    30     2     1    1
    31    62    61    1
    32    16    14   ar
    33    14    13    1
    34    17    18    1
    35    18    19    1
    36    91    86   am
    37    10    13    1
    38    10    11    1
    39    10     9    1
    40     3     4    1
    41    61    59   am
    42    11    12    2
    43   100   101    2
    44    19    20    2
    45    19    21   am
    46   110   109    1
    47    86    87    2
    48    86    85    1
    49    73    74    1
    50    89    88    1
    51    21    22    1
    52    59    60    2
    53    59    58    1
    54    85    88    1
    55    85    84    1
    56   109   106    1
    57   109   111    1
    58    88    90    1
    59   106   105    1
    60   106   107    1
    61    22    25    1
    62    22    23    1
    63    58    57    1
    64    74    75    1
    65    74    77    1
    66    80    82   ar
    67    80    78   ar
    68    76    75    2
    69    82    83   ar
    70    77    78    1
    71   107   108    2
    72    23    24    2
    73    23    26   am
    74    78    79   ar
    75    57    52   am
    76    83    81   ar
    77    53    52    2
    78    52    51    1
    79    26    27    1
    80    32    31   ar
    81    79    81   ar
    82    56    54    1
    83    45    44    2
    84    49    47    1
    85    31    33   ar
    86    31    30    1
    87    46    48    1
    88    46    47    1
    89    46    43    1
    90    37    36    2
    91    27    30    1
    92    27    28    1
    93    54    51    1
    94    54    55    1
    95    51    50    1
    96    44    43    1
    97    43    42    1
    98    34    28   am
    99    34    35    1
   100    28    29    2
   101    36    35    1
   102    35    38    1
   103    38    39    1
   104    40    39    2
   105    39    41   am
