@<TRIPOS>MOLECULE
tmp/4yecB00.pdb
 113 109 0 0 0
SMALL
GASTEIGER

@<TRIPOS>ATOM
      1  N          1.8420    1.8490   -5.0520 N.3    30  ASP30      -0.1225
      2  CA         2.2510    2.4960   -3.7960 C.3    30  ASP30       0.1805
      3  C          1.0520    2.3520   -2.8830 C.2    30  ASP30       0.2598
      4  O          0.1950    3.2490   -2.7830 O.2    30  ASP30      -0.2718
      5  CB         2.6400    3.9570   -4.0210 C.3    30  ASP30       0.1424
      6  CG         3.2970    4.5800   -2.7910 C.2    30  ASP30       0.3668
      7  OD1        3.0910    4.0340   -1.6780 O.co2  30  ASP30      -0.2456
      8  OD2        4.0010    5.5930   -2.9260 O.co2  30  ASP30      -0.2456
      9  N          0.9950    1.1780   -2.2440 N.am   31  ALA31      -0.1966
     10  CA        -0.1880    0.7080   -1.5420 C.3    31  ALA31       0.1728
     11  C          0.1820   -0.5620   -0.8270 C.2    31  ALA31       0.2616
     12  O          1.0580   -1.2960   -1.2760 O.2    31  ALA31      -0.2715
     13  CB        -1.3290    0.4260   -2.4910 C.3    31  ALA31       0.0334
     14  N         -0.5120   -0.8410    0.2600 N.am   32  CYS32      -0.1954
     15  CA        -0.2670   -2.0900    0.9600 C.3    32  CYS32       0.1843
     16  C         -0.8240   -3.3040    0.2110 C.2    32  CYS32       0.2625
     17  O         -1.8460   -3.2210   -0.4740 O.2    32  CYS32      -0.2714
     18  CB        -0.8910   -2.0430    2.3400 C.3    32  CYS32       0.0997
     19  SG        -0.2250   -0.8180    3.4500 S.3    32  CYS32      -0.0797
     20  N         -0.1510   -4.4420    0.4050 N.am   33  TYR33      -0.1974
     21  CA        -0.6830   -5.7620    0.1400 C.3    33  TYR33       0.1639
     22  C         -0.9290   -6.1110   -1.3400 C.2    33  TYR33       0.2290
     23  O         -1.4600   -7.1830   -1.6140 O.2    33  TYR33      -0.2864
     24  CB        -1.9620   -5.9810    0.9340 C.3    33  TYR33       0.0560
     25  CG        -1.7830   -6.0810    2.4330 C.ar   33  TYR33      -0.0198
     26  CD1       -0.9860   -7.0710    3.0040 C.ar   33  TYR33      -0.0009
     27  CD2       -2.4100   -5.1820    3.2890 C.ar   33  TYR33      -0.0009
     28  CE1       -0.8180   -7.1640    4.3460 C.ar   33  TYR33       0.0417
     29  CE2       -2.2580   -5.3040    4.6730 C.ar   33  TYR33       0.0417
     30  CZ        -1.4630   -6.3100    5.1830 C.ar   33  TYR33       0.1957
     31  OH        -1.2880   -6.4240    6.5410 O.3    33  TYR33      -0.2866
     32  N          2.6420   -4.5140    4.2950 N.3    56  GLU56      -0.1231
     33  CA         2.3460   -3.1080    4.4740 C.3    56  GLU56       0.1699
     34  C          3.5960   -2.2700    4.2390 C.2    56  GLU56       0.2593
     35  O          4.7290   -2.6760    4.5130 O.2    56  GLU56      -0.2718
     36  CB         1.7840   -2.8410    5.8700 C.3    56  GLU56       0.0402
     37  CG         0.5160   -3.6270    6.1320 C.3    56  GLU56       0.1161
     38  CD        -0.1630   -3.3610    7.4630 C.2    56  GLU56       0.3649
     39  OE1        0.1390   -2.3390    8.1170 O.co2  56  GLU56      -0.2457
     40  OE2       -1.0420   -4.1820    7.8220 O.co2  56  GLU56      -0.2457
     41  N          3.3600   -1.0670    3.7630 N.am   57  THR57      -0.1939
     42  CA         4.4090   -0.1270    3.4410 C.3    57  THR57       0.2028
     43  C          4.1820    1.0500    4.3180 C.2    57  THR57       0.2642
     44  O          3.0390    1.4300    4.5310 O.2    57  THR57      -0.2714
     45  CB         4.3490    0.3070    1.9780 C.3    57  THR57       0.1808
     46  OG1        4.5640   -0.8390    1.1510 O.3    57  THR57      -0.2208
     47  CG2        5.3640    1.3900    1.6930 C.3    57  THR57       0.0379
     48  N          5.2560    1.5820    4.8810 N.am   58  MET58      -0.1962
     49  CA         5.1200    2.7620    5.7180 C.3    58  MET58       0.1736
     50  C          4.4490    3.9210    4.9540 C.2    58  MET58       0.2616
     51  O          4.5970    4.0360    3.7410 O.2    58  MET58      -0.2715
     52  CB         6.4890    3.1380    6.2680 C.3    58  MET58       0.0427
     53  CG         7.2660    1.9400    6.8590 C.3    58  MET58       0.0599
     54  SD         6.4850    1.0580    8.2440 S.3    58  MET58      -0.1393
     55  CE         6.2260    2.4780    9.2840 C.3    58  MET58       0.0692
     56  N          3.6790    4.7380    5.6590 N.am   59  ALA59      -0.1963
     57  CA         2.8920    5.7950    5.0220 C.3    59  ALA59       0.1728
     58  C          3.7810    6.7700    4.2400 C.2    59  ALA59       0.2616
     59  O          3.3300    7.3680    3.2460 O.2    59  ALA59      -0.2715
     60  CB         2.0520    6.5470    6.0550 C.3    59  ALA59       0.0334
     61  N          5.0450    6.8990    4.6460 N.am   60  ASP60      -0.1957
     62  CA         6.0050    7.7280    3.9120 C.3    60  ASP60       0.1840
     63  C          6.1550    7.2360    2.4690 C.2    60  ASP60       0.2622
     64  O          6.5060    7.9940    1.5690 O.2    60  ASP60      -0.2715
     65  CB         7.3590    7.7400    4.6270 C.3    60  ASP60       0.1450
     66  CG         7.3740    8.6750    5.8420 C.2    60  ASP60       0.3671
     67  OD1        6.4110    9.4540    6.0110 O.co2  60  ASP60      -0.2456
     68  OD2        8.3520    8.6300    6.6240 O.co2  60  ASP60      -0.2456
     69  N          5.8860    5.9570    2.2410 N.am   61  GLY61      -0.1954
     70  CA         5.7370    5.4720    0.8900 C.3    61  GLY61       0.1869
     71  C          7.0500    5.2920    0.1650 C.2    61  GLY61       0.2309
     72  O          8.0910    5.0130    0.7390 O.2    61  GLY61      -0.2863
     73  N         12.1980    2.8520   11.0520 N.3    94  TYR94      -0.1241
     74  CA        11.1760    1.8860   10.6930 C.3    94  TYR94       0.1605
     75  C         11.6790    1.0650    9.5290 C.2    94  TYR94       0.2264
     76  O         11.2460    1.2810    8.3970 O.2    94  TYR94      -0.2867
     77  CB         9.8590    2.5790   10.3240 C.3    94  TYR94       0.0534
     78  CG         9.1180    3.0450   11.5450 C.ar   94  TYR94      -0.0201
     79  CD1        8.3060    2.1660   12.2570 C.ar   94  TYR94      -0.0009
     80  CD2        9.2520    4.3430   12.0120 C.ar   94  TYR94      -0.0009
     81  CE1        7.6390    2.5690   13.3910 C.ar   94  TYR94       0.0417
     82  CE2        8.5760    4.7720   13.1640 C.ar   94  TYR94       0.0417
     83  CZ         7.7740    3.8740   13.8410 C.ar   94  TYR94       0.1957
     84  OH         7.0950    4.2680   14.9640 O.3    94  TYR94      -0.2866
     85  N         -4.5130   -7.5200    8.8130 N.3   140  LEU140     -0.1245
     86  CA        -5.5160   -6.4580    8.7310 C.3   140  LEU140      0.1561
     87  C         -6.3720   -6.4510    9.9780 C.2   140  LEU140      0.2260
     88  O         -6.4530   -7.4520   10.6780 O.2   140  LEU140     -0.2867
     89  CB        -6.4040   -6.6470    7.5190 C.3   140  LEU140      0.0270
     90  CG        -5.6890   -6.3210    6.2270 C.3   140  LEU140      0.0019
     91  CD1       -6.4890   -6.9330    5.1340 C.3   140  LEU140      0.0001
     92  CD2       -5.5910   -4.8000    6.0640 C.3   140  LEU140      0.0001
     93  N          6.2230   -4.5070    9.3800 N.3   184  TYR184     -0.1241
     94  CA         5.4410   -3.7890   10.3850 C.3   184  TYR184      0.1605
     95  C          3.9620   -3.7880   10.0210 C.2   184  TYR184      0.2264
     96  O          3.6070   -3.5270    8.8630 O.2   184  TYR184     -0.2867
     97  CB         5.9420   -2.3520   10.5040 C.3   184  TYR184      0.0534
     98  CG         5.2550   -1.5570   11.5630 C.ar  184  TYR184     -0.0201
     99  CD1        4.1000   -0.8280   11.2840 C.ar  184  TYR184     -0.0009
    100  CD2        5.7640   -1.5130   12.8480 C.ar  184  TYR184     -0.0009
    101  CE1        3.4800   -0.0860   12.2540 C.ar  184  TYR184      0.0417
    102  CE2        5.1450   -0.7610   13.8400 C.ar  184  TYR184      0.0417
    103  CZ         4.0040   -0.0560   13.5360 C.ar  184  TYR184      0.1957
    104  OH         3.3970    0.6790   14.5200 O.3   184  TYR184     -0.2866
    105  N          0.2720   -2.2410   11.0460 N.3   186  ALA186     -0.1245
    106  CA        -0.3260   -1.1440   11.7950 C.3   186  ALA186      0.1562
    107  C         -1.3720   -1.6550   12.8000 C.2   186  ALA186      0.2260
    108  O         -1.5290   -1.0950   13.8830 O.2   186  ALA186     -0.2867
    109  CB        -0.9420   -0.1260   10.8350 C.3   186  ALA186      0.0290
    110  N          0.6870   -2.7320   15.8490 N.3   189  GLY189     -0.1225
    111  CA         1.7450   -1.8300   16.2830 C.3   189  GLY189      0.1811
    112  C          3.0870   -2.4850   16.5390 C.2   189  GLY189      0.2280
    113  O          3.8430   -2.0750   17.4330 O.2   189  GLY189     -0.2866
@<TRIPOS>BOND
     1     1     2    1
     2     5     2    1
     3     5     6    1
     4     2     3    1
     5     8     6   ar
     6     3     4    2
     7     3     9   am
     8     6     7   ar
     9    13    10    1
    10     9    10    1
    11    23    22    2
    12    10    11    1
    13    22    21    1
    14    12    11    2
    15    11    14   am
    16    17    16    2
    17    21    20    1
    18    21    24    1
    19    71    72    2
    20    71    70    1
    21    16    20   am
    22    16    15    1
    23    14    15    1
    24    70    69    1
    25    24    25    1
    26    15    18    1
    27    46    45    1
    28    64    63    2
    29    47    45    1
    30    45    42    1
    31    69    63   am
    32    18    19    1
    33    25    26   ar
    34    25    27   ar
    35    63    62    1
    36    26    28   ar
    37    59    58    2
    38    27    29   ar
    39    42    41    1
    40    42    43    1
    41    51    50    2
    42    41    34   am
    43    62    65    1
    44    62    61    1
    45    34    33    1
    46    34    35    2
    47    58    61   am
    48    58    57    1
    49    32    33    1
    50    43    44    2
    51    43    48   am
    52    28    30   ar
    53    33    36    1
    54    65    66    1
    55    29    30   ar
    56    48    49    1
    57    50    56   am
    58    50    49    1
    59    57    56    1
    60    57    60    1
    61    91    90    1
    62    30    31    1
    63    49    52    1
    64    66    67   ar
    65    66    68   ar
    66    36    37    1
    67    92    90    1
    68    37    38    1
    69    90    89    1
    70    52    53    1
    71    53    54    1
    72    38    40   ar
    73    38    39   ar
    74    89    86    1
    75    54    55    1
    76    76    75    2
    77    86    85    1
    78    86    87    1
    79    96    95    2
    80    93    94    1
    81    75    74    1
    82    87    88    2
    83    95    94    1
    84    77    74    1
    85    77    78    1
    86    94    97    1
    87    97    98    1
    88    74    73    1
    89   109   106    1
    90   105   106    1
    91    99    98   ar
    92    99   101   ar
    93    78    80   ar
    94    78    79   ar
    95    98   100   ar
    96   106   107    1
    97    80    82   ar
    98   101   103   ar
    99    79    81   ar
   100   107   108    2
   101   100   102   ar
   102    82    83   ar
   103    81    83   ar
   104   103   102   ar
   105   103   104    1
   106    83    84    1
   107   110   111    1
   108   111   112    1
   109   112   113    2
