@<TRIPOS>MOLECULE
tmp/4yeeM00.pdb
 116 113 0 0 0
SMALL
GASTEIGER

@<TRIPOS>ATOM
      1  N         47.9030   -9.1350   40.2810 N.3    22  SER22      -0.1217
      2  CA        49.2810   -9.0020   39.8560 C.3    22  SER22       0.1889
      3  C         49.8530  -10.3950   39.6670 C.2    22  SER22       0.2288
      4  O         49.2180  -11.3880   40.0540 O.2    22  SER22      -0.2866
      5  CB        50.1130   -8.1770   40.8520 C.3    22  SER22       0.2089
      6  OG        51.4210   -8.0300   40.3220 O.3    22  SER22      -0.2183
      7  N         55.3620   -8.9810   38.5820 N.3    28  TRP28      -0.1227
      8  CA        54.7710   -8.4020   39.7800 C.3    28  TRP28       0.1737
      9  C         54.9760   -6.8860   39.8230 C.2    28  TRP28       0.2596
     10  O         55.0240   -6.3030   40.8920 O.2    28  TRP28      -0.2718
     11  CB        55.3120   -9.1050   41.0530 C.3    28  TRP28       0.0564
     12  CG        55.0750  -10.5730   41.0260 C.ar   28  TRP28       0.0003
     13  CD1       55.8870  -11.5330   40.4850 C.ar   28  TRP28       0.0946
     14  CD2       53.9180  -11.2580   41.5110 C.ar   28  TRP28       0.0152
     15  NE1       55.3110  -12.7780   40.6100 N.ar   28  TRP28      -0.2442
     16  CE2       54.1080  -12.6460   41.2470 C.ar   28  TRP28       0.0810
     17  CE3       52.7550  -10.8460   42.1680 C.ar   28  TRP28       0.0012
     18  CZ2       53.1570  -13.6050   41.5800 C.ar   28  TRP28       0.0191
     19  CZ3       51.8070  -11.8060   42.5050 C.ar   28  TRP28       0.0001
     20  CH2       52.0280  -13.1770   42.2340 C.ar   28  TRP28       0.0015
     21  N         55.0290   -6.2330   38.6550 N.am   29  SER29      -0.1938
     22  CA        55.4180   -4.8210   38.6550 C.3    29  SER29       0.2055
     23  C         54.2750   -3.9510   39.0640 C.2    29  SER29       0.2644
     24  O         54.4750   -2.8770   39.6060 O.2    29  SER29      -0.2714
     25  CB        55.8520   -4.3370   37.2800 C.3    29  SER29       0.2130
     26  OG        54.7810   -4.5060   36.3980 O.3    29  SER29      -0.2179
     27  N         53.0730   -4.4080   38.7610 N.am   30  THR30      -0.1936
     28  CA        51.9040   -3.5630   38.8440 C.3    30  THR30       0.2028
     29  C         50.7020   -4.3400   39.4010 C.2    30  THR30       0.2642
     30  O         50.5210   -5.5090   39.0950 O.2    30  THR30      -0.2714
     31  CB        51.5660   -3.0550   37.4260 C.3    30  THR30       0.1808
     32  OG1       52.7730   -2.5130   36.8630 O.3    30  THR30      -0.2208
     33  CG2       50.4890   -1.9470   37.4800 C.3    30  THR30       0.0379
     34  N         49.8800   -3.6530   40.1870 N.am   31  LYS31      -0.1977
     35  CA        48.5540   -4.1410   40.5350 C.3    31  LYS31       0.1596
     36  C         47.5660   -3.6440   39.4900 C.2    31  LYS31       0.2287
     37  O         47.3600   -2.4520   39.3520 O.2    31  LYS31      -0.2864
     38  CB        48.1610   -3.6570   41.9130 C.3    31  LYS31       0.0298
     39  CG        49.0560   -4.1640   43.0390 C.3    31  LYS31       0.0038
     40  CD        48.5250   -3.6030   44.3510 C.3    31  LYS31       0.0206
     41  CE        49.3270   -3.9760   45.5800 C.3    31  LYS31       0.1093
     42  NZ        49.4470   -2.7540   46.4230 N.3    31  LYS31      -0.1314
     43  N         52.1200  -17.4990   37.6340 N.3    53  GLN53      -0.1245
     44  CA        51.5670  -17.3270   38.9890 C.3    53  GLN53       0.1566
     45  C         50.9110  -15.9830   39.1230 C.2    53  GLN53       0.2260
     46  O         51.3400  -15.0160   38.4620 O.2    53  GLN53      -0.2867
     47  CB        52.6570  -17.4620   40.0470 C.3    53  GLN53       0.0367
     48  CG        53.1620  -18.8780   40.1710 C.3    53  GLN53       0.0905
     49  CD        54.1960  -18.9960   41.2470 C.2    53  GLN53       0.2608
     50  OE1       54.0840  -18.3550   42.3010 O.2    53  GLN53      -0.2717
     51  NE2       55.2300  -19.7960   40.9920 N.am   53  GLN53      -0.0878
     52  N         48.0820  -13.4750   41.9330 N.3    55  LYS55      -0.1245
     53  CA        47.3530  -13.3220   43.1720 C.3    55  LYS55       0.1561
     54  C         46.5340  -12.0200   43.1020 C.2    55  LYS55       0.2260
     55  O         46.8450  -11.1110   42.3310 O.2    55  LYS55      -0.2867
     56  CB        48.2920  -13.3190   44.3880 C.3    55  LYS55       0.0271
     57  CG        47.5950  -13.6170   45.7210 C.3    55  LYS55       0.0035
     58  CD        48.5790  -14.1140   46.7740 C.3    55  LYS55       0.0206
     59  CE        47.9170  -14.5450   48.0950 C.3    55  LYS55       0.1093
     60  NZ        49.0100  -14.9810   49.0000 N.3    55  LYS55      -0.1314
     61  N         46.2920   -9.4270   50.1890 N.3    62  TRP62      -0.1241
     62  CA        46.6010  -10.4690   49.2130 C.3    62  TRP62       0.1605
     63  C         45.7600  -11.7280   49.4750 C.2    62  TRP62       0.2264
     64  O         45.7960  -12.3020   50.5640 O.2    62  TRP62      -0.2867
     65  CB        48.1080  -10.7990   49.2180 C.3    62  TRP62       0.0550
     66  CG        48.9350   -9.6630   48.6680 C.ar   62  TRP62       0.0003
     67  CD1       49.6320   -8.7310   49.3830 C.ar   62  TRP62       0.0946
     68  CD2       49.0890   -9.3010   47.2800 C.ar   62  TRP62       0.0152
     69  NE1       50.2280   -7.8250   48.5250 N.ar   62  TRP62      -0.2442
     70  CE2       49.9130   -8.1570   47.2340 C.ar   62  TRP62       0.0810
     71  CE3       48.6340   -9.8570   46.0760 C.ar   62  TRP62       0.0012
     72  CZ2       50.2940   -7.5450   46.0240 C.ar   62  TRP62       0.0191
     73  CZ3       48.9940   -9.2480   44.8800 C.ar   62  TRP62       0.0001
     74  CH2       49.8160   -8.0960   44.8600 C.ar   62  TRP62       0.0015
     75  N         55.2020  -19.8280   45.8440 N.3    73  SER73      -0.1202
     76  CA        56.2290  -19.0720   45.1480 C.3    73  SER73       0.2020
     77  C         57.6330  -19.2710   45.7660 C.2    73  SER73       0.2619
     78  O         57.7930  -19.9320   46.8030 O.2    73  SER73      -0.2717
     79  CB        55.8780  -17.5890   45.1880 C.3    73  SER73       0.2103
     80  OG        56.1340  -17.0880   46.4920 O.3    73  SER73      -0.2182
     81  N         58.6350  -18.6490   45.1530 N.am   74  GLN74      -0.1965
     82  CA        59.9760  -18.7110   45.7040 C.3    74  GLN74       0.1733
     83  C         60.1260  -17.8180   46.9390 C.2    74  GLN74       0.2616
     84  O         61.1200  -17.9150   47.6410 O.2    74  GLN74      -0.2715
     85  CB        61.0180  -18.3310   44.6590 C.3    74  GLN74       0.0408
     86  CG        61.0960  -19.2960   43.5110 C.3    74  GLN74       0.0908
     87  CD        62.3830  -19.1160   42.7120 C.2    74  GLN74       0.2608
     88  OE1       63.4830  -19.0360   43.2770 O.2    74  GLN74      -0.2717
     89  NE2       62.2560  -19.0500   41.4010 N.am   74  GLN74      -0.0878
     90  N         59.1390  -16.9530   47.1940 N.am   75  LEU75      -0.1963
     91  CA        59.0740  -16.1970   48.4220 C.3    75  LEU75       0.1728
     92  C         58.4300  -16.9880   49.5340 C.2    75  LEU75       0.2617
     93  O         58.3880  -16.5240   50.6530 O.2    75  LEU75      -0.2715
     94  CB        58.2960  -14.9050   48.2120 C.3    75  LEU75       0.0311
     95  CG        58.1140  -13.9540   49.3800 C.3    75  LEU75       0.0022
     96  CD1       59.4750  -13.5490   49.9080 C.3    75  LEU75       0.0001
     97  CD2       57.3170  -12.7370   48.9500 C.3    75  LEU75       0.0001
     98  N         57.9050  -18.1680   49.2140 N.am   76  GLY76      -0.1940
     99  CA        57.2720  -18.9810   50.1900 C.3    76  GLY76       0.2014
    100  C         55.8200  -18.6310   50.3620 C.2    76  GLY76       0.2639
    101  O         55.2180  -19.0830   51.3200 O.2    76  GLY76      -0.2714
    102  N         55.2550  -17.8310   49.4480 N.am   77  THR77      -0.1950
    103  CA        53.8710  -17.3800   49.5670 C.3    77  THR77       0.1897
    104  C         52.9490  -18.1450   48.6420 C.2    77  THR77       0.2313
    105  O         53.4110  -18.8110   47.7290 O.2    77  THR77      -0.2863
    106  CB        53.7180  -15.8940   49.2280 C.3    77  THR77       0.1794
    107  OG1       54.2650  -15.6210   47.9220 O.3    77  THR77      -0.2208
    108  CG2       54.4050  -15.0500   50.2690 C.3    77  THR77       0.0378
    109  N         50.3110  -18.5200   45.7120 N.3    79  ASN79      -0.1240
    110  CA        49.7010  -17.9300   44.5230 C.3    79  ASN79       0.1653
    111  C         48.8110  -18.9030   43.7650 C.2    79  ASN79       0.2266
    112  O         48.9670  -20.0950   43.8870 O.2    79  ASN79      -0.2867
    113  CB        50.7950  -17.4720   43.5640 C.3    79  ASN79       0.1155
    114  CG        51.6280  -16.3710   44.1390 C.2    79  ASN79       0.2627
    115  OD1       51.1200  -15.5430   44.8690 O.2    79  ASN79      -0.2716
    116  ND2       52.9280  -16.3770   43.8340 N.am   79  ASN79      -0.0877
@<TRIPOS>BOND
     1    26    25    1
     2    32    31    1
     3    25    22    1
     4    31    33    1
     5    31    28    1
     6    43    44    1
     7    46    45    2
     8     7     8    1
     9    22    21    1
    10    22    23    1
    11    21     9   am
    12    27    28    1
    13    27    23   am
    14    28    29    1
    15    44    45    1
    16    44    47    1
    17    23    24    2
    18    30    29    2
    19    37    36    2
    20    29    34   am
    21    36    35    1
    22     3     2    1
    23     3     4    2
    24     8     9    1
    25     8    11    1
    26     9    10    2
    27     2     1    1
    28     2     5    1
    29    47    48    1
    30    48    49    1
    31    34    35    1
    32     6     5    1
    33    13    15   ar
    34    13    12   ar
    35    35    38    1
    36    15    16   ar
    37    51    49   am
    38    12    11    1
    39    12    14   ar
    40    16    14   ar
    41    16    18   ar
    42    49    50    2
    43    89    87   am
    44    14    17   ar
    45    18    20   ar
    46    38    39    1
    47    52    53    1
    48    17    19   ar
    49    20    19   ar
    50    55    54    2
    51    87    88    2
    52    87    86    1
    53    39    40    1
    54    54    53    1
    55    53    56    1
    56    86    85    1
    57   113   114    1
    58   113   110    1
    59   111   112    2
    60   111   110    1
    61   116   114   am
    62   114   115    2
    63    40    41    1
    64    56    57    1
    65   110   109    1
    66    85    82    1
    67    74    73   ar
    68    74    72   ar
    69    73    71   ar
    70    76    79    1
    71    76    77    1
    72    76    75    1
    73    81    82    1
    74    81    77   am
    75    79    80    1
    76    41    42    1
    77    82    83    1
    78    57    58    1
    79    77    78    2
    80    72    70   ar
    81    71    68   ar
    82    58    59    1
    83    83    90   am
    84    83    84    2
    85    90    91    1
    86    70    68   ar
    87    70    69   ar
    88    68    66   ar
    89   105   104    2
    90   107   106    1
    91    59    60    1
    92    94    91    1
    93    94    95    1
    94    91    92    1
    95    69    67   ar
    96   104   103    1
    97    66    65    1
    98    66    67   ar
    99    97    95    1
   100    62    65    1
   101    62    63    1
   102    62    61    1
   103    98    92   am
   104    98    99    1
   105   106   103    1
   106   106   108    1
   107    95    96    1
   108   102   103    1
   109   102   100   am
   110    63    64    2
   111    92    93    2
   112    99   100    1
   113   100   101    2
