@<TRIPOS>MOLECULE
tmp/4yekB00.pdb
 84 79 0 0 0
SMALL
GASTEIGER

@<TRIPOS>ATOM
      1  N        178.5590   49.0500   -3.1260 N.3   248  SER248     -0.1202
      2  CA       177.9900   47.7070   -2.9050 C.3   248  SER248      0.2020
      3  C        177.2410   47.2380   -4.1270 C.2   248  SER248      0.2619
      4  O        176.6800   46.1390   -4.1560 O.2   248  SER248     -0.2717
      5  CB       177.0570   47.6850   -1.7210 C.3   248  SER248      0.2103
      6  OG       177.6490   48.3550   -0.6400 O.3   248  SER248     -0.2182
      7  N        177.2330   48.0880   -5.1410 N.am  249  SER249     -0.1951
      8  CA       176.5420   47.7660   -6.3650 C.3   249  SER249      0.1924
      9  C        177.3350   48.2100   -7.5800 C.2   249  SER249      0.2314
     10  O        178.1750   49.0990   -7.4960 O.2   249  SER249     -0.2863
     11  CB       175.1510   48.4060   -6.3700 C.3   249  SER249      0.2116
     12  OG       175.2400   49.8020   -6.3330 O.3   249  SER249     -0.2180
     13  N        171.2880   51.3190  -10.3360 N.3   254  VAL254     -0.1245
     14  CA       171.5880   50.8010   -8.9960 C.3   254  VAL254      0.1561
     15  C        172.7090   51.6050   -8.3350 C.2   254  VAL254      0.2260
     16  O        172.7470   51.7350   -7.1150 O.2   254  VAL254     -0.2867
     17  CB       171.9690   49.2850   -8.9850 C.3   254  VAL254      0.0252
     18  CG1      170.8560   48.4440   -9.5580 C.3   254  VAL254      0.0019
     19  CG2      173.2960   49.0080   -9.6920 C.3   254  VAL254      0.0019
     20  N        171.1330   54.9800   -7.1350 N.3   257  ARG257     -0.1231
     21  CA       170.3880   54.7550   -5.9210 C.3   257  ARG257      0.1694
     22  C        171.3750   54.8240   -4.7660 C.2   257  ARG257      0.2591
     23  O        171.2010   55.6490   -3.8620 O.2   257  ARG257     -0.2718
     24  CB       169.6520   53.4140   -5.9860 C.3   257  ARG257      0.0321
     25  CG       168.9350   52.9510   -4.7110 C.3   257  ARG257      0.0489
     26  CD       168.0780   51.6970   -4.9940 C.3   257  ARG257      0.2205
     27  NE       166.9400   51.9760   -5.8790 N.pl3 257  ARG257     -0.0865
     28  CZ       166.8780   51.6560   -7.1740 C.cat 257  ARG257      0.5346
     29  NH1      167.8890   51.0310   -7.7610 N.pl3 257  ARG257      0.1354
     30  NH2      165.7980   51.9540   -7.8880 N.pl3 257  ARG257      0.1354
     31  N        172.4420   54.0190   -4.8280 N.am  258  GLU258     -0.1979
     32  CA       173.4580   54.0220   -3.7710 C.3   258  GLU258      0.1602
     33  C        173.9760   55.4450   -3.4740 C.2   258  GLU258      0.2287
     34  O        174.1410   55.8130   -2.3050 O.2   258  GLU258     -0.2864
     35  CB       174.6270   53.0770   -4.1200 C.3   258  GLU258      0.0415
     36  CG       175.6640   52.9380   -3.0030 C.3   258  GLU258      0.1163
     37  CD       176.3460   51.5640   -2.9670 C.2   258  GLU258      0.3649
     38  OE1      176.1100   50.7680   -3.9210 O.co2 258  GLU258     -0.2457
     39  OE2      177.1040   51.2630   -1.9850 O.co2 258  GLU258     -0.2457
     40  N        171.3170   57.3920   -1.3180 N.3   261  GLN261     -0.1245
     41  CA       171.2750   56.8420    0.0360 C.3   261  GLN261      0.1566
     42  C        172.5490   57.1650    0.8370 C.2   261  GLN261      0.2260
     43  O        172.5330   57.2450    2.0780 O.2   261  GLN261     -0.2867
     44  CB       171.0520   55.3300   -0.0220 C.3   261  GLN261      0.0367
     45  CG       169.8030   54.9640   -0.7850 C.3   261  GLN261      0.0905
     46  CD       169.4780   53.4760   -0.7310 C.2   261  GLN261      0.2608
     47  OE1      170.2630   52.6710   -0.2210 O.2   261  GLN261     -0.2717
     48  NE2      168.3110   53.1050   -1.2530 N.am  261  GLN261     -0.0878
     49  N        170.9370   57.3210    4.3750 N.3   266  GLU266     -0.1231
     50  CA       170.1870   56.0670    4.3960 C.3   266  GLU266      0.1699
     51  C        171.1300   54.8850    4.5550 C.2   266  GLU266      0.2592
     52  O        170.8850   53.9920    5.3560 O.2   266  GLU266     -0.2718
     53  CB       169.3760   55.9200    3.1170 C.3   266  GLU266      0.0402
     54  CG       167.9820   55.3930    3.2870 C.3   266  GLU266      0.1161
     55  CD       167.1570   55.5410    2.0100 C.2   266  GLU266      0.3649
     56  OE1      167.2070   56.6340    1.3780 O.co2 266  GLU266     -0.2457
     57  OE2      166.4710   54.5600    1.6350 O.co2 266  GLU266     -0.2457
     58  N        172.2180   54.8930    3.7920 N.am  267  TYR267     -0.1976
     59  CA       173.2230   53.8500    3.8930 C.3   267  TYR267      0.1639
     60  C        174.5880   54.2850    3.3610 C.2   267  TYR267      0.2290
     61  O        174.6840   54.8350    2.2720 O.2   267  TYR267     -0.2864
     62  CB       172.7710   52.6090    3.1420 C.3   267  TYR267      0.0560
     63  CG       173.8810   51.5950    2.9830 C.ar  267  TYR267     -0.0198
     64  CD1      174.2830   50.7920    4.0530 C.ar  267  TYR267     -0.0009
     65  CD2      174.5440   51.4510    1.7730 C.ar  267  TYR267     -0.0009
     66  CE1      175.3080   49.8600    3.9120 C.ar  267  TYR267      0.0417
     67  CE2      175.5620   50.5160    1.6190 C.ar  267  TYR267      0.0417
     68  CZ       175.9410   49.7290    2.6880 C.ar  267  TYR267      0.1957
     69  OH       176.9480   48.8040    2.5190 O.3   267  TYR267     -0.2866
     70  N        173.6940   44.2910   -7.0500 N.3   384  THR384     -0.1203
     71  CA       173.6420   44.9950   -5.7790 C.3   384  THR384      0.1994
     72  C        174.0160   44.0300   -4.6410 C.2   384  THR384      0.2617
     73  O        174.2010   42.8180   -4.8630 O.2   384  THR384     -0.2717
     74  CB       172.2490   45.6070   -5.5190 C.3   384  THR384      0.1784
     75  OG1      171.2680   44.5800   -5.6020 O.3   384  THR384     -0.2211
     76  CG2      171.9090   46.6790   -6.5340 C.3   384  THR384      0.0376
     77  N        174.1380   44.5830   -3.4300 N.am  385  ASP385     -0.1973
     78  CA       174.3530   43.8150   -2.2090 C.3   385  ASP385      0.1709
     79  C        175.5620   42.9080   -2.3300 C.2   385  ASP385      0.2293
     80  O        175.5550   41.7710   -1.8500 O.2   385  ASP385     -0.2864
     81  CB       173.1090   43.0190   -1.8710 C.3   385  ASP385      0.1436
     82  CG       171.9090   43.9090   -1.6190 C.2   385  ASP385      0.3671
     83  OD1      171.2300   44.3090   -2.5900 O.co2 385  ASP385     -0.2456
     84  OD2      171.6340   44.2200   -0.4450 O.co2 385  ASP385     -0.2456
@<TRIPOS>BOND
     1    13    14    1
     2    19    17    1
     3    18    17    1
     4    14    17    1
     5    14    15    1
     6    15    16    2
     7    30    28    1
     8    29    28    1
     9     9    10    2
    10     9     8    1
    11    28    27    2
    12    20    21    1
    13    70    71    1
    14    76    74    1
    15    11     8    1
    16    11    12    1
    17     8     7    1
    18    24    21    1
    19    24    25    1
    20    21    22    1
    21    27    26    1
    22    71    74    1
    23    71    72    1
    24    75    74    1
    25     7     3   am
    26    26    25    1
    27    73    72    2
    28    31    22   am
    29    31    32    1
    30    22    23    2
    31    72    77   am
    32     4     3    2
    33     3     2    1
    34    35    32    1
    35    35    36    1
    36    38    37   ar
    37    32    33    1
    38    33    34    2
    39    77    78    1
    40     1     2    1
    41    36    37    1
    42    37    39   ar
    43     2     5    1
    44    83    82   ar
    45    79    78    1
    46    79    80    2
    47    78    81    1
    48    81    82    1
    49     5     6    1
    50    82    84   ar
    51    40    41    1
    52    48    46   am
    53    45    46    1
    54    45    44    1
    55    46    47    2
    56    44    41    1
    57    41    42    1
    58    42    43    2
    59    56    55   ar
    60    67    65   ar
    61    67    68   ar
    62    57    55   ar
    63    65    63   ar
    64    55    54    1
    65    61    60    2
    66    69    68    1
    67    68    66   ar
    68    63    62    1
    69    63    64   ar
    70    53    54    1
    71    53    50    1
    72    62    59    1
    73    60    59    1
    74    58    59    1
    75    58    51   am
    76    66    64   ar
    77    49    50    1
    78    50    51    1
    79    51    52    2
