@<TRIPOS>MOLECULE
tmp/4yekB01.pdb
 144 135 0 0 0
SMALL
GASTEIGER

@<TRIPOS>ATOM
      1  N        189.3650   63.3310  -11.0440 N.3    85  HIS85      -0.1226
      2  CA       189.3610   62.3590  -12.1270 C.3    85  HIS85       0.1752
      3  C        189.8670   61.0290  -11.6220 C.2    85  HIS85       0.2597
      4  O        190.6730   60.9410  -10.6700 O.2    85  HIS85      -0.2718
      5  CB       190.1940   62.8250  -13.3130 C.3    85  HIS85       0.0759
      6  CG       190.0960   61.9330  -14.5020 C.ar   85  HIS85       0.0818
      7  ND1      191.0390   60.9540  -14.7860 N.ar   85  HIS85      -0.2268
      8  CD2      189.1810   61.8500  -15.4990 C.ar   85  HIS85       0.1154
      9  CE1      190.7050   60.3250  -15.8890 C.ar   85  HIS85       0.1986
     10  NE2      189.5760   60.8530  -16.3530 N.ar   85  HIS85      -0.2212
     11  N        189.3660   59.9890  -12.2670 N.am   86  SER86      -0.1938
     12  CA       189.5560   58.6580  -11.7700 C.3    86  SER86       0.2055
     13  C        189.9450   57.7920  -12.9410 C.2    86  SER86       0.2644
     14  O        189.3850   57.9410  -14.0090 O.2    86  SER86      -0.2714
     15  CB       188.2780   58.1670  -11.0970 C.3    86  SER86       0.2130
     16  OG       188.2620   56.7610  -10.9880 O.3    86  SER86      -0.2179
     17  N        190.8950   56.8820  -12.7650 N.am   87  THR87      -0.1936
     18  CA       191.2230   55.9830  -13.8620 C.3    87  THR87       0.2028
     19  C        190.1310   54.9320  -14.0750 C.2    87  THR87       0.2642
     20  O        190.2780   54.0540  -14.9280 O.2    87  THR87      -0.2714
     21  CB       192.5490   55.2670  -13.6430 C.3    87  THR87       0.1808
     22  OG1      192.3980   54.3270  -12.5770 O.3    87  THR87      -0.2208
     23  CG2      193.6440   56.2770  -13.3130 C.3    87  THR87       0.0379
     24  N        189.0430   55.0130  -13.2980 N.am   88  GLY88      -0.1954
     25  CA       187.8700   54.1830  -13.5250 C.3    88  GLY88       0.1869
     26  C        187.8820   52.9030  -12.7180 C.2    88  GLY88       0.2309
     27  O        188.9350   52.4290  -12.3060 O.2    88  GLY88      -0.2863
     28  N        182.7280   64.6160  -17.7620 N.3   113  SER113     -0.1202
     29  CA       183.0160   63.2040  -17.5640 C.3   113  SER113      0.2020
     30  C        182.9740   62.4890  -18.8820 C.2   113  SER113      0.2619
     31  O        183.0080   63.1180  -19.9310 O.2   113  SER113     -0.2717
     32  CB       182.0090   62.5630  -16.5960 C.3   113  SER113      0.2103
     33  OG       182.4630   62.6050  -15.2520 O.3   113  SER113     -0.2182
     34  N        182.8700   61.1700  -18.8120 N.am  114  GLY114     -0.1942
     35  CA       182.8020   60.3370  -19.9920 C.3   114  GLY114      0.2014
     36  C        181.9350   59.1180  -19.7280 C.2   114  GLY114      0.2638
     37  O        181.4550   58.8960  -18.6040 O.2   114  GLY114     -0.2714
     38  N        181.7340   58.3310  -20.7780 N.am  115  ARG115     -0.1977
     39  CA       180.9270   57.1280  -20.6990 C.3   115  ARG115      0.1597
     40  C        181.7940   55.9410  -20.2830 C.2   115  ARG115      0.2287
     41  O        183.0270   56.0380  -20.2640 O.2   115  ARG115     -0.2864
     42  CB       180.2480   56.8590  -22.0510 C.3   115  ARG115      0.0334
     43  CG       179.6450   58.1030  -22.7040 C.3   115  ARG115      0.0492
     44  CD       178.3840   57.7610  -23.4650 C.3   115  ARG115      0.2205
     45  NE       177.8020   58.9050  -24.1620 N.pl3 115  ARG115     -0.0865
     46  CZ       176.7210   59.5570  -23.7490 C.cat 115  ARG115      0.5346
     47  NH1      176.2450   60.5830  -24.4510 N.pl3 115  ARG115      0.1354
     48  NH2      176.1100   59.1770  -22.6320 N.pl3 115  ARG115      0.1354
     49  N        184.0690   52.9500  -20.4590 N.3   117  LEU117     -0.1245
     50  CA       185.0970   52.5130  -21.3990 C.3   117  LEU117      0.1561
     51  C        185.5350   51.0660  -21.0820 C.2   117  LEU117      0.2260
     52  O        186.1310   50.7860  -20.0300 O.2   117  LEU117     -0.2867
     53  CB       186.2890   53.4920  -21.3680 C.3   117  LEU117      0.0270
     54  CG       187.6480   53.1700  -22.0150 C.3   117  LEU117      0.0019
     55  CD1      187.5160   52.8840  -23.5030 C.3   117  LEU117      0.0001
     56  CD2      188.6770   54.2780  -21.7660 C.3   117  LEU117      0.0001
     57  N        184.8350   49.2230  -17.4160 N.3   120  THR120     -0.1218
     58  CA       184.4830   50.1610  -16.3500 C.3   120  THR120      0.1862
     59  C        183.2240   50.9650  -16.6750 C.2   120  THR120      0.2287
     60  O        183.0180   51.3850  -17.8160 O.2   120  THR120     -0.2866
     61  CB       185.6330   51.1570  -16.0470 C.3   120  THR120      0.1770
     62  OG1      186.0020   51.8580  -17.2410 O.3   120  THR120     -0.2211
     63  CG2      186.8460   50.4360  -15.4870 C.3   120  THR120      0.0375
     64  N        181.4950   65.2260  -22.6400 N.3   156  GLN156     -0.1245
     65  CA       182.6040   65.8510  -23.3750 C.3   156  GLN156      0.1566
     66  C        182.1120   66.4040  -24.7140 C.2   156  GLN156      0.2260
     67  O        181.6760   65.6550  -25.5990 O.2   156  GLN156     -0.2867
     68  CB       183.7630   64.8610  -23.6170 C.3   156  GLN156      0.0367
     69  CG       184.3860   64.2700  -22.3500 C.3   156  GLN156      0.0905
     70  CD       185.4640   63.2140  -22.6190 C.2   156  GLN156      0.2608
     71  OE1      185.9230   63.0390  -23.7540 O.2   156  GLN156     -0.2717
     72  NE2      185.8760   62.5100  -21.5600 N.am  156  GLN156     -0.0878
     73  N        194.8820   59.8530  -29.2190 N.3   168  TYR168     -0.1241
     74  CA       194.4580   58.6440  -28.5340 C.3   168  TYR168      0.1605
     75  C        193.9250   57.5860  -29.5190 C.2   168  TYR168      0.2264
     76  O        194.1650   56.3800  -29.3600 O.2   168  TYR168     -0.2867
     77  CB       193.4030   58.9750  -27.4540 C.3   168  TYR168      0.0534
     78  CG       192.9220   57.7400  -26.7190 C.ar  168  TYR168     -0.0201
     79  CD1      193.6460   57.2080  -25.6600 C.ar  168  TYR168     -0.0009
     80  CD2      191.7650   57.0750  -27.1160 C.ar  168  TYR168     -0.0009
     81  CE1      193.2190   56.0590  -25.0110 C.ar  168  TYR168      0.0417
     82  CE2      191.3320   55.9270  -26.4740 C.ar  168  TYR168      0.0417
     83  CZ       192.0580   55.4210  -25.4260 C.ar  168  TYR168      0.1957
     84  OH       191.6120   54.2810  -24.7970 O.3   168  TYR168     -0.2866
     85  N        196.9950   55.9590  -30.8920 N.3   171  ARG171     -0.1245
     86  CA       197.5750   55.1860  -29.7930 C.3   171  ARG171      0.1563
     87  C        196.8840   53.8370  -29.6030 C.2   171  ARG171      0.2260
     88  O        197.5380   52.8000  -29.3960 O.2   171  ARG171     -0.2867
     89  CB       197.5060   55.9860  -28.4910 C.3   171  ARG171      0.0307
     90  CG       198.5040   57.1250  -28.4330 C.3   171  ARG171      0.0489
     91  CD       198.3740   57.9420  -27.1690 C.3   171  ARG171      0.2205
     92  NE       198.3760   57.1000  -25.9800 N.pl3 171  ARG171     -0.0865
     93  CZ       197.7000   57.3790  -24.8670 C.cat 171  ARG171      0.5346
     94  NH1      196.9560   58.4720  -24.8000 N.pl3 171  ARG171      0.1354
     95  NH2      197.7620   56.5680  -23.8260 N.pl3 171  ARG171      0.1354
     96  N        199.3200   52.9480  -26.0560 N.3   177  VAL177     -0.1245
     97  CA       198.4550   53.5130  -25.0310 C.3   177  VAL177      0.1561
     98  C        199.2270   53.4880  -23.7240 C.2   177  VAL177      0.2260
     99  O        199.2180   54.4370  -22.9420 O.2   177  VAL177     -0.2867
    100  CB       197.1210   52.7250  -24.9150 C.3   177  VAL177      0.0252
    101  CG1      196.4300   53.0180  -23.6170 C.3   177  VAL177      0.0019
    102  CG2      196.2140   53.0700  -26.0770 C.3   177  VAL177      0.0019
    103  N        199.7340   58.8180  -21.4430 N.3   183  ILE183     -0.1245
    104  CA       198.5140   58.7220  -20.6740 C.3   183  ILE183      0.1561
    105  C        198.3010   60.0130  -19.8910 C.2   183  ILE183      0.2260
    106  O        197.2100   60.5850  -19.9110 O.2   183  ILE183     -0.2867
    107  CB       198.5230   57.5680  -19.6910 C.3   183  ILE183      0.0252
    108  CG1      198.5480   56.2120  -20.4000 C.3   183  ILE183      0.0019
    109  CG2      197.3030   57.6850  -18.7860 C.3   183  ILE183      0.0019
    110  CD1      199.0620   55.0750  -19.5000 C.3   183  ILE183      0.0001
    111  N        196.9240   62.9470  -22.0750 N.3   186  SER186     -0.1202
    112  CA       195.5360   62.9330  -22.5190 C.3   186  SER186      0.2020
    113  C        194.5950   63.1700  -21.3370 C.2   186  SER186      0.2618
    114  O        193.6040   63.9020  -21.4570 O.2   186  SER186     -0.2717
    115  CB       195.1840   61.6210  -23.2320 C.3   186  SER186      0.2103
    116  OG       195.3120   60.5060  -22.3810 O.3   186  SER186     -0.2182
    117  N        194.9070   62.5630  -20.1980 N.am  187  ILE187     -0.1979
    118  CA       194.0760   62.7080  -19.0230 C.3   187  ILE187      0.1595
    119  C        194.0170   64.1530  -18.6120 C.2   187  ILE187      0.2287
    120  O        192.9420   64.7280  -18.4760 O.2   187  ILE187     -0.2864
    121  CB       194.6050   61.8750  -17.8830 C.3   187  ILE187      0.0276
    122  CG1      194.1810   60.4320  -18.0750 C.3   187  ILE187      0.0022
    123  CG2      194.1200   62.4080  -16.5450 C.3   187  ILE187      0.0022
    124  CD1      194.7190   59.5650  -17.0080 C.3   187  ILE187      0.0001
    125  N        192.2750   67.1480  -20.9870 N.3   190  LYS190     -0.1245
    126  CA       190.8570   67.3160  -20.7150 C.3   190  LYS190      0.1561
    127  C        190.6130   68.0430  -19.4090 C.2   190  LYS190      0.2260
    128  O        190.1010   69.1560  -19.4090 O.2   190  LYS190     -0.2867
    129  CB       190.1580   65.9600  -20.6780 C.3   190  LYS190      0.0271
    130  CG       190.4130   65.0930  -21.8780 C.3   190  LYS190      0.0035
    131  CD       189.9540   63.6980  -21.5960 C.3   190  LYS190      0.0206
    132  CE       190.7800   62.7200  -22.3720 C.3   190  LYS190      0.1093
    133  NZ       190.5370   62.9180  -23.8160 N.3   190  LYS190     -0.1314
    134  N        193.1630   50.0180  -14.2460 N.3   210  PHE210     -0.1241
    135  CA       193.8430   50.3200  -15.4860 C.3   210  PHE210      0.1605
    136  C        195.2570   49.7450  -15.4760 C.2   210  PHE210      0.2264
    137  O        195.6080   48.9080  -16.3110 O.2   210  PHE210     -0.2867
    138  CB       193.8550   51.8360  -15.6810 C.3   210  PHE210      0.0534
    139  CG       194.6400   52.3010  -16.8650 C.ar  210  PHE210     -0.0203
    140  CD1      194.7690   51.5130  -18.0010 C.ar  210  PHE210     -0.0042
    141  CD2      195.2400   53.5370  -16.8410 C.ar  210  PHE210     -0.0042
    142  CE1      195.4940   51.9390  -19.0820 C.ar  210  PHE210     -0.0003
    143  CE2      195.9580   53.9700  -17.9160 C.ar  210  PHE210     -0.0003
    144  CZ       196.0880   53.1630  -19.0450 C.ar  210  PHE210     -0.0000
@<TRIPOS>BOND
     1    85    86    1
     2    86    87    1
     3    86    89    1
     4    87    88    2
     5    75    76    2
     6    75    74    1
     7    73    74    1
     8    74    77    1
     9    89    90    1
    10    90    91    1
    11    77    78    1
    12    91    92    1
    13    80    78   ar
    14    80    82   ar
    15    78    79   ar
    16    82    83   ar
    17   102   100    1
    18    96    97    1
    19    92    93    2
    20    79    81   ar
    21    67    66    2
    22    83    81   ar
    23    83    84    1
    24    97   100    1
    25    97    98    1
    26   100   101    1
    27    93    94    1
    28    93    95    1
    29    66    65    1
    30    47    46    1
    31    45    46    2
    32    45    44    1
    33   133   132    1
    34    71    70    2
    35    46    48    1
    36    98    99    2
    37    68    65    1
    38    68    69    1
    39    55    54    1
    40    44    43    1
    41    65    64    1
    42   115   112    1
    43   115   116    1
    44    43    42    1
    45    70    69    1
    46    70    72   am
    47   112   111    1
    48   112   113    1
    49   132   131    1
    50    42    39    1
    51    54    56    1
    52    54    53    1
    53   130   131    1
    54   130   129    1
    55   114   113    2
    56   103   104    1
    57    50    53    1
    58    50    51    1
    59    50    49    1
    60   113   117   am
    61    51    52    2
    62   125   126    1
    63    38    39    1
    64    38    36   am
    65   126   129    1
    66   126   127    1
    67    39    40    1
    68   104   105    1
    69   104   107    1
    70   108   107    1
    71   108   110    1
    72    40    41    2
    73   117   118    1
    74    35    36    1
    75    35    34    1
    76    31    30    2
    77   106   105    2
    78    36    37    2
    79   107   109    1
    80   127   128    2
    81   142   144   ar
    82   142   140   ar
    83   144   143   ar
    84   118   119    1
    85   118   121    1
    86    30    34   am
    87    30    29    1
    88   119   120    2
    89   122   121    1
    90   122   124    1
    91   140   139   ar
    92   143   141   ar
    93   121   123    1
    94    60    59    2
    95    28    29    1
    96    29    32    1
    97    57    58    1
    98    62    61    1
    99   139   141   ar
   100   139   138    1
   101    59    58    1
   102    32    33    1
   103    10     9   ar
   104    10     8   ar
   105    58    61    1
   106   137   136    2
   107    61    63    1
   108     9     7   ar
   109   138   135    1
   110     8     6   ar
   111   135   136    1
   112   135   134    1
   113    20    19    2
   114     7     6   ar
   115     6     5    1
   116    19    18    1
   117    19    24   am
   118    14    13    2
   119    18    21    1
   120    18    17    1
   121    21    23    1
   122    21    22    1
   123    25    24    1
   124    25    26    1
   125     5     2    1
   126    13    17   am
   127    13    12    1
   128    26    27    2
   129    11    12    1
   130    11     3   am
   131     2     3    1
   132     2     1    1
   133    12    15    1
   134     3     4    2
   135    15    16    1
