@<TRIPOS>MOLECULE
tmp/4yerA00.pdb
 80 77 0 0 0
SMALL
GASTEIGER

@<TRIPOS>ATOM
      1  N         -2.3650   -3.7450   73.3020 N.3    13  PHE13      -0.1241
      2  CA        -3.3690   -4.4130   72.4800 C.3    13  PHE13       0.1605
      3  C         -4.5750   -3.5190   72.6040 C.2    13  PHE13       0.2264
      4  O         -5.2340   -3.5420   73.6500 O.2    13  PHE13      -0.2867
      5  CB        -3.6260   -5.8430   72.9630 C.3    13  PHE13       0.0534
      6  CG        -2.4130   -6.7180   72.8170 C.ar   13  PHE13      -0.0203
      7  CD1       -1.9680   -7.1150   71.5610 C.ar   13  PHE13      -0.0042
      8  CD2       -1.7310   -7.1790   73.9330 C.ar   13  PHE13      -0.0042
      9  CE1       -0.8300   -7.9150   71.4270 C.ar   13  PHE13      -0.0003
     10  CE2       -0.6220   -8.0150   73.7940 C.ar   13  PHE13      -0.0003
     11  CZ        -0.1810   -8.3730   72.5400 C.ar   13  PHE13      -0.0000
     12  N         -5.3680   -1.7450   76.0190 N.3    16  PHE16      -0.1241
     13  CA        -4.8580   -2.5960   77.0810 C.3    16  PHE16       0.1605
     14  C         -3.3190   -2.6210   77.0430 C.2    16  PHE16       0.2264
     15  O         -2.7350   -2.9010   75.9950 O.2    16  PHE16      -0.2867
     16  CB        -5.4330   -4.0190   76.9460 C.3    16  PHE16       0.0534
     17  CG        -4.9490   -4.9330   78.0410 C.ar   16  PHE16      -0.0203
     18  CD1       -5.4740   -4.8430   79.3210 C.ar   16  PHE16      -0.0042
     19  CD2       -3.8660   -5.7720   77.8360 C.ar   16  PHE16      -0.0042
     20  CE1       -4.9430   -5.5960   80.3650 C.ar   16  PHE16      -0.0003
     21  CE2       -3.3450   -6.5280   78.8790 C.ar   16  PHE16      -0.0003
     22  CZ        -3.8850   -6.4410   80.1330 C.ar   16  PHE16      -0.0000
     23  N         -0.2040   -4.6040   77.8610 N.3    18  ALA18      -0.1245
     24  CA         0.2990   -5.9440   78.1830 C.3    18  ALA18       0.1562
     25  C          1.7100   -5.8630   78.7890 C.2    18  ALA18       0.2260
     26  O          1.9980   -6.5610   79.7660 O.2    18  ALA18      -0.2867
     27  CB         0.3110   -6.8110   76.9360 C.3    18  ALA18       0.0290
     28  N          0.5950  -16.2210   85.2590 N.3    38  ASN38      -0.1225
     29  CA        -0.1670  -16.1230   84.0040 C.3    38  ASN38       0.1785
     30  C         -0.7600  -14.7240   83.8970 C.2    38  ASN38       0.2598
     31  O         -1.3010  -14.2430   84.8870 O.2    38  ASN38      -0.2718
     32  CB        -1.2980  -17.1540   83.9720 C.3    38  ASN38       0.1169
     33  CG        -0.8150  -18.5890   84.0040 C.2    38  ASN38       0.2627
     34  OD1        0.2380  -18.9330   83.4730 O.2    38  ASN38      -0.2716
     35  ND2       -1.5320  -19.4520   84.6700 N.am   38  ASN38      -0.0877
     36  N         -0.6570  -14.0980   82.7280 N.am   39  GLY39      -0.1942
     37  CA        -1.1180  -12.7210   82.5010 C.3    39  GLY39       0.2014
     38  C         -0.0900  -11.6220   82.7980 C.2    39  GLY39       0.2639
     39  O         -0.3950  -10.4530   82.6470 O.2    39  GLY39      -0.2714
     40  N          1.1480  -11.9490   83.1880 N.am   40  ALA40      -0.1963
     41  CA         2.1380  -10.9210   83.5260 C.3    40  ALA40       0.1728
     42  C          2.7680  -10.2010   82.3030 C.2    40  ALA40       0.2617
     43  O          3.3060   -9.1100   82.4840 O.2    40  ALA40      -0.2715
     44  CB         3.2400  -11.5300   84.3740 C.3    40  ALA40       0.0334
     45  N          2.6640  -10.7690   81.0980 N.am   41  GLY41      -0.1940
     46  CA         3.2690  -10.2100   79.8910 C.3    41  GLY41       0.2014
     47  C          4.5390  -10.9300   79.4610 C.2    41  GLY41       0.2639
     48  O          5.3120  -10.3770   78.6860 O.2    41  GLY41      -0.2714
     49  N          4.7530  -12.1820   79.9180 N.am   42  LYS42      -0.1963
     50  CA         5.9540  -12.9550   79.5760 C.3    42  LYS42       0.1728
     51  C          5.9560  -13.3770   78.1000 C.2    42  LYS42       0.2617
     52  O          6.9380  -13.1000   77.4260 O.2    42  LYS42      -0.2715
     53  CB         6.1010  -14.1940   80.4680 C.3    42  LYS42       0.0311
     54  CG         6.2370  -13.8920   81.9670 C.3    42  LYS42       0.0038
     55  CD         6.4750  -15.1260   82.8290 C.3    42  LYS42       0.0206
     56  CE         5.4040  -16.2270   82.7230 C.3    42  LYS42       0.1093
     57  NZ         4.0510  -15.7390   83.0570 N.3    42  LYS42      -0.1314
     58  N          4.8710  -13.9960   77.5940 N.am   43  THR43      -0.1937
     59  CA         4.7910  -14.4240   76.1840 C.3    43  THR43       0.2028
     60  C          4.8550  -13.2190   75.2250 C.2    43  THR43       0.2642
     61  O          5.5210  -13.2890   74.1930 O.2    43  THR43      -0.2714
     62  CB         3.5150  -15.2540   75.9350 C.3    43  THR43       0.1808
     63  OG1        3.6420  -16.4810   76.6560 O.3    43  THR43      -0.2208
     64  CG2        3.3040  -15.5900   74.4630 C.3    43  THR43       0.0379
     65  N          4.1680  -12.1320   75.5520 N.am   44  THR44      -0.1950
     66  CA         4.1950  -10.9090   74.7310 C.3    44  THR44       0.1897
     67  C          5.6220  -10.3770   74.6550 C.2    44  THR44       0.2313
     68  O          6.0800  -10.0320   73.5710 O.2    44  THR44      -0.2863
     69  CB         3.2340   -9.8690   75.3180 C.3    44  THR44       0.1794
     70  OG1        1.9350  -10.4640   75.3900 O.3    44  THR44      -0.2208
     71  CG2        3.1800   -8.5880   74.4960 C.3    44  THR44       0.0378
     72  N          8.2890  -20.8520   78.5040 N.3   157  GLU157     -0.1245
     73  CA         7.8080  -21.9010   79.4330 C.3   157  GLU157      0.1567
     74  C          8.2520  -23.2910   78.9730 C.2   157  GLU157      0.2260
     75  O          7.4410  -24.1000   78.4960 O.2   157  GLU157     -0.2867
     76  CB         6.2990  -21.8260   79.5350 C.3   157  GLU157      0.0388
     77  CG         5.8690  -20.4850   80.0680 C.3   157  GLU157      0.1160
     78  CD         5.1370  -20.5890   81.3770 C.2   157  GLU157      0.3649
     79  OE1        5.6370  -21.2580   82.3150 O.co2 157  GLU157     -0.2457
     80  OE2        4.0390  -20.0020   81.4500 O.co2 157  GLU157     -0.2457
@<TRIPOS>BOND
     1     9     7   ar
     2     9    11   ar
     3     7     6   ar
     4     2     3    1
     5     2     5    1
     6     2     1    1
     7    11    10   ar
     8     3     4    2
     9     6     5    1
    10     6     8   ar
    11    68    67    2
    12    10     8   ar
    13    61    60    2
    14    64    62    1
    15    71    69    1
    16    67    66    1
    17    66    69    1
    18    66    65    1
    19    60    65   am
    20    60    59    1
    21    69    70    1
    22    62    59    1
    23    62    63    1
    24    15    14    2
    25    12    13    1
    26    59    58    1
    27    27    24    1
    28    16    13    1
    29    16    17    1
    30    14    13    1
    31    52    51    2
    32    58    51   am
    33    19    17   ar
    34    19    21   ar
    35    23    24    1
    36    17    18   ar
    37    51    50    1
    38    24    25    1
    39    75    74    2
    40    72    73    1
    41    48    47    2
    42    25    26    2
    43    21    22   ar
    44    74    73    1
    45    18    20   ar
    46    73    76    1
    47    47    46    1
    48    47    49   am
    49    76    77    1
    50    50    49    1
    51    50    53    1
    52    46    45    1
    53    77    78    1
    54    22    20   ar
    55    53    54    1
    56    45    42   am
    57    78    80   ar
    58    78    79   ar
    59    54    55    1
    60    42    43    2
    61    42    41    1
    62    37    36    1
    63    37    38    1
    64    39    38    2
    65    56    55    1
    66    56    57    1
    67    36    30   am
    68    38    40   am
    69    40    41    1
    70    34    33    2
    71    41    44    1
    72    30    29    1
    73    30    31    2
    74    32    33    1
    75    32    29    1
    76    33    35   am
    77    29    28    1
