@<TRIPOS>MOLECULE
tmp/4yesB02.pdb
 181 179 0 0 0
SMALL
GASTEIGER

@<TRIPOS>ATOM
      1  N         -1.0880   27.0330   53.4190 N.3    43  HIS43      -0.1241
      2  CA        -0.9350   25.6670   53.9010 C.3    43  HIS43       0.1621
      3  C         -0.2030   25.5820   55.2440 C.2    43  HIS43       0.2264
      4  O         -0.2340   24.5320   55.8940 O.2    43  HIS43      -0.2867
      5  CB        -0.3220   24.7250   52.8610 C.3    43  HIS43       0.0745
      6  CG         1.1720   24.6780   52.8180 C.ar   43  HIS43       0.0817
      7  ND1        1.8800   25.3320   51.8180 N.ar   43  HIS43      -0.2268
      8  CD2        2.0480   24.0680   53.6480 C.ar   43  HIS43       0.1154
      9  CE1        3.1520   25.0700   52.0500 C.ar   43  HIS43       0.1986
     10  NE2        3.3090   24.3250   53.1530 N.ar   43  HIS43      -0.2212
     11  N         -4.1690   22.9930   56.3920 N.3    47  TYR47      -0.1241
     12  CA        -3.8660   21.8870   55.5090 C.3    47  TYR47       0.1605
     13  C         -4.5910   20.6380   56.0590 C.2    47  TYR47       0.2264
     14  O         -3.9630   19.7720   56.6880 O.2    47  TYR47      -0.2867
     15  CB        -2.3630   21.6680   55.3210 C.3    47  TYR47       0.0534
     16  CG        -2.0280   20.7950   54.1380 C.ar   47  TYR47      -0.0201
     17  CD1       -2.3980   21.1660   52.8460 C.ar   47  TYR47      -0.0009
     18  CD2       -1.3400   19.5990   54.3040 C.ar   47  TYR47      -0.0009
     19  CE1       -2.0810   20.3710   51.7470 C.ar   47  TYR47       0.0417
     20  CE2       -1.0160   18.7910   53.2100 C.ar   47  TYR47       0.0417
     21  CZ        -1.3730   19.1950   51.9280 C.ar   47  TYR47       0.1957
     22  OH        -1.1090   18.4020   50.8440 O.3    47  TYR47      -0.2866
     23  N         -3.2220   16.9130   56.6190 N.3    50  TRP50      -0.1241
     24  CA        -2.3170   16.7090   57.7590 C.3    50  TRP50       0.1605
     25  C         -2.9750   17.1400   59.0870 C.2    50  TRP50       0.2264
     26  O         -2.2810   17.2730   60.1020 O.2    50  TRP50      -0.2867
     27  CB        -1.0030   17.4820   57.5140 C.3    50  TRP50       0.0550
     28  CG        -0.1420   16.9570   56.3930 C.ar   50  TRP50       0.0003
     29  CD1       -0.3790   15.8680   55.6040 C.ar   50  TRP50       0.0946
     30  CD2        1.1270   17.4800   55.9840 C.ar   50  TRP50       0.0152
     31  NE1        0.6630   15.6850   54.7240 N.ar   50  TRP50      -0.2442
     32  CE2        1.6010   16.6630   54.9340 C.ar   50  TRP50       0.0810
     33  CE3        1.9200   18.5600   56.4140 C.ar   50  TRP50       0.0012
     34  CZ2        2.8180   16.9090   54.2860 C.ar   50  TRP50       0.0191
     35  CZ3        3.1290   18.7940   55.7790 C.ar   50  TRP50       0.0001
     36  CH2        3.5700   17.9720   54.7350 C.ar   50  TRP50       0.0015
     37  N         -4.0630   19.9960   59.9080 N.3    52  LYS52      -0.1245
     38  CA        -3.5570   21.3150   60.2570 C.3    52  LYS52       0.1561
     39  C         -4.6550   22.3650   60.0440 C.2    52  LYS52       0.2260
     40  O         -5.1970   22.4830   58.9380 O.2    52  LYS52      -0.2867
     41  CB        -2.3140   21.6010   59.4040 C.3    52  LYS52       0.0271
     42  CG        -1.5920   22.8920   59.7750 C.3    52  LYS52       0.0035
     43  CD        -0.3220   23.1000   58.9510 C.3    52  LYS52       0.0206
     44  CE         0.8200   22.2030   59.3780 C.3    52  LYS52       0.1093
     45  NZ         1.9520   22.2810   58.4210 N.3    52  LYS52      -0.1314
     46  N         -6.2630   19.9550   45.7150 N.3    94  GLU94      -0.1245
     47  CA        -5.5690   19.4510   44.5350 C.3    94  GLU94       0.1567
     48  C         -4.0730   19.7500   44.4640 C.2    94  GLU94       0.2260
     49  O         -3.2440   18.8330   44.5490 O.2    94  GLU94      -0.2867
     50  CB        -6.2860   19.9670   43.2500 C.3    94  GLU94       0.0388
     51  CG        -5.7010   19.4310   41.9440 C.3    94  GLU94       0.1160
     52  CD        -6.1190   20.0740   40.6290 C.2    94  GLU94       0.3649
     53  OE1       -6.8820   21.0670   40.6440 O.co2  94  GLU94      -0.2457
     54  OE2       -5.6520   19.5900   39.5730 O.co2  94  GLU94      -0.2457
     55  N         -2.5000   23.0400   45.7420 N.3    96  LEU96      -0.1245
     56  CA        -2.0840   24.2140   46.5310 C.3    96  LEU96       0.1561
     57  C         -2.1670   25.5250   45.7210 C.2    96  LEU96       0.2260
     58  O         -1.3940   26.4750   45.9370 O.2    96  LEU96      -0.2867
     59  CB        -0.6960   24.0140   47.1880 C.3    96  LEU96       0.0270
     60  CG        -0.6250   22.9360   48.2840 C.3    96  LEU96       0.0019
     61  CD1        0.8160   22.6510   48.6850 C.3    96  LEU96       0.0001
     62  CD2       -1.3890   23.3670   49.5110 C.3    96  LEU96       0.0001
     63  N          1.3140   16.8720   38.5260 N.3   172  ILE172     -0.1245
     64  CA         0.3850   17.8460   39.1360 C.3   172  ILE172      0.1561
     65  C          0.0420   18.9780   38.1540 C.2   172  ILE172      0.2260
     66  O          0.9080   19.4020   37.3950 O.2   172  ILE172     -0.2867
     67  CB         0.9890   18.3570   40.4850 C.3   172  ILE172      0.0252
     68  CG1        1.1320   17.1870   41.4890 C.3   172  ILE172      0.0019
     69  CG2        0.1730   19.5190   41.1030 C.3   172  ILE172      0.0019
     70  CD1        2.3540   17.1860   42.3020 C.3   172  ILE172      0.0001
     71  N         17.2660   23.7760   46.7280 N.3   192  ASP192     -0.1225
     72  CA        15.8160   23.8350   46.7870 C.3   192  ASP192      0.1805
     73  C         15.3980   24.2270   48.1880 C.2   192  ASP192      0.2598
     74  O         16.2020   24.1920   49.1320 O.2   192  ASP192     -0.2718
     75  CB        15.2360   22.4210   46.5130 C.3   192  ASP192      0.1424
     76  CG        13.7630   22.3230   46.1500 C.2   192  ASP192      0.3668
     77  OD1       13.0960   23.3740   46.0480 O.co2 192  ASP192     -0.2456
     78  OD2       13.2670   21.1870   45.9970 O.co2 192  ASP192     -0.2456
     79  N         14.1190   24.5400   48.3330 N.am  193  ALA193     -0.1966
     80  CA        13.4920   24.7100   49.6070 C.3   193  ALA193      0.1728
     81  C         13.1200   23.2770   50.0690 C.2   193  ALA193      0.2616
     82  O         13.2420   22.3180   49.3020 O.2   193  ALA193     -0.2715
     83  CB        12.2430   25.5530   49.4650 C.3   193  ALA193      0.0334
     84  N         12.7060   23.1340   51.3220 N.am  194  CYS194     -0.1954
     85  CA        12.3290   21.8350   51.8690 C.3   194  CYS194      0.1843
     86  C         11.2930   22.0310   52.9640 C.2   194  CYS194      0.2625
     87  O         10.8160   23.1500   53.1830 O.2   194  CYS194     -0.2714
     88  CB        13.5690   21.0690   52.3460 C.3   194  CYS194      0.0997
     89  SG        13.3210   19.2690   52.5510 S.3   194  CYS194     -0.0797
     90  N         10.8490   20.9350   53.6130 N.am  195  GLU195     -0.1977
     91  CA         9.8510   21.0370   54.6640 C.3   195  GLU195      0.1602
     92  C         10.3530   21.9950   55.7700 C.2   195  GLU195      0.2287
     93  O         11.4950   21.8690   56.2140 O.2   195  GLU195     -0.2864
     94  CB         9.5830   19.6230   55.2450 C.3   195  GLU195      0.0415
     95  CG         8.4500   19.5760   56.2580 C.3   195  GLU195      0.1163
     96  CD         8.3360   18.2730   57.0350 C.2   195  GLU195      0.3649
     97  OE1        8.1400   17.2120   56.3980 O.co2 195  GLU195     -0.2457
     98  OE2        8.4220   18.3160   58.2850 O.co2 195  GLU195     -0.2457
     99  N          8.3730   26.4550   53.9010 N.3   198  SER198     -0.1217
    100  CA         7.1380   26.9840   53.3240 C.3   198  SER198      0.1889
    101  C          6.7470   28.2830   53.9640 C.2   198  SER198      0.2288
    102  O          6.9410   28.4690   55.1690 O.2   198  SER198     -0.2866
    103  CB         5.9750   26.0120   53.5320 C.3   198  SER198      0.2089
    104  OG         6.1610   24.8210   52.7900 O.3   198  SER198     -0.2183
    105  N          7.4140   30.3610   49.1900 N.3   218  VAL218     -0.1231
    106  CA         7.7620   28.9340   49.1710 C.3   218  VAL218      0.1692
    107  C          6.4660   28.1290   49.3710 C.2   218  VAL218      0.2593
    108  O          5.8010   28.3040   50.3940 O.2   218  VAL218     -0.2718
    109  CB         8.7550   28.5950   50.2780 C.3   218  VAL218      0.0266
    110  CG1        9.1220   27.0990   50.2550 C.3   218  VAL218      0.0020
    111  CG2       10.0070   29.4510   50.1280 C.3   218  VAL218      0.0020
    112  N          6.1170   27.2700   48.3820 N.am  219  SER219     -0.1938
    113  CA         4.8470   26.5440   48.4710 C.3   219  SER219      0.2055
    114  C          4.9730   25.0080   48.5240 C.2   219  SER219      0.2643
    115  O          4.7190   24.4080   49.5790 O.2   219  SER219     -0.2714
    116  CB         3.9320   26.9880   47.3210 C.3   219  SER219      0.2130
    117  OG         2.6670   26.3380   47.3990 O.3   219  SER219     -0.2179
    118  N          5.3910   24.3740   47.4300 N.am  220  TRP220     -0.1959
    119  CA         5.4730   22.9120   47.3840 C.3   220  TRP220      0.1771
    120  C          6.5020   22.3580   46.4270 C.2   220  TRP220      0.2620
    121  O          6.9950   23.0410   45.5310 O.2   220  TRP220     -0.2715
    122  CB         4.0750   22.3300   47.0900 C.3   220  TRP220      0.0590
    123  CG         3.5460   22.6720   45.7320 C.ar  220  TRP220      0.0006
    124  CD1        2.8190   23.7730   45.3850 C.ar  220  TRP220      0.0946
    125  CD2        3.6930   21.8930   44.5410 C.ar  220  TRP220      0.0152
    126  NE1        2.4970   23.7260   44.0500 N.ar  220  TRP220     -0.2442
    127  CE2        3.0250   22.5830   43.5060 C.ar  220  TRP220      0.0810
    128  CE3        4.2950   20.6550   44.2540 C.ar  220  TRP220      0.0012
    129  CZ2        2.9360   22.0740   42.2050 C.ar  220  TRP220      0.0191
    130  CZ3        4.2340   20.1670   42.9600 C.ar  220  TRP220      0.0001
    131  CH2        3.5920   20.8940   41.9450 C.ar  220  TRP220      0.0015
    132  N          6.8230   21.0860   46.6280 N.am  221  GLY221     -0.1940
    133  CA         7.7300   20.3590   45.7630 C.3   221  GLY221      0.2014
    134  C          7.5140   18.8760   45.9920 C.2   221  GLY221      0.2639
    135  O          6.9570   18.4910   47.0290 O.2   221  GLY221     -0.2714
    136  N          7.9570   18.0620   45.0350 N.am  222  GLU222     -0.1963
    137  CA         7.9100   16.6010   45.1470 C.3   222  GLU222      0.1733
    138  C          9.2520   16.2250   45.7570 C.2   222  GLU222      0.2617
    139  O         10.2840   16.2170   45.0910 O.2   222  GLU222     -0.2715
    140  CB         7.6540   15.9530   43.7760 C.3   222  GLU222      0.0429
    141  CG         6.2500   16.2590   43.2880 C.3   222  GLU222      0.1163
    142  CD         5.8440   15.5990   41.9930 C.2   222  GLU222      0.3649
    143  OE1        6.0850   16.2090   40.9300 O.co2 222  GLU222     -0.2457
    144  OE2        5.2440   14.5010   42.0410 O.co2 222  GLU222     -0.2457
    145  N          9.2380   16.0440   47.0650 N.am  223  GLY223     -0.1940
    146  CA        10.4680   15.8280   47.8170 C.3   223  GLY223      0.2014
    147  C         11.1840   17.1620   47.9640 C.2   223  GLY223      0.2639
    148  O         10.5190   18.2040   47.9420 O.2   223  GLY223     -0.2714
    149  N         12.5340   17.1350   48.0620 N.am  224  CYS224     -0.1967
    150  CA        13.4290   18.3120   48.1680 C.3   224  CYS224      0.1712
    151  C         14.6500   18.0640   47.3030 C.2   224  CYS224      0.2296
    152  O         15.3480   17.0530   47.4900 O.2   224  CYS224     -0.2864
    153  CB        13.8490   18.5950   49.6160 C.3   224  CYS224      0.0983
    154  SG        12.5040   18.5770   50.8130 S.3   224  CYS224     -0.0798
    155  N         11.0720   23.4690   42.6410 N.3   231  GLY231     -0.1210
    156  CA        10.2820   24.0200   43.7180 C.3   231  GLY231      0.1956
    157  C          9.2200   24.9260   43.1300 C.2   231  GLY231      0.2612
    158  O          9.4770   25.6270   42.1500 O.2   231  GLY231     -0.2717
    159  N          8.0200   24.9190   43.7250 N.am  232  PHE232     -0.1962
    160  CA         6.9090   25.7140   43.2810 C.3   232  PHE232      0.1771
    161  C          6.6250   26.7890   44.3000 C.2   232  PHE232      0.2619
    162  O          6.6260   26.5300   45.5190 O.2   232  PHE232     -0.2715
    163  CB         5.6830   24.8270   43.0000 C.3   232  PHE232      0.0574
    164  CG         5.8650   24.0690   41.7090 C.ar  232  PHE232     -0.0200
    165  CD1        6.5730   22.8710   41.6780 C.ar  232  PHE232     -0.0042
    166  CD2        5.3730   24.5750   40.5110 C.ar  232  PHE232     -0.0042
    167  CE1        6.7870   22.1960   40.4670 C.ar  232  PHE232     -0.0003
    168  CE2        5.5500   23.8810   39.3090 C.ar  232  PHE232     -0.0003
    169  CZ         6.2750   22.7110   39.2870 C.ar  232  PHE232     -0.0000
    170  N          6.3890   28.0020   43.7810 N.am  233  TYR233     -0.1974
    171  CA         6.1840   29.1940   44.5680 C.3   233  TYR233      0.1639
    172  C          4.9190   29.8920   44.1720 C.2   233  TYR233      0.2290
    173  O          4.6210   30.0220   42.9720 O.2   233  TYR233     -0.2864
    174  CB         7.3910   30.1420   44.2840 C.3   233  TYR233      0.0560
    175  CG         8.7230   29.5270   44.6570 C.ar  233  TYR233     -0.0198
    176  CD1        9.4030   28.6900   43.7760 C.ar  233  TYR233     -0.0009
    177  CD2        9.2630   29.7060   45.9250 C.ar  233  TYR233     -0.0009
    178  CE1       10.5870   28.0520   44.1470 C.ar  233  TYR233      0.0417
    179  CE2       10.4310   29.0680   46.3100 C.ar  233  TYR233      0.0417
    180  CZ        11.0900   28.2340   45.4250 C.ar  233  TYR233      0.1957
    181  OH        12.2780   27.6660   45.8220 O.3   233  TYR233     -0.2866
@<TRIPOS>BOND
     1    66    65    2
     2    65    64    1
     3    63    64    1
     4    64    67    1
     5   169   168   ar
     6   169   167   ar
     7   168   166   ar
     8    54    52   ar
     9   167   165   ar
    10    67    69    1
    11    67    68    1
    12   166   164   ar
    13    52    53   ar
    14    52    51    1
    15   143   142   ar
    16    68    70    1
    17   165   164   ar
    18   164   163    1
    19    51    50    1
    20   131   129   ar
    21   131   130   ar
    22   142   144   ar
    23   142   141    1
    24   158   157    2
    25   129   127   ar
    26   155   156    1
    27   130   128   ar
    28   173   172    2
    29   163   160    1
    30   157   156    1
    31   157   159   am
    32    50    47    1
    33   160   159    1
    34   160   161    1
    35   141   140    1
    36   127   126   ar
    37   127   125   ar
    38   176   178   ar
    39   176   175   ar
    40   140   137    1
    41   170   161   am
    42   170   171    1
    43   126   124   ar
    44   178   180   ar
    45   172   171    1
    46   128   125   ar
    47   174   171    1
    48   174   175    1
    49   161   162    2
    50    48    47    1
    51    48    49    2
    52    47    46    1
    53   125   123   ar
    54   175   177   ar
    55   136   137    1
    56   136   134   am
    57   139   138    2
    58   137   138    1
    59   124   123   ar
    60   180   181    1
    61   180   179   ar
    62   121   120    2
    63    57    58    2
    64    57    56    1
    65   123   122    1
    66    55    56    1
    67   138   145   am
    68   133   134    1
    69   133   132    1
    70   177   179   ar
    71   134   135    2
    72    78    76   ar
    73    77    76   ar
    74    76    75    1
    75   120   132   am
    76   120   119    1
    77    75    72    1
    78    56    59    1
    79    71    72    1
    80    72    73    1
    81   145   146    1
    82   122   119    1
    83    59    60    1
    84   151   152    2
    85   151   150    1
    86   116   117    1
    87   116   113    1
    88   119   118    1
    89   118   114   am
    90   146   147    1
    91   148   147    2
    92   147   149   am
    93   149   150    1
    94   150   153    1
    95    73    79   am
    96    73    74    2
    97    60    61    1
    98    60    62    1
    99    79    80    1
   100   112   113    1
   101   112   107   am
   102   113   114    1
   103   114   115    2
   104   106   105    1
   105   106   107    1
   106   106   109    1
   107    82    81    2
   108   107   108    2
   109    83    80    1
   110    80    81    1
   111   153   154    1
   112    81    84   am
   113   111   109    1
   114   110   109    1
   115   154    89    1
   116    22    21    1
   117    84    85    1
   118    19    21   ar
   119    19    17   ar
   120     7     9   ar
   121     7     6   ar
   122    85    88    1
   123    85    86    1
   124    21    20   ar
   125     9    10   ar
   126    88    89    1
   127   104   103    1
   128     6     5    1
   129     6     8   ar
   130    17    16   ar
   131     5     2    1
   132    86    87    2
   133    86    90   am
   134    10     8   ar
   135    20    18   ar
   136   100   103    1
   137   100    99    1
   138   100   101    1
   139     1     2    1
   140    90    91    1
   141     2     3    1
   142   101   102    2
   143    16    18   ar
   144    16    15    1
   145    34    36   ar
   146    34    32   ar
   147    91    94    1
   148    91    92    1
   149    31    32   ar
   150    31    29   ar
   151    36    35   ar
   152    32    30   ar
   153     3     4    2
   154    94    95    1
   155    15    12    1
   156    12    13    1
   157    12    11    1
   158    29    28   ar
   159    92    93    2
   160    35    33   ar
   161    30    28   ar
   162    30    33   ar
   163    13    14    2
   164    95    96    1
   165    28    27    1
   166    97    96   ar
   167    23    24    1
   168    96    98   ar
   169    27    24    1
   170    24    25    1
   171    45    44    1
   172    40    39    2
   173    43    44    1
   174    43    42    1
   175    25    26    2
   176    41    42    1
   177    41    38    1
   178    37    38    1
   179    39    38    1
