@<TRIPOS>MOLECULE
tmp/4yf1B00.pdb
 137 131 0 0 0
SMALL
GASTEIGER

@<TRIPOS>ATOM
      1  N        -10.2310   16.5210  -10.7280 N.3     1  LYS1       -0.1245
      2  CA       -11.4970   17.2530  -10.3330 C.3     1  LYS1        0.1561
      3  C        -11.2930   18.7630  -10.2640 C.2     1  LYS1        0.2260
      4  O        -10.1710   19.2300  -10.1800 O.2     1  LYS1       -0.2867
      5  CB       -12.0590   16.7550   -8.9910 C.3     1  LYS1        0.0271
      6  CG       -12.7790   15.4100   -9.0710 C.3     1  LYS1        0.0035
      7  CD       -13.7640   15.2470   -7.9120 C.3     1  LYS1        0.0206
      8  CE       -14.6620   14.0230   -8.0620 C.3     1  LYS1        0.1093
      9  NZ       -13.9180   12.7490   -7.8600 N.3     1  LYS1       -0.1314
     10  N         -2.6800   12.1970   -9.1170 N.3    34  HIS34      -0.1241
     11  CA        -3.6090   11.3450   -8.3700 C.3    34  HIS34       0.1621
     12  C         -5.0110   11.2410   -9.0010 C.2    34  HIS34       0.2264
     13  O         -5.5190   10.1320   -9.1780 O.2    34  HIS34      -0.2867
     14  CB        -3.6590   11.7940   -6.9100 C.3    34  HIS34       0.0745
     15  CG        -4.7920   11.2180   -6.1180 C.ar   34  HIS34       0.0817
     16  ND1       -4.6920   10.0330   -5.4290 N.ar   34  HIS34      -0.2268
     17  CD2       -6.0350   11.6930   -5.8700 C.ar   34  HIS34       0.1154
     18  CE1       -5.8280    9.7910   -4.7980 C.ar   34  HIS34       0.1986
     19  NE2       -6.6570   10.7900   -5.0420 N.ar   34  HIS34      -0.2212
     20  N         -6.8460    4.2640   -4.2120 N.3    63  GLU63      -0.1245
     21  CA        -7.8710    3.4540   -3.5760 C.3    63  GLU63       0.1567
     22  C         -8.1860    2.2140   -4.4010 C.2    63  GLU63       0.2260
     23  O         -8.1620    2.2630   -5.6140 O.2    63  GLU63      -0.2867
     24  CB        -9.1680    4.2620   -3.4040 C.3    63  GLU63       0.0388
     25  CG        -9.1100    5.3980   -2.3950 C.3    63  GLU63       0.1160
     26  CD       -10.4950    5.9960   -2.0980 C.2    63  GLU63       0.3649
     27  OE1      -11.4510    5.7170   -2.8340 O.co2  63  GLU63      -0.2457
     28  OE2      -10.6360    6.7510   -1.1220 O.co2  63  GLU63      -0.2457
     29  N        -10.9390    0.3590   -5.6930 N.3    65  LYS65      -0.1245
     30  CA       -12.3660    0.6250   -5.9300 C.3    65  LYS65       0.1561
     31  C        -13.2930   -0.5830   -5.7960 C.2    65  LYS65       0.2260
     32  O        -14.5170   -0.4240   -5.8420 O.2    65  LYS65      -0.2867
     33  CB       -12.5650    1.2380   -7.3170 C.3    65  LYS65       0.0271
     34  CG       -11.7280    2.4680   -7.6460 C.3    65  LYS65       0.0035
     35  CD       -12.3110    3.7880   -7.1670 C.3    65  LYS65       0.0206
     36  CE       -12.3670    3.9540   -5.6610 C.3    65  LYS65       0.1093
     37  NZ       -12.7860    5.3410   -5.3200 N.3    65  LYS65      -0.1314
     38  N        -16.4510    1.8620    0.6270 N.3    69  TRP69      -0.1241
     39  CA       -15.9520    3.1670    0.9700 C.3    69  TRP69       0.1605
     40  C        -15.2800    3.0820    2.3320 C.2    69  TRP69       0.2264
     41  O        -14.1190    3.5230    2.5030 O.2    69  TRP69      -0.2867
     42  CB       -17.1250    4.1570    0.9810 C.3    69  TRP69       0.0550
     43  CG       -16.8340    5.6170    1.2050 C.ar   69  TRP69       0.0003
     44  CD1      -16.7210    6.5830    0.2420 C.ar   69  TRP69       0.0946
     45  CD2      -16.7070    6.2880    2.4550 C.ar   69  TRP69       0.0152
     46  NE1      -16.5380    7.8150    0.8190 N.ar   69  TRP69      -0.2442
     47  CE2      -16.4900    7.6560    2.1780 C.ar   69  TRP69       0.0810
     48  CE3      -16.7030    5.8630    3.7830 C.ar   69  TRP69       0.0012
     49  CZ2      -16.2990    8.6100    3.1900 C.ar   69  TRP69       0.0191
     50  CZ3      -16.5270    6.8070    4.7870 C.ar   69  TRP69       0.0001
     51  CH2      -16.3170    8.1590    4.4820 C.ar   69  TRP69       0.0015
     52  N        -11.8700    1.3510    2.0690 N.3    72  ARG72      -0.1231
     53  CA       -10.9350    2.2400    1.3490 C.3    72  ARG72       0.1694
     54  C        -10.3730    3.3190    2.2770 C.2    72  ARG72       0.2591
     55  O         -9.1510    3.5860    2.3300 O.2    72  ARG72      -0.2718
     56  CB       -11.6130    2.9090    0.1540 C.3    72  ARG72       0.0321
     57  CG       -11.8550    2.0360   -1.0720 C.3    72  ARG72       0.0489
     58  CD       -12.6730    2.8200   -2.1040 C.3    72  ARG72       0.2205
     59  NE       -13.9960    2.2910   -2.2010 N.pl3  72  ARG72      -0.0865
     60  CZ       -15.0840    2.9260   -2.6200 C.cat  72  ARG72       0.5346
     61  NH1      -16.2010    2.2330   -2.6830 N.pl3  72  ARG72       0.1354
     62  NH2      -15.0760    4.2120   -2.9640 N.pl3  72  ARG72       0.1354
     63  N        -11.2800    3.9410    2.9990 N.am   73  LYS73      -0.1980
     64  CA       -10.9410    5.0010    3.9500 C.3    73  LYS73       0.1596
     65  C        -10.0850    4.5020    5.1140 C.2    73  LYS73       0.2287
     66  O         -9.0850    5.1660    5.4940 O.2    73  LYS73      -0.2864
     67  CB       -12.2450    5.6630    4.4180 C.3    73  LYS73       0.0298
     68  CG       -12.7950    6.7140    3.4700 C.3    73  LYS73       0.0038
     69  CD       -12.4140    6.6790    1.9990 C.3    73  LYS73       0.0206
     70  CE       -12.9410    7.9070    1.3010 C.3    73  LYS73       0.1093
     71  NZ       -12.4340    8.1580   -0.0570 N.3    73  LYS73      -0.1314
     72  N         -4.1970   16.2890   -0.5110 N.3    94  ASP94      -0.1225
     73  CA        -5.4160   15.8770   -1.2130 C.3    94  ASP94       0.1805
     74  C         -6.6630   16.1760   -0.3420 C.2    94  ASP94       0.2597
     75  O         -7.6250   16.7760   -0.8100 O.2    94  ASP94      -0.2718
     76  CB        -5.2760   14.3650   -1.4940 C.3    94  ASP94       0.1424
     77  CG        -6.5330   13.7190   -2.0800 C.2    94  ASP94       0.3668
     78  OD1       -7.1870   14.3100   -2.9640 O.co2  94  ASP94      -0.2456
     79  OD2       -6.8080   12.5520   -1.6970 O.co2  94  ASP94      -0.2456
     80  N         -6.6310   15.7540    0.9160 N.am   95  LYS95      -0.1979
     81  CA        -7.7830   15.9310    1.8310 C.3    95  LYS95       0.1596
     82  C         -8.0270   17.3920    2.1430 C.2    95  LYS95       0.2287
     83  O         -9.1670   17.8150    2.3110 O.2    95  LYS95      -0.2864
     84  CB        -7.5220   15.2540    3.1580 C.3    95  LYS95       0.0298
     85  CG        -7.5710   13.7450    3.2890 C.3    95  LYS95       0.0038
     86  CD        -7.3690   12.8980    2.0800 C.3    95  LYS95       0.0206
     87  CE        -8.6600   12.6810    1.3270 C.3    95  LYS95       0.1093
     88  NZ        -8.5230   11.4180    0.5310 N.3    95  LYS95      -0.1314
     89  N         -9.7830   19.1710   -0.7720 N.3    98  ASN98      -0.1240
     90  CA       -11.1900   18.6900   -0.8150 C.3    98  ASN98       0.1653
     91  C        -12.0370   19.3270    0.2730 C.2    98  ASN98       0.2266
     92  O        -13.1450   19.7640    0.0160 O.2    98  ASN98      -0.2867
     93  CB       -11.2690   17.1650   -0.6610 C.3    98  ASN98       0.1155
     94  CG       -10.7960   16.4130   -1.8940 C.2    98  ASN98       0.2627
     95  OD1      -10.7320   16.9670   -3.0000 O.2    98  ASN98      -0.2716
     96  ND2      -10.5080   15.1190   -1.7190 N.am   98  ASN98      -0.0877
     97  N        -22.4720   13.8980   -1.0850 N.3   112  PHE112     -0.1227
     98  CA       -21.3250   12.9980   -0.9810 C.3   112  PHE112      0.1736
     99  C        -21.7660   11.5240   -1.0070 C.2   112  PHE112      0.2595
    100  O        -22.9340   11.2040   -0.8950 O.2   112  PHE112     -0.2718
    101  CB       -20.5310   13.3040    0.2960 C.3   112  PHE112      0.0547
    102  CG       -19.8980   14.6710    0.3090 C.ar  112  PHE112     -0.0202
    103  CD1      -20.5950   15.7700    0.7710 C.ar  112  PHE112     -0.0042
    104  CD2      -18.5810   14.8480   -0.1130 C.ar  112  PHE112     -0.0042
    105  CE1      -20.0160   17.0330    0.7880 C.ar  112  PHE112     -0.0003
    106  CE2      -17.9770   16.1050   -0.0860 C.ar  112  PHE112     -0.0003
    107  CZ       -18.7000   17.2010    0.3650 C.ar  112  PHE112     -0.0000
    108  N        -20.7970   10.6330   -1.1190 N.am  113  LYS113     -0.1980
    109  CA       -21.0600    9.1860   -1.1350 C.3   113  LYS113      0.1596
    110  C        -21.5390    8.6990    0.2370 C.2   113  LYS113      0.2287
    111  O        -22.2070    7.6710    0.3420 O.2   113  LYS113     -0.2864
    112  CB       -19.7730    8.4520   -1.5480 C.3   113  LYS113      0.0298
    113  CG       -19.3640    8.7990   -2.9760 C.3   113  LYS113      0.0038
    114  CD       -17.9300    8.4370   -3.3190 C.3   113  LYS113      0.0206
    115  CE       -17.6460    8.8600   -4.7600 C.3   113  LYS113      0.1093
    116  NZ       -16.2330    8.6410   -5.1550 N.3   113  LYS113     -0.1314
    117  N        -18.1270   11.0850    7.1590 N.3   119  GLN119     -0.1245
    118  CA       -17.1240   12.0460    6.6870 C.3   119  GLN119      0.1566
    119  C        -16.3300   12.5300    7.8760 C.2   119  GLN119      0.2260
    120  O        -15.1170   12.6980    7.7970 O.2   119  GLN119     -0.2867
    121  CB       -17.7660   13.2320    5.9630 C.3   119  GLN119      0.0367
    122  CG       -18.4660   12.8510    4.6590 C.3   119  GLN119      0.0905
    123  CD       -17.5300   12.2980    3.5920 C.2   119  GLN119      0.2608
    124  OE1      -16.3010   12.4620    3.6520 O.2   119  GLN119     -0.2717
    125  NE2      -18.1180   11.6410    2.5970 N.am  119  GLN119     -0.0878
    126  N        -13.8430    9.7950    8.9650 N.3   122  TYR122     -0.1241
    127  CA       -12.7460    9.7420    8.0130 C.3   122  TYR122      0.1605
    128  C        -11.7360   10.8690    8.1890 C.2   122  TYR122      0.2264
    129  O        -10.5380   10.6040    8.3420 O.2   122  TYR122     -0.2867
    130  CB       -13.3100    9.7040    6.6070 C.3   122  TYR122      0.0534
    131  CG       -12.3540    9.8260    5.4760 C.ar  122  TYR122     -0.0201
    132  CD1      -11.1240    9.1600    5.4850 C.ar  122  TYR122     -0.0009
    133  CD2      -12.7080   10.5350    4.3330 C.ar  122  TYR122     -0.0009
    134  CE1      -10.2670    9.2490    4.3980 C.ar  122  TYR122      0.0417
    135  CE2      -11.8480   10.6320    3.2540 C.ar  122  TYR122      0.0417
    136  CZ       -10.6420    9.9990    3.2980 C.ar  122  TYR122      0.1957
    137  OH        -9.8370   10.0530    2.1960 O.3   122  TYR122     -0.2866
@<TRIPOS>BOND
     1     1     2    1
     2     2     3    1
     3     2     5    1
     4     3     4    2
     5    13    12    2
     6    10    11    1
     7     6     5    1
     8     6     7    1
     9    12    11    1
    10    11    14    1
    11     8     7    1
    12     8     9    1
    13    34    33    1
    14    34    35    1
    15    33    30    1
    16    35    36    1
    17    14    15    1
    18    15    17   ar
    19    15    16   ar
    20    30    31    1
    21    30    29    1
    22    17    19   ar
    23    32    31    2
    24    36    37    1
    25    23    22    2
    26    16    18   ar
    27   116   115    1
    28    19    18   ar
    29   115   114    1
    30    22    21    1
    31    20    21    1
    32    21    24    1
    33    24    25    1
    34   114   113    1
    35    95    94    2
    36   113   112    1
    37    78    77   ar
    38    62    60    1
    39    27    26   ar
    40    61    60    1
    41    60    59    2
    42    25    26    1
    43    59    58    1
    44    58    57    1
    45    26    28   ar
    46    77    79   ar
    47    77    76    1
    48    94    96   am
    49    94    93    1
    50   112   109    1
    51    76    73    1
    52    73    72    1
    53    73    74    1
    54   109   108    1
    55   109   110    1
    56   108    99   am
    57    97    98    1
    58    57    56    1
    59    99    98    1
    60    99   100    2
    61    98   101    1
    62    90    89    1
    63    90    93    1
    64    90    91    1
    65    75    74    2
    66    74    80   am
    67   104   106   ar
    68   104   102   ar
    69   106   107   ar
    70    71    70    1
    71    92    91    2
    72    56    53    1
    73   110   111    2
    74    44    46   ar
    75    44    43   ar
    76   101   102    1
    77   102   103   ar
    78   107   105   ar
    79    88    87    1
    80    38    39    1
    81   103   105   ar
    82    46    47   ar
    83    80    81    1
    84    39    42    1
    85    39    40    1
    86    42    43    1
    87    43    45   ar
    88    70    69    1
    89    87    86    1
    90    53    52    1
    91    53    54    1
    92    81    82    1
    93    81    84    1
    94    69    68    1
    95    86    85    1
    96    82    83    2
    97    47    45   ar
    98    47    49   ar
    99   137   136    1
   100    54    55    2
   101    54    63   am
   102    40    41    2
   103    45    48   ar
   104   125   123   am
   105    63    64    1
   106    84    85    1
   107    49    51   ar
   108   135   136   ar
   109   135   133   ar
   110   136   134   ar
   111    68    67    1
   112   123   124    2
   113   123   122    1
   114    48    50   ar
   115    64    67    1
   116    64    65    1
   117   133   131   ar
   118   134   132   ar
   119    51    50   ar
   120   122   121    1
   121    65    66    2
   122   131   132   ar
   123   131   130    1
   124   121   118    1
   125   130   127    1
   126   118   117    1
   127   118   119    1
   128   120   119    2
   129   127   128    1
   130   127   126    1
   131   128   129    2
