@<TRIPOS>MOLECULE
tmp/4yfaL00.pdb
 150 153 0 0 0
SMALL
GASTEIGER

@<TRIPOS>ATOM
      1  N         23.5830   -6.7570   79.1220 N.3     1  SER1       -0.1217
      2  CA        24.8150   -6.0420   79.5170 C.3     1  SER1        0.1889
      3  C         24.9560   -6.0400   81.0370 C.2     1  SER1        0.2288
      4  O         23.9530   -5.9800   81.7490 O.2     1  SER1       -0.2866
      5  CB        24.8020   -4.6090   78.9730 C.3     1  SER1        0.2089
      6  OG        24.5440   -4.5750   77.5810 O.3     1  SER1       -0.2183
      7  N         29.1350   -4.8320   78.0710 N.3    22  PRO22      -0.2102
      8  CA        27.9700   -4.7340   77.1940 C.3    22  PRO22       0.1504
      9  C         27.6810   -6.0480   76.4550 C.2    22  PRO22       0.2576
     10  O         28.5700   -6.6340   75.8280 O.2    22  PRO22      -0.2718
     11  CB        28.3740   -3.6510   76.1950 C.3    22  PRO22       0.0282
     12  CG        29.8660   -3.6490   76.2190 C.3    22  PRO22       0.0208
     13  CD        30.2060   -3.9120   77.6530 C.3    22  PRO22       0.0893
     14  N         26.4490   -6.5270   76.5520 N.am   23  HIS23      -0.1962
     15  CA        26.0540   -7.6750   75.7520 C.3    23  HIS23       0.1787
     16  C         25.4440   -7.0920   74.5070 C.2    23  HIS23       0.2620
     17  O         24.4590   -6.3480   74.5750 O.2    23  HIS23      -0.2715
     18  CB        25.1080   -8.5910   76.5140 C.3    23  HIS23       0.0785
     19  CG        25.6300   -9.0200   77.8770 C.ar   23  HIS23       0.0821
     20  ND1       24.8120   -9.2840   78.9190 N.ar   23  HIS23      -0.2267
     21  CD2       26.9350   -9.2020   78.3490 C.ar   23  HIS23       0.1154
     22  CE1       25.5500   -9.6170   79.9980 C.ar   23  HIS23       0.1986
     23  NE2       26.8460   -9.5750   79.6480 N.ar   23  HIS23      -0.2212
     24  N         26.0520   -7.3940   73.3600 N.am   24  TRP24      -0.1974
     25  CA        25.8000   -6.6320   72.1420 C.3    24  TRP24       0.1640
     26  C         26.0450   -7.4700   70.9070 C.2    24  TRP24       0.2290
     27  O         26.3330   -8.6560   71.0080 O.2    24  TRP24      -0.2864
     28  CB        26.6830   -5.3760   72.1550 C.3    24  TRP24       0.0576
     29  CG        26.1410   -4.1800   71.3900 C.ar   24  TRP24       0.0006
     30  CD1       26.7460   -3.4970   70.3400 C.ar   24  TRP24       0.0946
     31  CD2       24.8710   -3.4720   71.6180 C.ar   24  TRP24       0.0152
     32  NE1       25.9560   -2.4570   69.9030 N.ar   24  TRP24      -0.2442
     33  CE2       24.8270   -2.3790   70.6310 C.ar   24  TRP24       0.0810
     34  CE3       23.8020   -3.6330   72.4960 C.ar   24  TRP24       0.0012
     35  CZ2       23.7460   -1.5050   70.5460 C.ar   24  TRP24       0.0191
     36  CZ3       22.7170   -2.7440   72.4000 C.ar   24  TRP24       0.0001
     37  CH2       22.6940   -1.7070   71.4510 C.ar   24  TRP24       0.0015
     38  N         31.0020   -3.3060   68.2150 N.3    32  PHE32      -0.1241
     39  CA        32.1040   -2.5400   68.8060 C.3    32  PHE32       0.1605
     40  C         33.4250   -2.6820   68.0580 C.2    32  PHE32       0.2264
     41  O         33.6950   -3.6980   67.4130 O.2    32  PHE32      -0.2867
     42  CB        32.3060   -2.9160   70.2770 C.3    32  PHE32       0.0534
     43  CG        31.1980   -2.4600   71.1750 C.ar   32  PHE32      -0.0203
     44  CD1       30.7580   -1.1460   71.1450 C.ar   32  PHE32      -0.0042
     45  CD2       30.5990   -3.3460   72.0480 C.ar   32  PHE32      -0.0042
     46  CE1       29.7380   -0.7280   71.9710 C.ar   32  PHE32      -0.0003
     47  CE2       29.5800   -2.9350   72.8740 C.ar   32  PHE32      -0.0003
     48  CZ        29.1420   -1.6270   72.8330 C.ar   32  PHE32      -0.0000
     49  N         30.9920    2.1390   68.2430 N.3    50  PHE50      -0.1241
     50  CA        30.2340    1.4880   67.1630 C.3    50  PHE50       0.1605
     51  C         31.0180    1.7290   65.8840 C.2    50  PHE50       0.2264
     52  O         31.7070    2.7510   65.7690 O.2    50  PHE50      -0.2867
     53  CB        28.8480    2.1200   66.9600 C.3    50  PHE50       0.0534
     54  CG        27.8640    1.8690   68.0700 C.ar   50  PHE50      -0.0203
     55  CD1       28.0770    0.8940   69.0240 C.ar   50  PHE50      -0.0042
     56  CD2       26.6810    2.6010   68.1210 C.ar   50  PHE50      -0.0042
     57  CE1       27.1510    0.6720   70.0350 C.ar   50  PHE50      -0.0003
     58  CE2       25.7460    2.3800   69.1210 C.ar   50  PHE50      -0.0003
     59  CZ        25.9830    1.4130   70.0820 C.ar   50  PHE50      -0.0000
     60  N         32.9190    5.4150   73.1460 N.3    57  GLN57      -0.1231
     61  CA        31.6320    5.3660   73.8440 C.3    57  GLN57       0.1698
     62  C         31.6790    4.6640   75.2010 C.2    57  GLN57       0.2592
     63  O         31.0070    5.0730   76.1480 O.2    57  GLN57      -0.2718
     64  CB        30.5710    4.7090   72.9550 C.3    57  GLN57       0.0381
     65  CG        30.1260    5.5910   71.8000 C.3    57  GLN57       0.0905
     66  CD        29.4210    4.8090   70.7190 C.2    57  GLN57       0.2608
     67  OE1       30.0590    4.1730   69.8790 O.2    57  GLN57      -0.2717
     68  NE2       28.1030    4.8530   70.7300 N.am   57  GLN57      -0.0878
     69  N         32.4420    3.5790   75.2670 N.am   58  ILE58      -0.1980
     70  CA        32.7190    2.8690   76.5010 C.3    58  ILE58       0.1595
     71  C         34.2380    2.7560   76.5370 C.2    58  ILE58       0.2287
     72  O         34.8430    2.2730   75.5830 O.2    58  ILE58      -0.2864
     73  CB        32.0920    1.4570   76.5090 C.3    58  ILE58       0.0276
     74  CG1       30.5540    1.5300   76.4830 C.3    58  ILE58       0.0022
     75  CG2       32.5980    0.6500   77.7070 C.3    58  ILE58       0.0022
     76  CD1       29.8580    0.1860   76.4070 C.3    58  ILE58       0.0001
     77  N         28.3900    1.2050   80.0080 N.3    68  HIS68      -0.1226
     78  CA        26.9570    1.4070   79.8470 C.3    68  HIS68       0.1752
     79  C         26.1840    0.1160   79.7780 C.2    68  HIS68       0.2597
     80  O         26.7050   -0.8990   79.3270 O.2    68  HIS68      -0.2718
     81  CB        26.6780    2.2080   78.5730 C.3    68  HIS68       0.0759
     82  CG        27.2130    3.6220   78.6010 C.ar   68  HIS68       0.0818
     83  ND1       26.8010    4.5340   79.4960 N.ar   68  HIS68      -0.2268
     84  CD2       28.1430    4.2660   77.7800 C.ar   68  HIS68       0.1154
     85  CE1       27.4380    5.7000   79.2690 C.ar   68  HIS68       0.1986
     86  NE2       28.2550    5.5330   78.2140 N.ar   68  HIS68      -0.2212
     87  N         24.9230    0.1580   80.2130 N.am   69  THR69      -0.1939
     88  CA        23.9560   -0.9310   80.0030 C.3    69  THR69       0.2028
     89  C         22.6470   -0.3030   79.5190 C.2    69  THR69       0.2642
     90  O         22.3210    0.8200   79.8920 O.2    69  THR69      -0.2714
     91  CB        23.6730   -1.7320   81.2960 C.3    69  THR69       0.1808
     92  OG1       23.2500   -0.8380   82.3350 O.3    69  THR69      -0.2208
     93  CG2       24.9200   -2.5130   81.7800 C.3    69  THR69       0.0379
     94  N         21.8910   -1.0050   78.6900 N.am   70  VAL70      -0.1977
     95  CA        20.5760   -0.5080   78.2850 C.3    70  VAL70       0.1596
     96  C         19.7310   -0.3180   79.5470 C.2    70  VAL70       0.2287
     97  O         19.6820   -1.1920   80.4350 O.2    70  VAL70      -0.2864
     98  CB        19.8880   -1.4460   77.2750 C.3    70  VAL70       0.0276
     99  CG1       18.4110   -1.1070   77.1070 C.3    70  VAL70       0.0022
    100  CG2       20.6080   -1.3920   75.9420 C.3    70  VAL70       0.0022
    101  N         30.2000   12.2280   75.0680 N.3   165  TRP165     -0.1241
    102  CA        31.2980   11.2650   75.0490 C.3   165  TRP165      0.1605
    103  C         32.6100   11.9410   74.8150 C.2   165  TRP165      0.2264
    104  O         33.5750   11.6500   75.5170 O.2   165  TRP165     -0.2867
    105  CB        31.0620   10.1540   74.0430 C.3   165  TRP165      0.0550
    106  CG        30.0110    9.1820   74.5040 C.ar  165  TRP165      0.0003
    107  CD1       29.9630    8.4820   75.7130 C.ar  165  TRP165      0.0946
    108  CD2       28.8210    8.7550   73.7720 C.ar  165  TRP165      0.0152
    109  NE1       28.8490    7.6860   75.7760 N.ar  165  TRP165     -0.2442
    110  CE2       28.1210    7.8010   74.6460 C.ar  165  TRP165      0.0810
    111  CE3       28.2820    9.0480   72.5190 C.ar  165  TRP165      0.0012
    112  CZ2       26.9350    7.1920   74.2640 C.ar  165  TRP165      0.0191
    113  CZ3       27.0850    8.4250   72.1460 C.ar  165  TRP165      0.0001
    114  CH2       26.4300    7.5200   72.9980 C.ar  165  TRP165      0.0015
    115  N         21.4170    8.6910   75.7810 N.3   188  PRO188     -0.2102
    116  CA        20.1300    8.4900   75.1090 C.3   188  PRO188      0.1504
    117  C         19.2860    7.3010   75.5610 C.2   188  PRO188      0.2576
    118  O         18.0620    7.4070   75.5660 O.2   188  PRO188     -0.2718
    119  CB        20.5150    8.3690   73.6270 C.3   188  PRO188      0.0282
    120  CG        21.9380    7.9370   73.6190 C.3   188  PRO188      0.0208
    121  CD        22.5620    8.2930   74.9420 C.3   188  PRO188      0.0893
    122  N         19.9090    6.1820   75.9280 N.am  189  TRP189     -0.1963
    123  CA        19.1370    4.9760   76.2820 C.3   189  TRP189      0.1771
    124  C         19.8970    3.9890   77.1320 C.2   189  TRP189      0.2619
    125  O         19.5250    2.8060   77.2170 O.2   189  TRP189     -0.2715
    126  CB        18.5330    4.2960   75.0360 C.3   189  TRP189      0.0590
    127  CG        19.4160    4.3320   73.8110 C.ar  189  TRP189      0.0006
    128  CD1       19.4230    5.2820   72.7860 C.ar  189  TRP189      0.0946
    129  CD2       20.4460    3.3600   73.4300 C.ar  189  TRP189      0.0152
    130  NE1       20.3780    4.9850   71.8430 N.ar  189  TRP189     -0.2442
    131  CE2       21.0250    3.8450   72.1690 C.ar  189  TRP189      0.0810
    132  CE3       20.9480    2.1920   74.0000 C.ar  189  TRP189      0.0012
    133  CZ2       22.0480    3.1620   71.5200 C.ar  189  TRP189      0.0191
    134  CZ3       21.9800    1.5190   73.3410 C.ar  189  TRP189      0.0001
    135  CH2       22.5140    1.9920   72.1280 C.ar  189  TRP189      0.0015
    136  N         20.9580    4.4750   77.7800 N.am  190  VAL190     -0.1977
    137  CA        21.7940    3.6390   78.6390 C.3   190  VAL190      0.1596
    138  C         21.9900    4.1810   80.0550 C.2   190  VAL190      0.2287
    139  O         21.9990    5.4060   80.2810 O.2   190  VAL190     -0.2864
    140  CB        23.1950    3.3770   78.0300 C.3   190  VAL190      0.0276
    141  CG1       23.1090    2.4270   76.8390 C.3   190  VAL190      0.0022
    142  CG2       23.8970    4.6680   77.6480 C.3   190  VAL190      0.0022
    143  N         20.6520   -4.6420   83.5410 N.3   278  ASN278     -0.1240
    144  CA        19.4740   -4.3100   82.6920 C.3   278  ASN278      0.1653
    145  C         18.1090   -4.2180   83.3710 C.2   278  ASN278      0.2266
    146  O         17.1160   -3.9360   82.7000 O.2   278  ASN278     -0.2867
    147  CB        19.3620   -5.2060   81.4490 C.3   278  ASN278      0.1155
    148  CG        20.5810   -5.1220   80.5590 C.2   278  ASN278      0.2627
    149  OD1       21.2390   -6.1310   80.3030 O.2   278  ASN278     -0.2716
    150  ND2       20.9070   -3.9170   80.1040 N.am  278  ASN278     -0.0877
@<TRIPOS>BOND
     1    52    51    2
     2    51    50    1
     3    53    50    1
     4    53    54    1
     5    50    49    1
     6    41    40    2
     7    40    39    1
     8    54    56   ar
     9    54    55   ar
    10    56    58   ar
    11    38    39    1
    12    39    42    1
    13    55    57   ar
    14    58    59   ar
    15    67    66    2
    16    32    30   ar
    17    32    33   ar
    18    57    59   ar
    19    42    43    1
    20    30    29   ar
    21    35    33   ar
    22    35    37   ar
    23    33    31   ar
    24    66    68   am
    25    66    65    1
    26    26    27    2
    27    26    25    1
    28    44    43   ar
    29    44    46   ar
    30    43    45   ar
    31    29    31   ar
    32    29    28    1
    33    37    36   ar
    34   133   135   ar
    35   133   131   ar
    36    31    34   ar
    37    65    64    1
    38   130   131   ar
    39   130   128   ar
    40    46    48   ar
    41    45    47   ar
    42   135   134   ar
    43    25    28    1
    44    25    24    1
    45   113   111   ar
    46   113   114   ar
    47   131   129   ar
    48    36    34   ar
    49   111   108   ar
    50   128   127   ar
    51    48    47   ar
    52    64    61    1
    53   114   112   ar
    54    60    61    1
    55   134   132   ar
    56    24    16   am
    57   129   127   ar
    58   129   132   ar
    59   120   119    1
    60   120   121    1
    61   119   116    1
    62   108   106   ar
    63   108   110   ar
    64   127   126    1
    65    61    62    1
    66   105   106    1
    67   105   102    1
    68   112   110   ar
    69   106   107   ar
    70    16    17    2
    71    16    15    1
    72   110   109   ar
    73   103   102    1
    74   103   104    2
    75   121   115    1
    76   126   123    1
    77   102   101    1
    78   116   117    1
    79   116   115    1
    80    62    69   am
    81    62    63    2
    82    69    70    1
    83   117   118    2
    84   117   122   am
    85    72    71    2
    86   107   109   ar
    87    15    18    1
    88    15    14    1
    89    10     9    2
    90   122   123    1
    91   100    98    1
    92    11    12    1
    93    11     8    1
    94    12    13    1
    95   123   124    1
    96    76    74    1
    97     9    14   am
    98     9     8    1
    99    74    73    1
   100    70    73    1
   101    70    71    1
   102    73    75    1
   103    18    19    1
   104   141   140    1
   105    99    98    1
   106   124   125    2
   107   124   136   am
   108     8     7    1
   109    98    95    1
   110     6     5    1
   111   142   140    1
   112    13     7    1
   113    84    86   ar
   114    84    82   ar
   115   136   137    1
   116    19    21   ar
   117    19    20   ar
   118   140   137    1
   119    86    85   ar
   120    95    94    1
   121    95    96    1
   122    21    23   ar
   123    81    82    1
   124    81    78    1
   125    82    83   ar
   126   137   138    1
   127    94    89   am
   128    20    22   ar
   129     5     2    1
   130     1     2    1
   131    85    83   ar
   132    80    79    2
   133     2     3    1
   134    89    90    2
   135    89    88    1
   136    96    97    2
   137    23    22   ar
   138    79    78    1
   139    79    87   am
   140    78    77    1
   141    88    87    1
   142    88    91    1
   143   138   139    2
   144   150   148   am
   145   149   148    2
   146   148   147    1
   147     3     4    2
   148    91    93    1
   149    91    92    1
   150   147   144    1
   151   144   145    1
   152   144   143    1
   153   146   145    2
