@<TRIPOS>MOLECULE
tmp/4yfbI00.pdb
 135 138 0 0 0
SMALL
GASTEIGER

@<TRIPOS>ATOM
      1  N         40.6150  -26.8320   20.3220 N.3     1  SER1       -0.1217
      2  CA        41.9190  -27.5820   20.5820 C.3     1  SER1        0.1889
      3  C         42.0610  -27.8330   22.0780 C.2     1  SER1        0.2288
      4  O         41.5610  -27.0330   22.9130 O.2     1  SER1       -0.2866
      5  CB        43.0990  -26.7010   20.1330 C.3     1  SER1        0.2089
      6  OG        42.8380  -26.4040   18.7660 O.3     1  SER1       -0.2183
      7  N         45.6240  -30.1250   18.8220 N.3    22  PRO22      -0.2102
      8  CA        44.9110  -29.0160   18.1060 C.3    22  PRO22       0.1504
      9  C         43.6470  -29.5330   17.3370 C.2    22  PRO22       0.2576
     10  O         43.7030  -30.5800   16.6380 O.2    22  PRO22      -0.2718
     11  CB        45.9430  -28.5560   17.0940 C.3    22  PRO22       0.0282
     12  CG        46.8740  -29.7750   16.8780 C.3    22  PRO22       0.0208
     13  CD        47.0080  -30.3400   18.3200 C.3    22  PRO22       0.0893
     14  N         42.5290  -28.8240   17.4100 N.am   23  HIS23      -0.1962
     15  CA        41.3450  -29.2210   16.6620 C.3    23  HIS23       0.1787
     16  C         41.3790  -28.3100   15.4700 C.2    23  HIS23       0.2620
     17  O         41.4050  -27.0830   15.6260 O.2    23  HIS23      -0.2715
     18  CB        40.0640  -29.0530   17.4900 C.3    23  HIS23       0.0785
     19  CG        40.0860  -29.8910   18.7310 C.ar   23  HIS23       0.0821
     20  ND1       39.5270  -29.4810   19.8990 N.ar   23  HIS23      -0.2267
     21  CD2       40.7460  -31.1240   19.0060 C.ar   23  HIS23       0.1154
     22  CE1       39.7410  -30.4040   20.8500 C.ar   23  HIS23       0.1986
     23  NE2       40.4380  -31.4460   20.2930 N.ar   23  HIS23      -0.2212
     24  N         41.4690  -28.8950   14.2770 N.am   24  TRP24      -0.1974
     25  CA        41.8340  -28.0430   13.1150 C.3    24  TRP24       0.1640
     26  C         41.3200  -28.6340   11.8410 C.2    24  TRP24       0.2290
     27  O         40.5550  -29.6040   11.8590 O.2    24  TRP24      -0.2864
     28  CB        43.4020  -27.9410   13.1420 C.3    24  TRP24       0.0576
     29  CG        43.9860  -26.7180   12.4220 C.ar   24  TRP24       0.0006
     30  CD1       44.9140  -26.7150   11.3950 C.ar   24  TRP24       0.0946
     31  CD2       43.7790  -25.3110   12.7770 C.ar   24  TRP24       0.0152
     32  NE1       45.2460  -25.4110   11.0320 N.ar   24  TRP24      -0.2442
     33  CE2       44.5930  -24.5220   11.8310 C.ar   24  TRP24       0.0810
     34  CE3       42.9950  -24.6460   13.7240 C.ar   24  TRP24       0.0012
     35  CZ2       44.6530  -23.0940   11.8900 C.ar   24  TRP24       0.0191
     36  CZ3       43.0300  -23.2260   13.7670 C.ar   24  TRP24       0.0001
     37  CH2       43.8600  -22.4720   12.8740 C.ar   24  TRP24       0.0015
     38  N         47.5890  -29.6540    8.8510 N.3    32  PHE32      -0.1241
     39  CA        48.9150  -30.0460    9.3110 C.3    32  PHE32       0.1605
     40  C         49.5470  -31.0980    8.4420 C.2    32  PHE32       0.2264
     41  O         48.8710  -31.9860    7.8660 O.2    32  PHE32      -0.2867
     42  CB        48.8620  -30.5850   10.7610 C.3    32  PHE32       0.0534
     43  CG        48.5250  -29.5260   11.7750 C.ar   32  PHE32      -0.0203
     44  CD1       49.3310  -28.3830   11.8840 C.ar   32  PHE32      -0.0042
     45  CD2       47.4300  -29.6890   12.6380 C.ar   32  PHE32      -0.0042
     46  CE1       49.0470  -27.4300   12.9060 C.ar   32  PHE32      -0.0003
     47  CE2       47.1340  -28.7300   13.5980 C.ar   32  PHE32      -0.0003
     48  CZ        47.9350  -27.6220   13.7240 C.ar   32  PHE32      -0.0000
     49  N         51.7960  -26.2320    9.2010 N.3    50  PHE50      -0.1241
     50  CA        50.7670  -26.0270    8.1430 C.3    50  PHE50       0.1605
     51  C         51.4510  -26.3060    6.7720 C.2    50  PHE50       0.2264
     52  O         52.6660  -26.0760    6.5700 O.2    50  PHE50      -0.2867
     53  CB        50.2970  -24.5450    8.0050 C.3    50  PHE50       0.0534
     54  CG        49.6130  -23.9570    9.2170 C.ar   50  PHE50      -0.0203
     55  CD1       49.0800  -24.7420   10.2710 C.ar   50  PHE50      -0.0042
     56  CD2       49.4130  -22.5680    9.2690 C.ar   50  PHE50      -0.0042
     57  CE1       48.4400  -24.1370   11.3620 C.ar   50  PHE50      -0.0003
     58  CE2       48.7840  -21.9570   10.3390 C.ar   50  PHE50      -0.0003
     59  CZ        48.2830  -22.7210   11.4060 C.ar   50  PHE50      -0.0000
     60  N         55.5380  -26.1900   13.8700 N.3    57  GLN57      -0.1231
     61  CA        54.7130  -25.2750   14.7350 C.3    57  GLN57       0.1698
     62  C         54.2790  -25.9620   16.0020 C.2    57  GLN57       0.2592
     63  O         54.1760  -25.3190   17.0440 O.2    57  GLN57      -0.2718
     64  CB        53.4790  -24.8020   14.0000 C.3    57  GLN57       0.0381
     65  CG        53.8860  -23.8280   12.8990 C.3    57  GLN57       0.0905
     66  CD        52.7700  -23.7210   11.9120 C.2    57  GLN57       0.2608
     67  OE1       52.6370  -24.5760   11.0970 O.2    57  GLN57      -0.2717
     68  NE2       51.9510  -22.6630   12.0030 N.am   57  GLN57      -0.0878
     69  N         54.0320  -27.2700   15.9470 N.am   58  ILE58      -0.1980
     70  CA        53.6710  -28.0090   17.1880 C.3    58  ILE58       0.1595
     71  C         54.4990  -29.3130   17.1120 C.2    58  ILE58       0.2287
     72  O         54.5130  -30.0130   16.0780 O.2    58  ILE58      -0.2864
     73  CB        52.1600  -28.3770   17.1850 C.3    58  ILE58       0.0276
     74  CG1       51.2610  -27.1390   17.4270 C.3    58  ILE58       0.0022
     75  CG2       51.8990  -29.4840   18.2190 C.3    58  ILE58       0.0022
     76  CD1       49.7600  -27.4450   17.3020 C.3    58  ILE58       0.0001
     77  N         49.8490  -25.8950   21.0300 N.3    68  HIS68      -0.1226
     78  CA        49.1300  -24.6210   21.0500 C.3    68  HIS68       0.1752
     79  C         47.6380  -24.8390   21.0410 C.2    68  HIS68       0.2597
     80  O         47.1460  -25.8310   20.5250 O.2    68  HIS68      -0.2718
     81  CB        49.5020  -23.8180   19.7940 C.3    68  HIS68       0.0759
     82  CG        50.9450  -23.3680   19.7600 C.ar   68  HIS68       0.0818
     83  ND1       51.4910  -22.5900   20.7180 N.ar   68  HIS68      -0.2268
     84  CD2       51.9590  -23.6340   18.8360 C.ar   68  HIS68       0.1154
     85  CE1       52.8180  -22.3590   20.4210 C.ar   68  HIS68       0.1986
     86  NE2       53.1030  -23.0160   19.2770 N.ar   68  HIS68      -0.2212
     87  N         46.8890  -23.8710   21.5850 N.am   69  THR69      -0.1939
     88  CA        45.4280  -23.8780   21.3490 C.3    69  THR69       0.2028
     89  C         45.0960  -22.3960   21.0580 C.2    69  THR69       0.2642
     90  O         45.7520  -21.4880   21.6210 O.2    69  THR69      -0.2714
     91  CB        44.6130  -24.2680   22.5970 C.3    69  THR69       0.1808
     92  OG1       44.9570  -23.3950   23.6870 O.3    69  THR69      -0.2208
     93  CG2       44.9360  -25.7640   23.0360 C.3    69  THR69       0.0379
     94  N         44.0680  -22.1830   20.2690 N.am   70  VAL70      -0.1977
     95  CA        43.6540  -20.7760   20.0010 C.3    70  VAL70       0.1596
     96  C         43.2820  -20.1020   21.3470 C.2    70  VAL70       0.2287
     97  O         42.5460  -20.6510   22.1770 O.2    70  VAL70      -0.2864
     98  CB        42.4890  -20.6920   19.0100 C.3    70  VAL70       0.0276
     99  CG1       41.9010  -19.2610   18.9620 C.3    70  VAL70       0.0022
    100  CG2       42.9730  -21.0700   17.6160 C.3    70  VAL70       0.0022
    101  N         59.2710  -19.9000   16.2090 N.3   165  TRP165     -0.1241
    102  CA        59.2070  -21.3670   16.0730 C.3   165  TRP165      0.1605
    103  C         60.5550  -21.9560   15.7210 C.2   165  TRP165      0.2264
    104  O         60.9220  -23.0050   16.2490 O.2   165  TRP165     -0.2867
    105  CB        58.1490  -21.8150   15.0740 C.3   165  TRP165      0.0550
    106  CG        56.7740  -21.7690   15.6690 C.ar  165  TRP165      0.0003
    107  CD1       56.3010  -22.4550   16.7910 C.ar  165  TRP165      0.0946
    108  CD2       55.6200  -21.0430   15.1510 C.ar  165  TRP165      0.0152
    109  NE1       54.9820  -22.1890   17.0400 N.ar  165  TRP165     -0.2442
    110  CE2       54.5000  -21.3250   16.0890 C.ar  165  TRP165      0.0810
    111  CE3       55.3660  -20.2520   13.9760 C.ar  165  TRP165      0.0012
    112  CZ2       53.1960  -20.8030   15.8670 C.ar  165  TRP165      0.0191
    113  CZ3       54.0340  -19.7320   13.7670 C.ar  165  TRP165      0.0001
    114  CH2       52.9840  -20.0160   14.6850 C.ar  165  TRP165      0.0015
    115  N         48.3100  -15.8550   17.9620 N.3   189  TRP189     -0.1227
    116  CA        46.8530  -16.0160   18.2700 C.3   189  TRP189      0.1737
    117  C         46.5900  -17.2960   19.0540 C.2   189  TRP189      0.2595
    118  O         45.4500  -17.7790   19.1410 O.2   189  TRP189     -0.2718
    119  CB        45.9440  -15.8610   17.0190 C.3   189  TRP189      0.0564
    120  CG        46.4800  -16.4340   15.7340 C.ar  189  TRP189      0.0003
    121  CD1       47.1200  -15.7760   14.7090 C.ar  189  TRP189      0.0946
    122  CD2       46.3160  -17.8100   15.2900 C.ar  189  TRP189      0.0152
    123  NE1       47.4550  -16.6850   13.6820 N.ar  189  TRP189     -0.2442
    124  CE2       47.0080  -17.9270   13.9930 C.ar  189  TRP189      0.0810
    125  CE3       45.7530  -18.9390   15.8600 C.ar  189  TRP189      0.0012
    126  CZ2       47.0560  -19.1360   13.2790 C.ar  189  TRP189      0.0191
    127  CZ3       45.7990  -20.1570   15.1400 C.ar  189  TRP189      0.0001
    128  CH2       46.4450  -20.2470   13.8720 C.ar  189  TRP189      0.0015
    129  N         47.6540  -17.8220   19.6530 N.am  190  VAL190     -0.1980
    130  CA        47.4880  -19.0520   20.4320 C.3   190  VAL190      0.1595
    131  C         48.1180  -18.9760   21.8330 C.2   190  VAL190      0.2287
    132  O         49.1230  -18.2600   22.0820 O.2   190  VAL190     -0.2864
    133  CB        48.0990  -20.2560   19.6750 C.3   190  VAL190      0.0276
    134  CG1       47.1910  -20.5890   18.4260 C.3   190  VAL190      0.0022
    135  CG2       49.5830  -20.0480   19.3290 C.3   190  VAL190      0.0022
@<TRIPOS>BOND
     1    52    51    2
     2    51    50    1
     3    41    40    2
     4    53    50    1
     5    53    54    1
     6    50    49    1
     7    40    39    1
     8    38    39    1
     9    54    56   ar
    10    54    55   ar
    11    56    58   ar
    12    39    42    1
    13    55    57   ar
    14    58    59   ar
    15    42    43    1
    16    32    30   ar
    17    32    33   ar
    18    67    66    2
    19    57    59   ar
    20    30    29   ar
    21    43    44   ar
    22    43    45   ar
    23    33    35   ar
    24    33    31   ar
    25    26    27    2
    26    26    25    1
    27    44    46   ar
    28    35    37   ar
    29    66    68   am
    30    66    65    1
    31    29    31   ar
    32    29    28    1
    33    45    47   ar
    34    31    34   ar
    35    37    36   ar
    36    65    64    1
    37    46    48   ar
    38    25    28    1
    39    25    24    1
    40   126   128   ar
    41   126   124   ar
    42    47    48   ar
    43   123   124   ar
    44   123   121   ar
    45    34    36   ar
    46   113   111   ar
    47   113   114   ar
    48    60    61    1
    49   128   127   ar
    50   111   108   ar
    51   124   122   ar
    52    64    61    1
    53    24    16   am
    54   114   112   ar
    55   121   120   ar
    56    61    62    1
    57   105   106    1
    58   105   102    1
    59   127   125   ar
    60   108   106   ar
    61   108   110   ar
    62   122   120   ar
    63   122   125   ar
    64    16    17    2
    65    16    15    1
    66   106   107   ar
    67   103   102    1
    68   103   104    2
    69   120   119    1
    70   112   110   ar
    71    69    62   am
    72    69    70    1
    73    62    63    2
    74   102   101    1
    75    72    71    2
    76   110   109   ar
    77    10     9    2
    78    15    14    1
    79    15    18    1
    80   107   109   ar
    81    12    11    1
    82    12    13    1
    83   119   116    1
    84    11     8    1
    85    71    70    1
    86    73    70    1
    87    73    74    1
    88    73    75    1
    89    76    74    1
    90     9    14   am
    91     9     8    1
    92    18    19    1
    93   100    98    1
    94   115   116    1
    95     8     7    1
    96   116   117    1
    97    13     7    1
    98   134   133    1
    99    19    21   ar
   100    19    20   ar
   101     6     5    1
   102    84    86   ar
   103    84    82   ar
   104    99    98    1
   105    21    23   ar
   106    98    95    1
   107   117   118    2
   108   117   129   am
   109    86    85   ar
   110   135   133    1
   111   129   130    1
   112   133   130    1
   113    82    81    1
   114    82    83   ar
   115    81    78    1
   116    20    22   ar
   117    95    94    1
   118    95    96    1
   119     5     2    1
   120    94    89   am
   121    23    22   ar
   122     1     2    1
   123    85    83   ar
   124   130   131    1
   125    80    79    2
   126     2     3    1
   127    77    78    1
   128    79    78    1
   129    79    87   am
   130    89    88    1
   131    89    90    2
   132    96    97    2
   133    88    87    1
   134    88    91    1
   135   131   132    2
   136     3     4    2
   137    91    93    1
   138    91    92    1
