@<TRIPOS>MOLECULE
tmp/4yfbL00.pdb
 125 126 0 0 0
SMALL
GASTEIGER

@<TRIPOS>ATOM
      1  N         11.9750  -26.4770  -19.6420 N.3     1  SER1       -0.1217
      2  CA        10.7520  -27.2870  -19.9840 C.3     1  SER1        0.1889
      3  C         10.5940  -27.3800  -21.4850 C.2     1  SER1        0.2288
      4  O         10.9990  -26.4490  -22.2510 O.2     1  SER1       -0.2866
      5  CB         9.5450  -26.4950  -19.4930 C.3     1  SER1        0.2089
      6  OG         9.7180  -26.3590  -18.0660 O.3     1  SER1       -0.2183
      7  N          7.3690  -30.2340  -18.4100 N.3    22  PRO22      -0.2116
      8  CA         7.9380  -29.1090  -17.5700 C.3    22  PRO22       0.1372
      9  C          9.2290  -29.5870  -16.8390 C.2    22  PRO22       0.2244
     10  O          9.2810  -30.7400  -16.3340 O.2    22  PRO22      -0.2868
     11  CB         6.8160  -28.8640  -16.5640 C.3    22  PRO22       0.0268
     12  CG         5.9910  -30.1690  -16.4820 C.3    22  PRO22       0.0207
     13  CD         5.9920  -30.6130  -17.9470 C.3    22  PRO22       0.0892
     14  N         11.3590  -29.0280  -13.7990 N.3    24  TRP24      -0.1241
     15  CA        10.9280  -28.2810  -12.6260 C.3    24  TRP24       0.1605
     16  C         11.4280  -29.0070  -11.3710 C.2    24  TRP24       0.2264
     17  O         12.3290  -29.8770  -11.4750 O.2    24  TRP24      -0.2867
     18  CB         9.3800  -28.3130  -12.6170 C.3    24  TRP24       0.0550
     19  CG         8.6430  -27.2690  -11.8280 C.ar   24  TRP24       0.0003
     20  CD1        7.7430  -27.4380  -10.7640 C.ar   24  TRP24       0.0946
     21  CD2        8.7170  -25.8370  -12.0460 C.ar   24  TRP24       0.0152
     22  NE1        7.2580  -26.2070  -10.3070 N.ar   24  TRP24      -0.2442
     23  CE2        7.7870  -25.2060  -11.0760 C.ar   24  TRP24       0.0810
     24  CE3        9.4110  -25.0250  -12.9730 C.ar   24  TRP24       0.0012
     25  CZ2        7.6260  -23.8320  -11.0290 C.ar   24  TRP24       0.0191
     26  CZ3        9.2490  -23.6370  -12.9100 C.ar   24  TRP24       0.0001
     27  CH2        8.4090  -23.0480  -11.9450 C.ar   24  TRP24       0.0015
     28  N          5.3270  -30.7600   -8.4930 N.3    32  PHE32      -0.1241
     29  CA         4.0430  -31.2440   -8.9420 C.3    32  PHE32       0.1605
     30  C          3.4830  -32.4110   -8.1810 C.2    32  PHE32       0.2264
     31  O          4.2150  -33.2690   -7.6420 O.2    32  PHE32      -0.2867
     32  CB         4.1620  -31.6350  -10.4090 C.3    32  PHE32       0.0534
     33  CG         4.3720  -30.4770  -11.3220 C.ar   32  PHE32      -0.0203
     34  CD1        3.4540  -29.3830  -11.3290 C.ar   32  PHE32      -0.0042
     35  CD2        5.4590  -30.4940  -12.2050 C.ar   32  PHE32      -0.0042
     36  CE1        3.6620  -28.3380  -12.2560 C.ar   32  PHE32      -0.0003
     37  CE2        5.6810  -29.4390  -13.1070 C.ar   32  PHE32      -0.0003
     38  CZ         4.7830  -28.3420  -13.1130 C.ar   32  PHE32      -0.0000
     39  N          0.8570  -27.7150   -8.5250 N.3    50  PHE50      -0.1241
     40  CA         1.8850  -27.5480   -7.5230 C.3    50  PHE50       0.1605
     41  C          1.2380  -27.9620   -6.1680 C.2    50  PHE50       0.2264
     42  O          0.0090  -27.8590   -5.9680 O.2    50  PHE50      -0.2867
     43  CB         2.2710  -26.0670   -7.2550 C.3    50  PHE50       0.0534
     44  CG         2.8650  -25.3180   -8.4070 C.ar   50  PHE50      -0.0203
     45  CD1        3.4420  -25.9510   -9.5560 C.ar   50  PHE50      -0.0042
     46  CD2        2.8810  -23.8920   -8.3310 C.ar   50  PHE50      -0.0042
     47  CE1        4.0150  -25.2040  -10.5880 C.ar   50  PHE50      -0.0003
     48  CE2        3.4770  -23.1570   -9.3820 C.ar   50  PHE50      -0.0003
     49  CZ         4.0290  -23.8160  -10.4730 C.ar   50  PHE50      -0.0000
     50  N         -2.9940  -27.6070  -13.2190 N.3    57  GLN57      -0.1231
     51  CA        -2.2750  -26.6160  -14.0030 C.3    57  GLN57       0.1698
     52  C         -1.7480  -27.1410  -15.3180 C.2    57  GLN57       0.2592
     53  O         -1.6570  -26.3360  -16.3010 O.2    57  GLN57      -0.2718
     54  CB        -1.0860  -26.0700  -13.2260 C.3    57  GLN57       0.0381
     55  CG        -1.5860  -25.3080  -11.9910 C.3    57  GLN57       0.0905
     56  CD        -0.4300  -25.1090  -11.0720 C.2    57  GLN57       0.2608
     57  OE1        0.3260  -24.0840  -11.1680 O.2    57  GLN57      -0.2717
     58  NE2       -0.3310  -25.9980  -10.1200 N.am   57  GLN57      -0.0878
     59  N         -1.3200  -28.4100  -15.3770 N.am   58  ILE58      -0.1980
     60  CA        -0.9150  -29.0300  -16.6490 C.3    58  ILE58       0.1595
     61  C         -1.6350  -30.3800  -16.6420 C.2    58  ILE58       0.2287
     62  O         -1.5620  -31.1150  -15.6550 O.2    58  ILE58      -0.2864
     63  CB         0.6330  -29.2840  -16.6620 C.3    58  ILE58       0.0276
     64  CG1        1.3560  -27.9130  -16.7380 C.3    58  ILE58       0.0022
     65  CG2        0.9960  -30.2480  -17.8250 C.3    58  ILE58       0.0022
     66  CD1        2.8990  -28.0240  -16.5520 C.3    58  ILE58       0.0001
     67  N          2.6790  -26.2350  -20.3720 N.3    68  HIS68      -0.1226
     68  CA         3.2530  -24.9280  -20.2960 C.3    68  HIS68       0.1752
     69  C          4.7810  -25.0470  -20.2240 C.2    68  HIS68       0.2597
     70  O          5.3280  -26.0520  -19.7300 O.2    68  HIS68      -0.2718
     71  CB         2.8190  -24.2510  -18.9930 C.3    68  HIS68       0.0759
     72  CG         1.3590  -23.9650  -18.9110 C.ar   68  HIS68       0.0818
     73  ND1        0.6990  -23.1160  -19.8050 N.ar   68  HIS68      -0.2268
     74  CD2        0.4150  -24.3760  -17.9660 C.ar   68  HIS68       0.1154
     75  CE1       -0.5910  -22.9970  -19.4210 C.ar   68  HIS68       0.1986
     76  NE2       -0.7830  -23.7630  -18.2940 N.ar   68  HIS68      -0.2212
     77  N          5.4490  -23.9920  -20.6970 N.am   69  THR69      -0.1939
     78  CA         6.8970  -23.8230  -20.4430 C.3    69  THR69       0.2028
     79  C          7.0650  -22.3710  -20.0360 C.2    69  THR69       0.2642
     80  O          6.3020  -21.4940  -20.4990 O.2    69  THR69      -0.2714
     81  CB         7.7110  -24.0630  -21.7030 C.3    69  THR69       0.1808
     82  OG1        7.2530  -23.1770  -22.7210 O.3    69  THR69      -0.2208
     83  CG2        7.4910  -25.5120  -22.2690 C.3    69  THR69       0.0379
     84  N          8.0880  -22.0920  -19.2370 N.am   70  VAL70      -0.1977
     85  CA         8.3660  -20.6960  -18.8880 C.3    70  VAL70       0.1596
     86  C          8.6640  -19.8700  -20.1540 C.2    70  VAL70       0.2287
     87  O          9.4390  -20.2650  -21.0500 O.2    70  VAL70      -0.2864
     88  CB         9.5590  -20.6160  -17.9030 C.3    70  VAL70       0.0276
     89  CG1        9.9760  -19.1340  -17.7460 C.3    70  VAL70       0.0022
     90  CG2        9.1330  -21.2240  -16.5270 C.3    70  VAL70       0.0022
     91  N         -7.2350  -21.5510  -15.0620 N.3   165  TRP165     -0.1241
     92  CA        -7.0300  -22.9920  -15.0460 C.3   165  TRP165      0.1605
     93  C         -8.3150  -23.7270  -14.6990 C.2   165  TRP165      0.2264
     94  O         -8.5800  -24.7670  -15.2740 O.2   165  TRP165     -0.2867
     95  CB        -5.9320  -23.3820  -14.0830 C.3   165  TRP165      0.0550
     96  CG        -4.5690  -23.1880  -14.6690 C.ar  165  TRP165      0.0003
     97  CD1       -4.0070  -23.7580  -15.8170 C.ar  165  TRP165      0.0946
     98  CD2       -3.4930  -22.4300  -14.0430 C.ar  165  TRP165      0.0152
     99  NE1       -2.7250  -23.3230  -16.0040 N.ar  165  TRP165     -0.2442
    100  CE2       -2.3370  -22.5470  -14.9240 C.ar  165  TRP165      0.0810
    101  CE3       -3.3500  -21.7430  -12.7790 C.ar  165  TRP165      0.0012
    102  CZ2       -1.0820  -21.9850  -14.5670 C.ar  165  TRP165      0.0191
    103  CZ3       -2.0990  -21.1710  -12.4530 C.ar  165  TRP165      0.0001
    104  CH2       -0.9870  -21.2880  -13.3380 C.ar  165  TRP165      0.0015
    105  N          3.2490  -16.3680  -16.5440 N.3   189  TRP189     -0.1227
    106  CA         4.6880  -16.3910  -16.8730 C.3   189  TRP189      0.1737
    107  C          5.0770  -17.5820  -17.7270 C.2   189  TRP189      0.2595
    108  O          6.2820  -17.9350  -17.8170 O.2   189  TRP189     -0.2718
    109  CB         5.5860  -16.1980  -15.5690 C.3   189  TRP189      0.0564
    110  CG         5.1110  -16.9740  -14.3360 C.ar  189  TRP189      0.0003
    111  CD1        4.3810  -16.4750  -13.2380 C.ar  189  TRP189      0.0946
    112  CD2        5.3980  -18.3860  -14.0070 C.ar  189  TRP189      0.0152
    113  NE1        4.1750  -17.4770  -12.3070 N.ar  189  TRP189     -0.2442
    114  CE2        4.7800  -18.6490  -12.7100 C.ar  189  TRP189      0.0810
    115  CE3        6.1060  -19.3990  -14.6440 C.ar  189  TRP189      0.0012
    116  CZ2        4.8860  -19.8950  -12.0780 C.ar  189  TRP189      0.0191
    117  CZ3        6.2250  -20.6400  -14.0280 C.ar  189  TRP189      0.0001
    118  CH2        5.6120  -20.8840  -12.7590 C.ar  189  TRP189      0.0015
    119  N          4.0640  -18.1940  -18.3680 N.am  190  VAL190     -0.1980
    120  CA         4.3250  -19.3500  -19.2220 C.3   190  VAL190      0.1595
    121  C          3.6640  -19.2330  -20.5960 C.2   190  VAL190      0.2287
    122  O          2.5710  -18.5870  -20.7670 O.2   190  VAL190     -0.2864
    123  CB         3.8270  -20.6630  -18.5660 C.3   190  VAL190      0.0276
    124  CG1        4.6180  -21.0140  -17.2980 C.3   190  VAL190      0.0022
    125  CG2        2.3330  -20.5880  -18.2250 C.3   190  VAL190      0.0022
@<TRIPOS>BOND
     1    82    81    1
     2    83    81    1
     3     4     3    2
     4    81    78    1
     5     3     2    1
     6    87    86    2
     7   122   121    2
     8    77    78    1
     9    77    69   am
    10   121   120    1
    11    80    79    2
    12    78    79    1
    13    67    68    1
    14    68    69    1
    15    68    71    1
    16    69    70    2
    17    86    85    1
    18    79    84   am
    19     2     1    1
    20     2     5    1
    21    73    75   ar
    22    73    72   ar
    23     5     6    1
    24    75    76   ar
    25    84    85    1
    26   120   123    1
    27   120   119    1
    28    71    72    1
    29    72    74   ar
    30    85    88    1
    31   123   125    1
    32   123   124    1
    33     7    13    1
    34     7     8    1
    35   119   107   am
    36    76    74   ar
    37    13    12    1
    38    88    89    1
    39    88    90    1
    40    65    63    1
    41   108   107    2
    42   107   106    1
    43     8     9    1
    44     8    11    1
    45   106   105    1
    46   106   109    1
    47     9    10    2
    48    64    63    1
    49    64    66    1
    50    63    60    1
    51    60    61    1
    52    60    59    1
    53    61    62    2
    54    11    12    1
    55    53    52    2
    56    99    97   ar
    57    99   100   ar
    58    97    96   ar
    59   109   110    1
    60    59    52   am
    61    52    51    1
    62    94    93    2
    63    91    92    1
    64    92    93    1
    65    92    95    1
    66   100   102   ar
    67   100    98   ar
    68    96    95    1
    69    96    98   ar
    70   115   117   ar
    71   115   112   ar
    72   102   104   ar
    73   110   112   ar
    74   110   111   ar
    75    98   101   ar
    76   117   118   ar
    77   112   114   ar
    78    51    54    1
    79    51    50    1
    80    14    15    1
    81   104   103   ar
    82   111   113   ar
    83    54    55    1
    84    38    37   ar
    85    38    36   ar
    86    37    35   ar
    87    24    26   ar
    88    24    21   ar
    89    26    27   ar
    90   101   103   ar
    91   118   116   ar
    92   114   113   ar
    93   114   116   ar
    94    15    18    1
    95    15    16    1
    96    18    19    1
    97    36    34   ar
    98    35    33   ar
    99    21    19   ar
   100    21    23   ar
   101    55    56    1
   102    27    25   ar
   103    19    20   ar
   104    17    16    2
   105    34    33   ar
   106    33    32    1
   107    57    56    2
   108    23    25   ar
   109    23    22   ar
   110    56    58   am
   111    20    22   ar
   112    47    49   ar
   113    47    45   ar
   114    49    48   ar
   115    32    29    1
   116    45    44   ar
   117    48    46   ar
   118    29    28    1
   119    29    30    1
   120    39    40    1
   121    44    46   ar
   122    44    43    1
   123    30    31    2
   124    40    43    1
   125    40    41    1
   126    41    42    2
