@<TRIPOS>MOLECULE
tmp/4yffA00.pdb
 182 173 0 0 0
SMALL
GASTEIGER

@<TRIPOS>ATOM
      1  N         49.8560    3.0930   80.2080 N.3    25  ILE25      -0.1231
      2  CA        48.8840    2.8270   81.2940 C.3    25  ILE25       0.1692
      3  C         47.5710    3.5970   81.1560 C.2    25  ILE25       0.2593
      4  O         46.6520    3.3790   81.9410 O.2    25  ILE25      -0.2718
      5  CB        49.4630    3.1390   82.6920 C.3    25  ILE25       0.0266
      6  CG1       50.0260    4.5670   82.7370 C.3    25  ILE25       0.0019
      7  CG2       50.5190    2.1040   83.0480 C.3    25  ILE25       0.0020
      8  CD1       50.3080    5.0890   84.1270 C.3    25  ILE25       0.0001
      9  N         47.4960    4.4960   80.1760 N.am   26  GLY26      -0.1942
     10  CA        46.2870    5.2710   79.9200 C.3    26  GLY26       0.2014
     11  C         46.3570    6.0040   78.5920 C.2    26  GLY26       0.2639
     12  O         47.4400    6.1890   78.0310 O.2    26  GLY26      -0.2714
     13  N         45.2000    6.4520   78.1070 N.am   27  SER27      -0.1949
     14  CA        45.0910    6.9740   76.7470 C.3    27  SER27       0.1924
     15  C         44.1070    8.1380   76.5830 C.2    27  SER27       0.2314
     16  O         43.4380    8.5520   77.5270 O.2    27  SER27      -0.2863
     17  CB        44.6870    5.8310   75.8180 C.3    27  SER27       0.2116
     18  OG        44.8280    6.2130   74.4660 O.3    27  SER27      -0.2180
     19  N         49.6630    8.1160   78.1670 N.3    33  VAL33      -0.1245
     20  CA        50.2710    8.1880   79.4840 C.3    33  VAL33       0.1561
     21  C         51.0310    6.8860   79.7120 C.2    33  VAL33       0.2260
     22  O         50.4450    5.8020   79.7180 O.2    33  VAL33      -0.2867
     23  CB        49.2000    8.4360   80.5900 C.3    33  VAL33       0.0252
     24  CG1       49.7750    8.2570   81.9950 C.3    33  VAL33       0.0019
     25  CG2       48.5910    9.8260   80.4390 C.3    33  VAL33       0.0019
     26  N         55.1850    8.4700   86.1760 N.3    44  ALA44      -0.1231
     27  CA        54.1940    8.4250   85.1220 C.3    44  ALA44       0.1694
     28  C         54.4660    9.5900   84.1960 C.2    44  ALA44       0.2592
     29  O         54.7570   10.6880   84.6720 O.2    44  ALA44      -0.2718
     30  CB        52.8000    8.5280   85.7130 C.3    44  ALA44       0.0304
     31  N         54.3770    9.3470   82.8840 N.am   45  ILE45      -0.1966
     32  CA        54.6340   10.3740   81.8730 C.3    45  ILE45       0.1727
     33  C         53.4240   10.5930   80.9950 C.2    45  ILE45       0.2616
     34  O         52.9390    9.6640   80.3790 O.2    45  ILE45      -0.2715
     35  CB        55.8010   10.0150   80.9200 C.3    45  ILE45       0.0290
     36  CG1       57.0630    9.6240   81.6950 C.3    45  ILE45       0.0022
     37  CG2       56.1130   11.1930   80.0010 C.3    45  ILE45       0.0023
     38  CD1       57.2800    8.1310   81.7900 C.3    45  ILE45       0.0001
     39  N         52.9650   11.8340   80.9110 N.am   46  LYS46      -0.1977
     40  CA        51.9800   12.2110   79.9110 C.3    46  LYS46       0.1596
     41  C         52.7390   12.8030   78.7410 C.2    46  LYS46       0.2287
     42  O         53.4990   13.7540   78.9130 O.2    46  LYS46      -0.2864
     43  CB        50.9670   13.2300   80.4590 C.3    46  LYS46       0.0298
     44  CG        50.0470   13.8230   79.3930 C.3    46  LYS46       0.0038
     45  CD        49.2500   15.0140   79.8980 C.3    46  LYS46       0.0206
     46  CE        48.0900   14.5750   80.7720 C.3    46  LYS46       0.1093
     47  NZ        47.2620   15.7270   81.2140 N.3    46  LYS46      -0.1314
     48  N         49.1830   23.6940   81.4890 N.3    58  GLU58      -0.1245
     49  CA        49.1940   22.5210   82.3610 C.3    58  GLU58       0.1567
     50  C         50.4680   22.4580   83.1940 C.2    58  GLU58       0.2260
     51  O         50.4330   22.0810   84.3650 O.2    58  GLU58      -0.2867
     52  CB        49.0150   21.2260   81.5660 C.3    58  GLU58       0.0388
     53  CG        48.7960   19.9970   82.4580 C.3    58  GLU58       0.1160
     54  CD        48.6960   18.6680   81.7030 C.2    58  GLU58       0.3649
     55  OE1       48.7350   18.6500   80.4570 O.co2  58  GLU58      -0.2457
     56  OE2       48.5780   17.6150   82.3650 O.co2  58  GLU58      -0.2457
     57  N         50.9060   22.6850   87.2010 N.3    62  LEU62      -0.1245
     58  CA        51.5270   21.5800   87.9480 C.3    62  LEU62       0.1561
     59  C         52.6920   22.0390   88.8060 C.2    62  LEU62       0.2260
     60  O         52.8120   21.6350   89.9580 O.2    62  LEU62      -0.2867
     61  CB        52.0010   20.4410   87.0280 C.3    62  LEU62       0.0270
     62  CG        50.9320   19.4780   86.4840 C.3    62  LEU62       0.0019
     63  CD1       51.5420   18.6250   85.3870 C.3    62  LEU62       0.0001
     64  CD2       50.3030   18.6000   87.5590 C.3    62  LEU62       0.0001
     65  N         48.8710   14.9620   93.1480 N.3    71  ILE71      -0.1245
     66  CA        49.9860   14.3300   92.4320 C.3    71  ILE71       0.1561
     67  C         51.2570   15.1880   92.4420 C.2    71  ILE71       0.2260
     68  O         51.2050   16.4170   92.3150 O.2    71  ILE71      -0.2867
     69  CB        49.6070   13.9720   90.9740 C.3    71  ILE71       0.0252
     70  CG1       50.5310   12.8780   90.4360 C.3    71  ILE71       0.0019
     71  CG2       49.6380   15.1930   90.0660 C.3    71  ILE71       0.0019
     72  CD1       50.2410   11.5000   90.9920 C.3    71  ILE71       0.0001
     73  N         55.1110   15.4860   80.1490 N.3    86  ILE86      -0.1245
     74  CA        54.8810   15.8490   81.5350 C.3    86  ILE86       0.1561
     75  C         55.1050   14.6220   82.4150 C.2    86  ILE86       0.2260
     76  O         54.6000   13.5430   82.1320 O.2    86  ILE86      -0.2867
     77  CB        53.4660   16.4270   81.7120 C.3    86  ILE86       0.0252
     78  CG1       53.4760   17.9000   81.3190 C.3    86  ILE86       0.0019
     79  CG2       52.9910   16.3170   83.1490 C.3    86  ILE86       0.0019
     80  CD1       52.1130   18.4590   80.9710 C.3    86  ILE86       0.0001
     81  N         55.2030   12.9950   86.4130 N.3    88  THR88      -0.1203
     82  CA        54.7750   13.0620   87.8010 C.3    88  THR88       0.1994
     83  C         55.1830   11.7780   88.4890 C.2    88  THR88       0.2618
     84  O         55.6850   10.8660   87.8530 O.2    88  THR88      -0.2717
     85  CB        53.2400   13.2110   87.9280 C.3    88  THR88       0.1784
     86  OG1       52.5880   12.0460   87.3930 O.3    88  THR88      -0.2211
     87  CG2       52.7610   14.4610   87.2060 C.3    88  THR88       0.0376
     88  N         54.9560   11.7200   89.7960 N.am   89  GLN89      -0.1965
     89  CA        55.1560   10.5030   90.5380 C.3    89  GLN89       0.1733
     90  C         54.2300    9.4480   89.9620 C.2    89  GLN89       0.2616
     91  O         53.2360    9.7570   89.2810 O.2    89  GLN89      -0.2715
     92  CB        54.8570   10.6990   92.0240 C.3    89  GLN89       0.0408
     93  CG        53.3660   10.7350   92.3590 C.3    89  GLN89       0.0908
     94  CD        53.0610   11.0110   93.8350 C.2    89  GLN89       0.2608
     95  OE1       52.3060   11.9410   94.1760 O.2    89  GLN89      -0.2717
     96  NE2       53.6360   10.2020   94.7150 N.am   89  GLN89      -0.0878
     97  N         54.5880    8.2010   90.2380 N.am   90  TYR90      -0.1960
     98  CA        53.7660    7.0440   89.9100 C.3    90  TYR90       0.1771
     99  C         53.1940    6.5100   91.2180 C.2    90  TYR90       0.2619
    100  O         53.8580    6.5700   92.2570 O.2    90  TYR90      -0.2715
    101  CB        54.5970    5.9680   89.2050 C.3    90  TYR90       0.0574
    102  CG        53.8320    4.7020   88.9080 C.ar   90  TYR90      -0.0198
    103  CD1       52.9220    4.6500   87.8600 C.ar   90  TYR90      -0.0009
    104  CD2       54.0110    3.5570   89.6720 C.ar   90  TYR90      -0.0009
    105  CE1       52.2150    3.4920   87.5790 C.ar   90  TYR90       0.0417
    106  CE2       53.3080    2.3950   89.3960 C.ar   90  TYR90       0.0417
    107  CZ        52.4110    2.3720   88.3500 C.ar   90  TYR90       0.1957
    108  OH        51.7040    1.2310   88.0680 O.3    90  TYR90      -0.2866
    109  N         51.9570    6.0170   91.1640 N.am   91  ILE91      -0.1963
    110  CA        51.3050    5.4460   92.3330 C.3    91  ILE91       0.1727
    111  C         50.7970    4.0480   92.0190 C.2    91  ILE91       0.2616
    112  O         49.9920    3.8630   91.1020 O.2    91  ILE91      -0.2715
    113  CB        50.1720    6.3480   92.8130 C.3    91  ILE91       0.0290
    114  CG1       50.7670    7.7160   93.1650 C.3    91  ILE91       0.0022
    115  CG2       49.4670    5.7030   94.0050 C.3    91  ILE91       0.0023
    116  CD1       49.8280    8.6840   93.8430 C.3    91  ILE91       0.0001
    117  N         51.2690    3.0730   92.7960 N.am   92  SER92      -0.1950
    118  CA        51.1130    1.6660   92.4340 C.3    92  SER92       0.1924
    119  C         49.6760    1.1680   92.5390 C.2    92  SER92       0.2314
    120  O         49.2400    0.3530   91.7290 O.2    92  SER92      -0.2863
    121  CB        52.0400    0.7770   93.2770 C.3    92  SER92       0.2116
    122  OG        51.4530    0.4000   94.5140 O.3    92  SER92      -0.2180
    123  N         46.8840    2.1600   91.7030 N.3    94  GLY94      -0.1210
    124  CA        46.0120    2.3210   90.5390 C.3    94  GLY94       0.1956
    125  C         44.8390    3.2480   90.7760 C.2    94  GLY94       0.2612
    126  O         44.7330    3.8630   91.8420 O.2    94  GLY94      -0.2717
    127  N         43.9560    3.3490   89.7790 N.am   95  SER95      -0.1952
    128  CA        42.8460    4.2930   89.8540 C.3    95  SER95       0.1924
    129  C         41.7510    3.7740   90.7730 C.2    95  SER95       0.2314
    130  O         41.5900    2.5620   90.9650 O.2    95  SER95      -0.2863
    131  CB        42.2750    4.6190   88.4700 C.3    95  SER95       0.2116
    132  OG        41.3360    3.6510   88.0360 O.3    95  SER95      -0.2180
    133  N         38.7070    7.9650   87.7520 N.3   141  HIS141     -0.1226
    134  CA        39.9420    7.6690   87.0040 C.3   141  HIS141      0.1752
    135  C         41.1220    8.5090   87.4810 C.2   141  HIS141      0.2596
    136  O         42.2850    8.0560   87.4660 O.2   141  HIS141     -0.2718
    137  CB        39.7720    7.9260   85.5060 C.3   141  HIS141      0.0759
    138  CG        38.8080    7.0010   84.8360 C.ar  141  HIS141      0.0818
    139  ND1       37.5770    7.4180   84.3750 N.ar  141  HIS141     -0.2268
    140  CD2       38.8920    5.6830   84.5500 C.ar  141  HIS141      0.1154
    141  CE1       36.9430    6.3980   83.8330 C.ar  141  HIS141      0.1986
    142  NE2       37.7140    5.3320   83.9380 N.ar  141  HIS141     -0.2212
    143  N         40.8090    9.7410   87.8790 N.am  142  ASN142     -0.1974
    144  CA        41.8040   10.7010   88.3310 C.3   142  ASN142      0.1688
    145  C         41.9490   10.7770   89.8540 C.2   142  ASN142      0.2292
    146  O         42.4790   11.7600   90.3890 O.2   142  ASN142     -0.2864
    147  CB        41.4490   12.0610   87.7700 C.3   142  ASN142      0.1181
    148  CG        41.4100   12.0680   86.2520 C.2   142  ASN142      0.2629
    149  OD1       42.1780   11.3570   85.5770 O.2   142  ASN142     -0.2716
    150  ND2       40.5200   12.8900   85.6980 N.am  142  ASN142     -0.0877
    151  N         43.9150    8.4070   92.3610 N.3   144  LEU144     -0.1245
    152  CA        44.8690    7.3190   92.3960 C.3   144  LEU144      0.1561
    153  C         45.1380    6.9350   93.8270 C.2   144  LEU144      0.2260
    154  O         45.0510    7.7700   94.7240 O.2   144  LEU144     -0.2867
    155  CB        46.1600    7.7580   91.7220 C.3   144  LEU144      0.0270
    156  CG        45.9290    8.3720   90.3450 C.3   144  LEU144      0.0019
    157  CD1       47.2440    8.8470   89.7610 C.3   144  LEU144      0.0001
    158  CD2       45.2600    7.3690   89.4100 C.3   144  LEU144      0.0001
    159  N         44.8860   13.5950   90.4950 N.3   154  ALA154     -0.1231
    160  CA        45.8420   13.5580   89.3970 C.3   154  ALA154      0.1694
    161  C         45.2900   14.2210   88.1550 C.2   154  ALA154      0.2592
    162  O         44.1410   14.6230   88.1210 O.2   154  ALA154     -0.2718
    163  CB        46.1980   12.1070   89.0940 C.3   154  ALA154      0.0304
    164  N         46.1270   14.3160   87.1340 N.am  155  ASP155     -0.1960
    165  CA        45.7410   14.8230   85.8110 C.3   155  ASP155      0.1840
    166  C         45.1390   16.2400   85.7660 C.2   155  ASP155      0.2622
    167  O         43.9230   16.4370   85.8760 O.2   155  ASP155     -0.2715
    168  CB        44.8090   13.8530   85.0880 C.3   155  ASP155      0.1450
    169  CG        44.7870   14.0950   83.5800 C.2   155  ASP155      0.3671
    170  OD1       45.3720   15.1060   83.1270 O.co2 155  ASP155     -0.2456
    171  OD2       44.1980   13.2710   82.8500 O.co2 155  ASP155     -0.2456
    172  N         46.0100   17.2080   85.5180 N.am  156  PHE156     -0.1974
    173  CA        45.6180   18.5960   85.4930 C.3   156  PHE156      0.1639
    174  C         45.4540   19.1540   84.0820 C.2   156  PHE156      0.2290
    175  O         45.4250   20.3870   83.8810 O.2   156  PHE156     -0.2864
    176  CB        46.5900   19.3910   86.3590 C.3   156  PHE156      0.0560
    177  CG        46.3460   19.1790   87.8190 C.ar  156  PHE156     -0.0200
    178  CD1       46.7640   18.0240   88.4290 C.ar  156  PHE156     -0.0042
    179  CD2       45.6140   20.1000   88.5570 C.ar  156  PHE156     -0.0042
    180  CE1       46.5040   17.8040   89.7700 C.ar  156  PHE156     -0.0003
    181  CE2       45.3450   19.8850   89.8880 C.ar  156  PHE156     -0.0003
    182  CZ        45.7880   18.7280   90.4960 C.ar  156  PHE156     -0.0000
@<TRIPOS>BOND
     1    18    17    1
     2    17    14    1
     3    15    14    1
     4    15    16    2
     5    14    13    1
     6    12    11    2
     7    13    11   am
     8    19    20    1
     9    11    10    1
    10    41    42    2
    11    41    40    1
    12    44    45    1
    13    44    43    1
    14    20    21    1
    15    20    23    1
    16    21    22    2
    17    45    46    1
    18    40    43    1
    19    40    39    1
    20    10     9    1
    21    37    35    1
    22    73    74    1
    23     9     3   am
    24     1     2    1
    25    34    33    2
    26    25    23    1
    27    55    54   ar
    28    23    24    1
    29    46    47    1
    30    39    33   am
    31    35    36    1
    32    35    32    1
    33    80    78    1
    34    33    32    1
    35     3     2    1
    36     3     4    2
    37     2     5    1
    38    78    77    1
    39    48    49    1
    40    74    77    1
    41    74    75    1
    42    52    49    1
    43    52    53    1
    44    36    38    1
    45    54    56   ar
    46    54    53    1
    47    77    79    1
    48    32    31    1
    49    76    75    2
    50    49    50    1
    51     5     6    1
    52     5     7    1
    53     6     8    1
    54   171   169   ar
    55    31    28   am
    56   170   169   ar
    57    50    51    2
    58   169   168    1
    59   141   142   ar
    60   141   139   ar
    61   175   174    2
    62   142   140   ar
    63   174   173    1
    64    28    29    2
    65    28    27    1
    66   139   138   ar
    67   140   138   ar
    68   138   137    1
    69   168   165    1
    70    27    30    1
    71    27    26    1
    72    63    62    1
    73   173   172    1
    74   173   176    1
    75   137   134    1
    76   172   166   am
    77   149   148    2
    78   150   148   am
    79   166   165    1
    80   166   167    2
    81   165   164    1
    82   148   147    1
    83   176   177    1
    84    81    82    1
    85    62    61    1
    86    62    64    1
    87   134   135    1
    88   134   133    1
    89    61    58    1
    90   164   161   am
    91    57    58    1
    92    87    85    1
    93    86    85    1
    94   136   135    2
    95   135   143   am
    96   105   103   ar
    97   105   107   ar
    98   147   144    1
    99    82    85    1
   100    82    83    1
   101   177   178   ar
   102   177   179   ar
   103    84    83    2
   104   103   102   ar
   105   143   144    1
   106    58    59    1
   107   132   131    1
   108   108   107    1
   109   162   161    2
   110   161   160    1
   111   144   145    1
   112   107   106   ar
   113   178   180   ar
   114   131   128    1
   115    83    88   am
   116   179   181   ar
   117    59    60    2
   118   102   101    1
   119   102   104   ar
   120   163   160    1
   121   101    98    1
   122    91    90    2
   123   106   104   ar
   124   160   159    1
   125   158   156    1
   126   157   156    1
   127   180   182   ar
   128   127   128    1
   129   127   125   am
   130    88    89    1
   131   128   129    1
   132   145   146    2
   133   181   182   ar
   134    98    97    1
   135    98    99    1
   136    90    97   am
   137    90    89    1
   138    71    69    1
   139   156   155    1
   140    70    69    1
   141    70    72    1
   142    89    92    1
   143   124   125    1
   144   124   123    1
   145   129   130    2
   146   125   126    2
   147    69    66    1
   148   112   111    2
   149   109    99   am
   150   109   110    1
   151    99   100    2
   152   155   152    1
   153   120   119    2
   154   111   110    1
   155   111   117   am
   156    92    93    1
   157    68    67    2
   158   110   113    1
   159    93    94    1
   160   151   152    1
   161   152   153    1
   162    66    67    1
   163    66    65    1
   164   118   119    1
   165   118   117    1
   166   118   121    1
   167   113   114    1
   168   113   115    1
   169   114   116    1
   170   121   122    1
   171   153   154    2
   172    94    95    2
   173    94    96   am
