@<TRIPOS>MOLECULE
tmp/4yfiC00.pdb
 187 178 0 0 0
SMALL
GASTEIGER

@<TRIPOS>ATOM
      1  N        -48.0950   24.9590  -17.3520 N.3    29  ILE29      -0.1231
      2  CA       -47.2680   24.9500  -16.1340 C.3    29  ILE29       0.1692
      3  C        -46.1940   23.8520  -16.1360 C.2    29  ILE29       0.2593
      4  O        -45.3290   23.8320  -15.2680 O.2    29  ILE29      -0.2718
      5  CB       -48.1230   24.7900  -14.8520 C.3    29  ILE29       0.0266
      6  CG1      -49.0710   23.5900  -14.9830 C.3    29  ILE29       0.0019
      7  CG2      -48.8970   26.0680  -14.5540 C.3    29  ILE29       0.0020
      8  CD1      -49.5080   23.0090  -13.6600 C.3    29  ILE29       0.0001
      9  N        -46.2660   22.9380  -17.1020 N.am   30  GLY30      -0.1942
     10  CA       -45.2880   21.8610  -17.2500 C.3    30  GLY30       0.2014
     11  C        -45.1800   21.4600  -18.7100 C.2    30  GLY30       0.2639
     12  O        -46.0190   21.8440  -19.5360 O.2    30  GLY30      -0.2714
     13  N        -44.1410   20.6980  -19.0370 N.am   31  SER31      -0.1949
     14  CA       -43.9560   20.2060  -20.4070 C.3    31  SER31       0.1924
     15  C        -43.3070   18.8190  -20.4220 C.2    31  SER31       0.2314
     16  O        -43.1240   18.2040  -19.3660 O.2    31  SER31      -0.2863
     17  CB       -43.1280   21.1970  -21.2240 C.3    31  SER31       0.2116
     18  OG       -43.2430   20.8930  -22.5980 O.3    31  SER31      -0.2180
     19  N        -43.9000   13.3560  -23.4030 N.3    34  PHE34      -0.1241
     20  CA       -45.2520   12.7970  -23.2240 C.3    34  PHE34       0.1605
     21  C        -46.3940   13.6970  -23.7330 C.2    34  PHE34       0.2264
     22  O        -47.3520   13.2160  -24.3450 O.2    34  PHE34      -0.2867
     23  CB       -45.4970   12.4180  -21.7350 C.3    34  PHE34       0.0534
     24  CG       -45.1060   13.4970  -20.7200 C.ar   34  PHE34      -0.0203
     25  CD1      -45.8340   14.6910  -20.6020 C.ar   34  PHE34      -0.0042
     26  CD2      -44.0290   13.2930  -19.8430 C.ar   34  PHE34      -0.0042
     27  CE1      -45.4770   15.6620  -19.6710 C.ar   34  PHE34      -0.0003
     28  CE2      -43.6730   14.2640  -18.9080 C.ar   34  PHE34      -0.0003
     29  CZ       -44.3980   15.4470  -18.8220 C.ar   34  PHE34      -0.0000
     30  N        -48.6030   19.9560  -19.4410 N.3    37  VAL37      -0.1245
     31  CA       -49.3800   20.0740  -18.2240 C.3    37  VAL37       0.1561
     32  C        -49.9220   21.4910  -18.1160 C.2    37  VAL37       0.2260
     33  O        -49.1780   22.4570  -18.2930 O.2    37  VAL37      -0.2867
     34  CB       -48.5590   19.6790  -16.9860 C.3    37  VAL37       0.0252
     35  CG1      -49.4090   19.7180  -15.7310 C.3    37  VAL37       0.0019
     36  CG2      -48.0150   18.2790  -17.1650 C.3    37  VAL37       0.0019
     37  N        -54.9910   20.5320  -12.2020 N.3    48  ALA48      -0.1231
     38  CA       -53.8540   20.4540  -13.1080 C.3    48  ALA48       0.1694
     39  C        -54.1210   19.3410  -14.0970 C.2    48  ALA48       0.2592
     40  O        -54.4620   18.2280  -13.6940 O.2    48  ALA48      -0.2718
     41  CB       -52.5830   20.1670  -12.3310 C.3    48  ALA48       0.0304
     42  N        -53.9670   19.6240  -15.3860 N.am   49  ILE49      -0.1966
     43  CA       -54.2610   18.6170  -16.4060 C.3    49  ILE49       0.1727
     44  C        -53.0660   18.2850  -17.2810 C.2    49  ILE49       0.2616
     45  O        -52.5870   19.1530  -18.0180 O.2    49  ILE49      -0.2715
     46  CB       -55.4170   19.0320  -17.3410 C.3    49  ILE49       0.0290
     47  CG1      -56.6120   19.5570  -16.5340 C.3    49  ILE49       0.0022
     48  CG2      -55.8350   17.8510  -18.2100 C.3    49  ILE49       0.0023
     49  CD1      -56.6470   21.0710  -16.4320 C.3    49  ILE49       0.0001
     50  N        -52.6120   17.0270  -17.2010 N.am   50  LYS50      -0.1977
     51  CA       -51.6620   16.4820  -18.1650 C.3    50  LYS50       0.1596
     52  C        -52.4240   15.9870  -19.3810 C.2    50  LYS50       0.2287
     53  O        -53.3450   15.1800  -19.2670 O.2    50  LYS50      -0.2864
     54  CB       -50.8410   15.3330  -17.5830 C.3    50  LYS50       0.0298
     55  CG       -49.9110   14.6850  -18.6070 C.3    50  LYS50       0.0038
     56  CD       -49.2100   13.4640  -18.0530 C.3    50  LYS50       0.0206
     57  CE       -48.0760   13.8630  -17.1450 C.3    50  LYS50       0.1093
     58  NZ       -47.3040   12.6880  -16.6630 N.3    50  LYS50      -0.1314
     59  N        -50.0830    4.7230  -16.1730 N.3    62  GLU62      -0.1245
     60  CA       -50.0360    5.9320  -15.3280 C.3    62  GLU62       0.1567
     61  C        -51.3700    6.1140  -14.5760 C.2    62  GLU62       0.2260
     62  O        -51.3990    6.4190  -13.3670 O.2    62  GLU62      -0.2867
     63  CB       -49.6930    7.1850  -16.1640 C.3    62  GLU62       0.0388
     64  CG       -49.5880    8.4680  -15.3440 C.3    62  GLU62       0.1160
     65  CD       -49.0620    9.6890  -16.1100 C.2    62  GLU62       0.3649
     66  OE1      -48.7480    9.5980  -17.3240 O.co2  62  GLU62      -0.2457
     67  OE2      -48.9300   10.7590  -15.4640 O.co2  62  GLU62      -0.2457
     68  N        -51.8000    6.0960  -10.6420 N.3    66  LEU66      -0.1245
     69  CA       -52.4730    7.2310   -9.9910 C.3    66  LEU66       0.1561
     70  C        -53.6670    6.8580   -9.1000 C.2    66  LEU66       0.2260
     71  O        -53.8220    7.3900   -7.9850 O.2    66  LEU66      -0.2867
     72  CB       -52.9210    8.2760  -11.0280 C.3    66  LEU66       0.0270
     73  CG       -51.7570    9.1130  -11.5500 C.3    66  LEU66       0.0019
     74  CD1      -52.1650    9.8780  -12.7950 C.3    66  LEU66       0.0001
     75  CD2      -51.2430   10.0720  -10.4920 C.3    66  LEU66       0.0001
     76  N        -49.4480   13.1980   -4.8620 N.3    75  ILE75      -0.1245
     77  CA       -50.4620   13.9130   -5.6420 C.3    75  ILE75       0.1561
     78  C        -51.8470   13.2370   -5.6200 C.2    75  ILE75       0.2260
     79  O        -51.9660   12.0110   -5.6680 O.2    75  ILE75      -0.2867
     80  CB       -49.9990   14.1280   -7.1120 C.3    75  ILE75       0.0252
     81  CG1      -50.7220   15.3270   -7.7460 C.3    75  ILE75       0.0019
     82  CG2      -50.1630   12.8630   -7.9690 C.3    75  ILE75       0.0019
     83  CD1      -50.3930   16.6550   -7.1070 C.3    75  ILE75       0.0001
     84  N        -54.9930   13.4600  -18.0450 N.3    90  ILE90      -0.1245
     85  CA       -54.9980   13.0870  -16.6370 C.3    90  ILE90       0.1561
     86  C        -55.1860   14.3240  -15.7540 C.2    90  ILE90       0.2260
     87  O        -54.4690   15.3140  -15.9190 O.2    90  ILE90      -0.2867
     88  CB       -53.6870   12.3780  -16.2880 C.3    90  ILE90       0.0252
     89  CG1      -53.7130   10.9530  -16.8540 C.3    90  ILE90       0.0019
     90  CG2      -53.4640   12.3680  -14.7870 C.3    90  ILE90       0.0019
     91  CD1      -52.3350   10.3440  -17.0100 C.3    90  ILE90       0.0001
     92  N        -55.4410   16.0710  -11.8020 N.3    92  THR92      -0.1203
     93  CA       -55.0900   15.9610  -10.3970 C.3    92  THR92       0.1994
     94  C        -55.3680   17.3000   -9.7360 C.2    92  THR92       0.2618
     95  O        -55.6710   18.2800  -10.4130 O.2    92  THR92      -0.2717
     96  CB       -53.5840   15.6780  -10.2100 C.3    92  THR92       0.1784
     97  OG1      -52.8450   16.8470  -10.5960 O.3    92  THR92      -0.2211
     98  CG2      -53.1130   14.4550  -11.0410 C.3    92  THR92       0.0376
     99  N        -55.2240   17.3360   -8.4120 N.am   93  GLN93      -0.1965
    100  CA       -55.2470   18.5950   -7.6660 C.3    93  GLN93       0.1733
    101  C        -54.2840   19.5920   -8.2770 C.2    93  GLN93       0.2616
    102  O        -53.3300   19.1910   -8.9400 O.2    93  GLN93      -0.2715
    103  CB       -54.8760   18.3800   -6.1870 C.3    93  GLN93       0.0408
    104  CG       -53.4850   17.8100   -5.9580 C.3    93  GLN93       0.0908
    105  CD       -53.1300   17.6270   -4.4810 C.2    93  GLN93       0.2608
    106  OE1      -52.7250   16.5370   -4.0670 O.2    93  GLN93      -0.2717
    107  NE2      -53.2420   18.7030   -3.6910 N.am   93  GLN93      -0.0878
    108  N        -54.5550   20.8790   -8.0760 N.am   94  TYR94      -0.1960
    109  CA       -53.5800   21.9440   -8.3470 C.3    94  TYR94       0.1771
    110  C        -53.0830   22.5190   -7.0150 C.2    94  TYR94       0.2619
    111  O        -53.8470   22.6730   -6.0660 O.2    94  TYR94      -0.2715
    112  CB       -54.1950   23.0350   -9.2130 C.3    94  TYR94       0.0574
    113  CG       -53.3300   24.2620   -9.3840 C.ar   94  TYR94      -0.0198
    114  CD1      -52.3930   24.3330  -10.4160 C.ar   94  TYR94      -0.0009
    115  CD2      -53.4500   25.3530   -8.5150 C.ar   94  TYR94      -0.0009
    116  CE1      -51.5930   25.4500  -10.5820 C.ar   94  TYR94       0.0417
    117  CE2      -52.6490   26.4650   -8.6590 C.ar   94  TYR94       0.0417
    118  CZ       -51.7200   26.5120   -9.6930 C.ar   94  TYR94       0.1957
    119  OH       -50.9180   27.6270   -9.8550 O.3    94  TYR94      -0.2866
    120  N        -51.7970   22.8280   -6.9470 N.am   95  ILE95      -0.1977
    121  CA       -51.1810   23.2660   -5.7120 C.3    95  ILE95       0.1596
    122  C        -50.5360   24.5970   -6.0370 C.2    95  ILE95       0.2287
    123  O        -49.6910   24.6870   -6.9350 O.2    95  ILE95      -0.2864
    124  CB       -50.1670   22.2240   -5.2170 C.3    95  ILE95       0.0276
    125  CG1      -50.9210   20.9600   -4.7650 C.3    95  ILE95       0.0022
    126  CG2      -49.3050   22.8060   -4.1040 C.3    95  ILE95       0.0022
    127  CD1      -50.0590   19.7590   -4.4280 C.3    95  ILE95       0.0001
    128  N        -46.5800   26.2900   -6.0490 N.3    98  GLY98      -0.1210
    129  CA       -45.5900   25.9900   -7.0770 C.3    98  GLY98       0.1956
    130  C        -44.6670   24.8180   -6.7660 C.2    98  GLY98       0.2612
    131  O        -44.8190   24.1160   -5.7600 O.2    98  GLY98      -0.2717
    132  N        -43.7210   24.6060   -7.6740 N.am   99  SER99      -0.1952
    133  CA       -42.7530   23.5450   -7.5510 C.3    99  SER99       0.1924
    134  C        -41.6330   24.0050   -6.6270 C.2    99  SER99       0.2314
    135  O        -41.3970   25.2180   -6.4810 O.2    99  SER99      -0.2863
    136  CB       -42.1880   23.1590   -8.9260 C.3    99  SER99       0.2116
    137  OG       -41.3240   24.1510   -9.4350 O.3    99  SER99      -0.2180
    138  N        -38.7000   19.6550   -9.8170 N.3   145  HIS145     -0.1226
    139  CA       -39.8470   20.0680  -10.6290 C.3   145  HIS145      0.1752
    140  C        -41.0650   19.2630  -10.2260 C.2   145  HIS145      0.2596
    141  O        -42.1930   19.7340  -10.3490 O.2   145  HIS145     -0.2718
    142  CB       -39.6040   19.8620  -12.1310 C.3   145  HIS145      0.0759
    143  CG       -38.4260   20.6180  -12.6710 C.ar  145  HIS145      0.0818
    144  ND1      -37.2200   20.0060  -12.9610 N.ar  145  HIS145     -0.2268
    145  CD2      -38.2740   21.9240  -12.9920 C.ar  145  HIS145      0.1154
    146  CE1      -36.3750   20.9060  -13.4310 C.ar  145  HIS145      0.1986
    147  NE2      -36.9870   22.0790  -13.4500 N.ar  145  HIS145     -0.2212
    148  N        -40.8170   18.0500   -9.7350 N.am  146  ASN146     -0.1974
    149  CA       -41.8610   17.0950   -9.3880 C.3   146  ASN146      0.1688
    150  C        -42.1720   17.0250   -7.8870 C.2   146  ASN146      0.2292
    151  O        -42.8290   16.0940   -7.4100 O.2   146  ASN146     -0.2864
    152  CB       -41.4470   15.7270   -9.9280 C.3   146  ASN146      0.1181
    153  CG       -41.4470   15.6920  -11.4530 C.2   146  ASN146      0.2629
    154  OD1      -42.1680   16.4610  -12.1070 O.2   146  ASN146     -0.2716
    155  ND2      -40.6540   14.7770  -12.0310 N.am  146  ASN146     -0.0877
    156  N        -44.1050   19.4310   -5.2090 N.3   148  LEU148     -0.1245
    157  CA       -45.0000   20.5860   -5.2350 C.3   148  LEU148      0.1561
    158  C        -45.2360   21.0740   -3.8240 C.2   148  LEU148      0.2260
    159  O        -45.2120   20.2790   -2.8760 O.2   148  LEU148     -0.2867
    160  CB       -46.3180   20.2090   -5.8930 C.3   148  LEU148      0.0270
    161  CG       -46.1970   19.5360   -7.2660 C.3   148  LEU148      0.0019
    162  CD1      -47.5920   19.3390   -7.8720 C.3   148  LEU148      0.0001
    163  CD2      -45.3110   20.3400   -8.2120 C.3   148  LEU148      0.0001
    164  N        -45.1510   14.7420   -7.1100 N.3   158  ALA158     -0.1231
    165  CA       -46.0440   14.8220   -8.2860 C.3   158  ALA158      0.1694
    166  C        -45.4820   14.1160   -9.5380 C.2   158  ALA158      0.2592
    167  O        -44.3270   13.6950   -9.5630 O.2   158  ALA158     -0.2718
    168  CB       -46.3810   16.2810   -8.5840 C.3   158  ALA158      0.0304
    169  N        -46.3410   13.9870  -10.5540 N.am  159  ASP159     -0.1960
    170  CA       -45.9680   13.4690  -11.8710 C.3   159  ASP159      0.1840
    171  C        -45.4790   12.0180  -11.8450 C.2   159  ASP159      0.2622
    172  O        -44.2970   11.7590  -11.6550 O.2   159  ASP159     -0.2715
    173  CB       -44.8970   14.3460  -12.5320 C.3   159  ASP159      0.1450
    174  CG       -44.7280   14.0280  -13.9920 C.2   159  ASP159      0.3671
    175  OD1      -45.2480   12.9720  -14.4220 O.co2 159  ASP159     -0.2456
    176  OD2      -44.0920   14.8400  -14.7030 O.co2 159  ASP159     -0.2456
    177  N        -46.3980   11.0920  -12.0950 N.am  160  PHE160     -0.1974
    178  CA       -46.1030    9.6600  -12.0650 C.3   160  PHE160      0.1639
    179  C        -45.9460    9.0550  -13.4730 C.2   160  PHE160      0.2290
    180  O        -45.9930    7.8310  -13.6490 O.2   160  PHE160     -0.2864
    181  CB       -47.1770    8.9410  -11.2210 C.3   160  PHE160      0.0560
    182  CG       -46.9940    9.1530   -9.7550 C.ar  160  PHE160     -0.0200
    183  CD1      -47.2110   10.4070   -9.1960 C.ar  160  PHE160     -0.0042
    184  CD2      -46.5210    8.1330   -8.9500 C.ar  160  PHE160     -0.0042
    185  CE1      -46.9850   10.6250   -7.8530 C.ar  160  PHE160     -0.0003
    186  CE2      -46.3010    8.3370   -7.6140 C.ar  160  PHE160     -0.0003
    187  CZ       -46.5310    9.5780   -7.0600 C.ar  160  PHE160     -0.0000
@<TRIPOS>BOND
     1    22    21    2
     2    21    20    1
     3    19    20    1
     4    20    23    1
     5    18    17    1
     6    23    24    1
     7    17    14    1
     8    24    25   ar
     9    24    26   ar
    10    25    27   ar
    11    15    14    1
    12    15    16    2
    13    14    13    1
    14    26    28   ar
    15    27    29   ar
    16    12    11    2
    17    30    31    1
    18    52    53    2
    19    52    51    1
    20    13    11   am
    21    28    29   ar
    22    11    10    1
    23    55    56    1
    24    55    54    1
    25    33    32    2
    26    31    32    1
    27    31    34    1
    28    48    46    1
    29    51    54    1
    30    51    50    1
    31    56    57    1
    32    84    85    1
    33    45    44    2
    34     1     2    1
    35    46    47    1
    36    46    43    1
    37    66    65   ar
    38    44    50   am
    39    44    43    1
    40    10     9    1
    41    36    34    1
    42    57    58    1
    43     9     3   am
    44    91    89    1
    45    34    35    1
    46    89    88    1
    47    85    88    1
    48    85    86    1
    49    47    49    1
    50    43    42    1
    51    88    90    1
    52    59    60    1
    53    63    64    1
    54    63    60    1
    55     3     2    1
    56     3     4    2
    57     2     5    1
    58    65    67   ar
    59    65    64    1
    60    87    86    2
    61    42    39   am
    62    60    61    1
    63     6     5    1
    64     6     8    1
    65     5     7    1
    66   176   174   ar
    67    61    62    2
    68   175   174   ar
    69    39    40    2
    70    39    38    1
    71   174   173    1
    72   180   179    2
    73   179   178    1
    74   147   146   ar
    75   147   145   ar
    76   146   144   ar
    77    38    41    1
    78    38    37    1
    79   145   143   ar
    80   144   143   ar
    81    74    73    1
    82   143   142    1
    83   173   170    1
    84   142   139    1
    85   154   153    2
    86   177   178    1
    87   177   171   am
    88   178   181    1
    89   155   153   am
    90   170   171    1
    91   170   169    1
    92   171   172    2
    93    92    93    1
    94    73    72    1
    95    73    75    1
    96   153   152    1
    97   181   182    1
    98    98    96    1
    99    72    69    1
   100    68    69    1
   101   139   140    1
   102   139   138    1
   103    97    96    1
   104   116   114   ar
   105   116   118   ar
   106   169   166   am
   107   114   113   ar
   108    95    94    2
   109    93    96    1
   110    93    94    1
   111   141   140    2
   112   140   148   am
   113    69    70    1
   114   152   149    1
   115   119   118    1
   116   182   183   ar
   117   182   184   ar
   118    94    99   am
   119   148   149    1
   120   118   117   ar
   121   167   166    2
   122   166   165    1
   123   137   136    1
   124   149   150    1
   125   113   112    1
   126   113   115   ar
   127   112   109    1
   128   183   185   ar
   129    70    71    2
   130   184   186   ar
   131   102   101    2
   132   136   133    1
   133   117   115   ar
   134   168   165    1
   135    99   100    1
   136   109   108    1
   137   109   110    1
   138   165   164    1
   139   101   108   am
   140   101   100    1
   141   163   161    1
   142    82    80    1
   143   150   151    2
   144   162   161    1
   145   185   187   ar
   146    81    80    1
   147    81    83    1
   148   132   133    1
   149   132   130   am
   150   100   103    1
   151   186   187   ar
   152   133   134    1
   153   161   160    1
   154    80    77    1
   155   129   130    1
   156   129   128    1
   157   110   120   am
   158   110   111    2
   159   120   121    1
   160   123   122    2
   161   130   131    2
   162   134   135    2
   163   103   104    1
   164   122   121    1
   165   104   105    1
   166   160   157    1
   167   121   124    1
   168    79    78    2
   169    77    78    1
   170    77    76    1
   171   157   156    1
   172   157   158    1
   173   124   125    1
   174   124   126    1
   175   125   127    1
   176   105   106    2
   177   105   107   am
   178   158   159    2
