@<TRIPOS>MOLECULE
tmp/4yfuA02.pdb
 105 100 0 0 0
SMALL
GASTEIGER

@<TRIPOS>ATOM
      1  N        123.9430  -33.5050   30.8880 N.3   317  ARG317     -0.1245
      2  CA       123.8760  -33.9190   32.3170 C.3   317  ARG317      0.1563
      3  C        123.1320  -35.2520   32.4950 C.2   317  ARG317      0.2260
      4  O        122.3150  -35.6370   31.6800 O.2   317  ARG317     -0.2867
      5  CB       123.1790  -32.8150   33.1180 C.3   317  ARG317      0.0307
      6  CG       124.0140  -31.6300   33.3730 C.3   317  ARG317      0.0489
      7  CD       123.3330  -30.8260   34.4540 C.3   317  ARG317      0.2205
      8  NE       124.1980  -29.7120   34.8980 N.pl3 317  ARG317     -0.0865
      9  CZ       123.7320  -28.8440   35.7890 C.cat 317  ARG317      0.5346
     10  NH1      122.5620  -28.9430   36.3320 N.pl3 317  ARG317      0.1354
     11  NH2      124.4920  -27.8140   36.1410 N.pl3 317  ARG317      0.1354
     12  N        119.8010  -36.2150   43.5460 N.3   326  GLN326     -0.1245
     13  CA       120.6410  -35.0530   43.1950 C.3   326  GLN326      0.1566
     14  C        120.0530  -33.7820   43.6440 C.2   326  GLN326      0.2260
     15  O        120.6090  -32.6980   43.2860 O.2   326  GLN326     -0.2867
     16  CB       120.7360  -34.9700   41.6600 C.3   326  GLN326      0.0367
     17  CG       121.5350  -36.1740   41.0650 C.3   326  GLN326      0.0905
     18  CD       121.6760  -36.0510   39.5550 C.2   326  GLN326      0.2608
     19  OE1      120.7240  -35.8040   38.8390 O.2   326  GLN326     -0.2717
     20  NE2      122.8580  -36.4020   39.0480 N.am  326  GLN326     -0.0878
     21  N        120.5630  -28.8720   51.0930 N.3   330  ILE330     -0.1231
     22  CA       121.7970  -28.4040   51.6770 C.3   330  ILE330      0.1692
     23  C        121.7640  -26.9610   52.2020 C.2   330  ILE330      0.2591
     24  O        122.5760  -26.5900   53.0610 O.2   330  ILE330     -0.2718
     25  CB       123.0030  -28.5780   50.7140 C.3   330  ILE330      0.0266
     26  CG1      124.3400  -28.5350   51.4840 C.3   330  ILE330      0.0019
     27  CG2      122.9700  -27.5590   49.5280 C.3   330  ILE330      0.0020
     28  CD1      125.5100  -29.2300   50.8060 C.3   330  ILE330      0.0001
     29  N        120.9020  -26.1340   51.6340 N.am  331  ARG331     -0.1980
     30  CA       121.1110  -24.6690   51.7880 C.3   331  ARG331      0.1597
     31  C        120.7000  -24.2830   53.2080 C.2   331  ARG331      0.2287
     32  O        121.4180  -23.5400   53.8770 O.2   331  ARG331     -0.2864
     33  CB       120.2520  -23.9060   50.7770 C.3   331  ARG331      0.0334
     34  CG       120.6620  -22.4400   50.5130 C.3   331  ARG331      0.0492
     35  CD       120.6700  -22.1250   48.9970 C.3   331  ARG331      0.2205
     36  NE       121.5910  -23.0380   48.2880 N.pl3 331  ARG331     -0.0865
     37  CZ       121.2730  -23.9030   47.3030 C.cat 331  ARG331      0.5346
     38  NH1      120.0300  -24.0180   46.7890 N.pl3 331  ARG331      0.1354
     39  NH2      122.2300  -24.6750   46.8140 N.pl3 331  ARG331      0.1354
     40  N        120.6900  -35.1190   55.3530 N.3   339  ARG339     -0.1245
     41  CA       121.9320  -35.8220   54.9560 C.3   339  ARG339      0.1563
     42  C        122.5500  -36.7340   56.0270 C.2   339  ARG339      0.2260
     43  O        123.3520  -37.5990   55.6890 O.2   339  ARG339     -0.2867
     44  CB       122.9830  -34.8440   54.3890 C.3   339  ARG339      0.0307
     45  CG       122.4820  -34.1810   53.1100 C.3   339  ARG339      0.0489
     46  CD       123.5710  -33.2060   52.6110 C.3   339  ARG339      0.2205
     47  NE       122.9750  -32.5650   51.3690 N.pl3 339  ARG339     -0.0865
     48  CZ       123.6340  -32.5090   50.2010 C.cat 339  ARG339      0.5346
     49  NH1      124.8990  -32.8070   50.1720 N.pl3 339  ARG339      0.1354
     50  NH2      123.0960  -32.0110   49.1070 N.pl3 339  ARG339      0.1354
     51  N        131.5970  -24.4570   36.2460 N.3   360  GLU360     -0.1245
     52  CA       130.9870  -23.7570   35.0680 C.3   360  GLU360      0.1567
     53  C        131.6870  -22.4060   34.8020 C.2   360  GLU360      0.2260
     54  O        131.8690  -21.9990   33.6640 O.2   360  GLU360     -0.2867
     55  CB       129.4390  -23.5910   35.2480 C.3   360  GLU360      0.0388
     56  CG       128.7790  -24.9810   35.2190 C.3   360  GLU360      0.1160
     57  CD       127.2620  -25.0670   35.0700 C.2   360  GLU360      0.3649
     58  OE1      126.8040  -26.1070   34.4920 O.co2 360  GLU360     -0.2457
     59  OE2      126.5920  -24.1830   35.6250 O.co2 360  GLU360     -0.2457
     60  N        123.9810  -18.0720   32.8030 N.3   416  TYR416     -0.1241
     61  CA       122.6140  -18.4230   32.3550 C.3   416  TYR416      0.1605
     62  C        121.9700  -17.4330   31.4380 C.2   416  TYR416      0.2264
     63  O        120.7540  -17.5890   31.1380 O.2   416  TYR416     -0.2867
     64  CB       121.7030  -18.6730   33.6090 C.3   416  TYR416      0.0534
     65  CG       122.2130  -19.6220   34.6550 C.ar  416  TYR416     -0.0201
     66  CD1      123.1540  -20.5990   34.3310 C.ar  416  TYR416     -0.0009
     67  CD2      121.7010  -19.6240   35.9490 C.ar  416  TYR416     -0.0009
     68  CE1      123.6040  -21.5230   35.2840 C.ar  416  TYR416      0.0417
     69  CE2      122.1450  -20.5090   36.8810 C.ar  416  TYR416      0.0417
     70  CZ       123.0800  -21.4600   36.5460 C.ar  416  TYR416      0.1957
     71  OH       123.5440  -22.3160   37.4660 O.3   416  TYR416     -0.2866
     72  N        126.3710  -35.7750   41.5620 N.3   530  VAL530     -0.1231
     73  CA       125.4160  -34.6260   41.7420 C.3   530  VAL530      0.1692
     74  C        125.9390  -33.4790   40.9030 C.2   530  VAL530      0.2592
     75  O        126.2890  -32.3920   41.3540 O.2   530  VAL530     -0.2718
     76  CB       125.2100  -34.2300   43.2100 C.3   530  VAL530      0.0266
     77  CG1      124.0300  -33.2760   43.2400 C.3   530  VAL530      0.0020
     78  CG2      124.8070  -35.4760   44.0540 C.3   530  VAL530      0.0020
     79  N        126.0480  -33.7640   39.5780 N.am  531  HIS531     -0.1962
     80  CA       126.4130  -32.7320   38.5500 C.3   531  HIS531      0.1787
     81  C        127.8220  -32.2530   38.5220 C.2   531  HIS531      0.2620
     82  O        128.4850  -32.4110   37.4620 O.2   531  HIS531     -0.2715
     83  CB       125.4190  -31.5210   38.4860 C.3   531  HIS531      0.0785
     84  CG       124.0120  -31.9600   38.4790 C.ar  531  HIS531      0.0821
     85  ND1      123.5110  -32.8280   37.5260 N.ar  531  HIS531     -0.2267
     86  CD2      122.9750  -31.6470   39.2920 C.ar  531  HIS531      0.1154
     87  CE1      122.2390  -33.0350   37.7600 C.ar  531  HIS531      0.1986
     88  NE2      121.8780  -32.3630   38.8220 N.ar  531  HIS531     -0.2212
     89  N        128.3420  -31.8050   39.6760 N.am  532  ASP532     -0.1957
     90  CA       129.7270  -31.3820   39.7490 C.3   532  ASP532      0.1840
     91  C        130.3850  -32.0440   40.9640 C.2   532  ASP532      0.2621
     92  O        131.3660  -31.5200   41.3930 O.2   532  ASP532     -0.2715
     93  CB       129.9110  -29.8390   39.7570 C.3   532  ASP532      0.1450
     94  CG       129.1540  -29.1340   40.8350 C.2   532  ASP532      0.3671
     95  OD1      128.6480  -29.8620   41.7260 O.co2 532  ASP532     -0.2456
     96  OD2      129.0080  -27.8300   40.7580 O.co2 532  ASP532     -0.2456
     97  N        129.7330  -33.0210   41.5360 N.am  533  GLU533     -0.1977
     98  CA       130.2680  -33.6680   42.7680 C.3   533  GLU533      0.1602
     99  C        130.1730  -35.1500   42.5830 C.2   533  GLU533      0.2287
    100  O        129.2140  -35.6740   41.9710 O.2   533  GLU533     -0.2864
    101  CB       129.3370  -33.4050   43.9950 C.3   533  GLU533      0.0415
    102  CG       128.9870  -31.9990   44.3030 C.3   533  GLU533      0.1163
    103  CD       128.0480  -31.8400   45.5130 C.2   533  GLU533      0.3649
    104  OE1      127.2140  -32.7120   45.8780 O.co2 533  GLU533     -0.2457
    105  OE2      128.0880  -30.7180   46.0270 O.co2 533  GLU533     -0.2457
@<TRIPOS>BOND
     1     1     2    1
     2    63    62    2
     3    62    61    1
     4     4     3    2
     5     2     3    1
     6     2     5    1
     7    61    60    1
     8    61    64    1
     9     5     6    1
    10     6     7    1
    11    64    65    1
    12    54    53    2
    13    66    65   ar
    14    66    68   ar
    15     7     8    1
    16    58    57   ar
    17    65    67   ar
    18    53    52    1
    19     8     9    2
    20    52    55    1
    21    52    51    1
    22    57    56    1
    23    57    59   ar
    24    56    55    1
    25    68    70   ar
    26     9    11    1
    27     9    10    1
    28    67    69   ar
    29    70    69   ar
    30    70    71    1
    31    82    81    2
    32    85    87   ar
    33    85    84   ar
    34    87    88   ar
    35    84    83    1
    36    84    86   ar
    37    83    80    1
    38    81    80    1
    39    81    89   am
    40    80    79    1
    41    88    86   ar
    42    19    18    2
    43    20    18   am
    44    18    17    1
    45    79    74   am
    46    89    90    1
    47    90    93    1
    48    90    91    1
    49    93    94    1
    50    96    94   ar
    51    94    95   ar
    52    74    75    2
    53    74    73    1
    54    91    92    2
    55    91    97   am
    56    17    16    1
    57    97    98    1
    58    72    73    1
    59    16    13    1
    60    73    76    1
    61   100    99    2
    62    99    98    1
    63    98   101    1
    64    13    12    1
    65    13    14    1
    66    76    77    1
    67    76    78    1
    68    15    14    2
    69   101   102    1
    70   102   103    1
    71   103   104   ar
    72   103   105   ar
    73    38    37    1
    74    39    37    1
    75    37    36    2
    76    36    35    1
    77    35    34    1
    78    50    48    1
    79    27    25    1
    80    49    48    1
    81    48    47    2
    82    34    33    1
    83    25    26    1
    84    25    22    1
    85    33    30    1
    86    28    26    1
    87    21    22    1
    88    47    46    1
    89    29    30    1
    90    29    23   am
    91    22    23    1
    92    30    31    1
    93    23    24    2
    94    46    45    1
    95    45    44    1
    96    31    32    2
    97    44    41    1
    98    41    40    1
    99    41    42    1
   100    43    42    2
