@<TRIPOS>MOLECULE
tmp/4yfyA00.pdb
 186 186 0 0 0
SMALL
GASTEIGER

@<TRIPOS>ATOM
      1  N         36.1280   34.7510   93.5790 N.3     9  ASP9       -0.1225
      2  CA        35.2460   35.6060   92.8460 C.3     9  ASP9        0.1805
      3  C         35.2170   35.3060   91.3410 C.2     9  ASP9        0.2597
      4  O         34.7780   36.1440   90.5540 O.2     9  ASP9       -0.2718
      5  CB        35.6550   37.0500   93.1720 C.3     9  ASP9        0.1424
      6  CG        35.3310   37.4080   94.6110 C.2     9  ASP9        0.3668
      7  OD1       34.1090   37.3830   94.9590 O.co2   9  ASP9       -0.2456
      8  OD2       36.2720   37.7030   95.3750 O.co2   9  ASP9       -0.2456
      9  N         35.5690   34.0940   90.9260 N.am   10  ASN10      -0.1974
     10  CA        35.6010   33.7810   89.4940 C.3    10  ASN10       0.1688
     11  C         34.7290   32.5680   89.2490 C.2    10  ASN10       0.2292
     12  O         35.0440   31.4880   89.7350 O.2    10  ASN10      -0.2864
     13  CB        37.0430   33.5000   89.0480 C.3    10  ASN10       0.1181
     14  CG        37.1360   33.3100   87.5440 C.2    10  ASN10       0.2629
     15  OD1       36.8860   32.2280   87.0480 O.2    10  ASN10      -0.2716
     16  ND2       37.5210   34.3550   86.8220 N.am   10  ASN10      -0.0877
     17  N         41.1700   33.6630   92.5460 N.3    75  HIS75      -0.1226
     18  CA        40.8250   34.9620   91.9980 C.3    75  HIS75       0.1752
     19  C         39.9550   35.6570   93.0280 C.2    75  HIS75       0.2596
     20  O         38.8070   36.0880   92.7380 O.2    75  HIS75      -0.2718
     21  CB        40.0730   34.7640   90.6990 C.3    75  HIS75       0.0759
     22  CG        40.9340   34.3710   89.5450 C.ar   75  HIS75       0.0818
     23  ND1       40.6950   34.8030   88.2630 N.ar   75  HIS75      -0.2268
     24  CD2       41.9900   33.5300   89.4650 C.ar   75  HIS75       0.1154
     25  CE1       41.5510   34.2290   87.4360 C.ar   75  HIS75       0.1986
     26  NE2       42.3490   33.4530   88.1530 N.ar   75  HIS75      -0.2212
     27  N         40.4290   35.5980   94.2690 N.am   76  CYS76      -0.1956
     28  CA        39.7890   36.3460   95.3940 C.3    76  CYS76       0.1843
     29  C         40.0990   37.8500   95.2650 C.2    76  CYS76       0.2625
     30  O         41.2700   38.2310   95.0940 O.2    76  CYS76      -0.2714
     31  CB        40.3360   35.8350   96.7450 C.3    76  CYS76       0.0997
     32  SG        39.6110   36.6810   98.1510 S.3    76  CYS76      -0.0797
     33  N         39.0830   38.6970   95.4420 N.am   77  LYS77      -0.1977
     34  CA        39.2580   40.1380   95.2570 C.3    77  LYS77       0.1596
     35  C         39.8520   40.8220   96.4980 C.2    77  LYS77       0.2287
     36  O         40.0430   42.0090   96.4390 O.2    77  LYS77      -0.2864
     37  CB        37.9390   40.8400   94.9210 C.3    77  LYS77       0.0298
     38  CG        37.3720   40.6810   93.5250 C.3    77  LYS77       0.0038
     39  CD        35.8900   41.0840   93.5390 C.3    77  LYS77       0.0206
     40  CE        35.2230   40.8810   92.1980 C.3    77  LYS77       0.1093
     41  NZ        35.9680   41.6420   91.1680 N.3    77  LYS77      -0.1314
     42  N         46.8760   30.1020   96.7280 N.3    92  ASN92      -0.1225
     43  CA        46.2960   30.9840   95.7010 C.3    92  ASN92       0.1785
     44  C         46.5090   30.4220   94.3060 C.2    92  ASN92       0.2597
     45  O         47.6180   29.9860   93.9460 O.2    92  ASN92      -0.2718
     46  CB        46.9560   32.3530   95.7730 C.3    92  ASN92       0.1169
     47  CG        46.2970   33.4090   94.8750 C.2    92  ASN92       0.2627
     48  OD1       47.0280   34.1500   94.1890 O.2    92  ASN92      -0.2716
     49  ND2       45.0040   33.5090   94.8780 N.am   92  ASN92      -0.0877
     50  N         45.4510   30.5460   93.5110 N.am   93  ILE93      -0.1966
     51  CA        45.4760   30.2430   92.0980 C.3    93  ILE93       0.1727
     52  C         45.5010   31.5670   91.3190 C.2    93  ILE93       0.2616
     53  O         44.5390   32.3290   91.3620 O.2    93  ILE93      -0.2715
     54  CB        44.2880   29.3550   91.7420 C.3    93  ILE93       0.0290
     55  CG1       44.3630   28.0620   92.5290 C.3    93  ILE93       0.0022
     56  CG2       44.2770   28.9960   90.2600 C.3    93  ILE93       0.0023
     57  CD1       43.0210   27.3830   92.5010 C.3    93  ILE93       0.0001
     58  N         46.6390   31.8940   90.7310 N.am   94  HIS94      -0.1960
     59  CA        46.9840   33.2520   90.2690 C.3    94  HIS94       0.1772
     60  C         47.1350   33.2740   88.7400 C.2    94  HIS94       0.2462
     61  O         47.7780   32.4090   88.1130 O.2    94  HIS94      -0.2730
     62  CB        48.3170   33.6930   90.8910 C.3    94  HIS94       0.0785
     63  CG        48.8860   34.9250   90.2820 C.ar   94  HIS94       0.0821
     64  ND1       48.2480   36.1430   90.4070 N.ar   94  HIS94      -0.2267
     65  CD2       49.9450   35.1500   89.4760 C.ar   94  HIS94       0.1154
     66  CE1       48.9230   37.0760   89.7600 C.ar   94  HIS94       0.1986
     67  NE2       49.9760   36.5050   89.2120 N.ar   94  HIS94      -0.2212
     68  N         46.5370   34.2550   88.0680 N.am   95  PRO95      -0.2727
     69  CA        46.5760   34.1930   86.6040 C.3    95  PRO95       0.1402
     70  C         47.7280   35.0110   86.0380 C.2    95  PRO95       0.2269
     71  O         47.5300   35.9490   85.2820 O.2    95  PRO95      -0.2865
     72  CB        45.2770   34.8610   86.2020 C.3    95  PRO95       0.0296
     73  CG        44.9560   35.8110   87.3060 C.3    95  PRO95       0.0237
     74  CD        45.4330   35.0800   88.5510 C.3    95  PRO95       0.0939
     75  N         50.3600   40.8720   90.8450 N.3   103  GLY103     -0.1210
     76  CA        49.3220   41.8570   91.1040 C.3   103  GLY103      0.1956
     77  C         48.3580   41.8700   89.9530 C.2   103  GLY103      0.2612
     78  O         48.0820   40.8220   89.4200 O.2   103  GLY103     -0.2717
     79  N         47.9410   43.0660   89.5490 N.am  104  TRP104     -0.1962
     80  CA        46.7830   43.2730   88.7000 C.3   104  TRP104      0.1771
     81  C         47.0160   42.9360   87.2140 C.2   104  TRP104      0.2619
     82  O         47.9620   43.3880   86.5640 O.2   104  TRP104     -0.2715
     83  CB        46.2880   44.7220   88.8540 C.3   104  TRP104      0.0590
     84  CG        45.6720   44.9770   90.1690 C.ar  104  TRP104      0.0006
     85  CD1       46.3120   45.3320   91.3380 C.ar  104  TRP104      0.0946
     86  CD2       44.2850   44.8570   90.4890 C.ar  104  TRP104      0.0152
     87  NE1       45.3910   45.4720   92.3540 N.ar  104  TRP104     -0.2442
     88  CE2       44.1420   45.1800   91.8580 C.ar  104  TRP104      0.0810
     89  CE3       43.1350   44.5900   89.7240 C.ar  104  TRP104      0.0012
     90  CZ2       42.8880   45.2020   92.4940 C.ar  104  TRP104      0.0191
     91  CZ3       41.8980   44.5570   90.3620 C.ar  104  TRP104      0.0001
     92  CH2       41.7820   44.8780   91.7360 C.ar  104  TRP104      0.0015
     93  N         46.0980   42.1380   86.7050 N.am  105  PHE105     -0.1974
     94  CA        45.8980   41.8850   85.2710 C.3   105  PHE105      0.1639
     95  C         47.2620   41.4730   84.6300 C.2   105  PHE105      0.2290
     96  O         47.7920   42.1190   83.7280 O.2   105  PHE105     -0.2864
     97  CB        45.2600   43.1210   84.5770 C.3   105  PHE105      0.0560
     98  CG        44.0070   43.6630   85.2370 C.ar  105  PHE105     -0.0200
     99  CD1       43.1340   42.8500   85.9460 C.ar  105  PHE105     -0.0042
    100  CD2       43.6720   45.0160   85.1240 C.ar  105  PHE105     -0.0042
    101  CE1       41.9990   43.3340   86.5710 C.ar  105  PHE105     -0.0003
    102  CE2       42.5380   45.5070   85.7360 C.ar  105  PHE105     -0.0003
    103  CZ        41.6720   44.6580   86.4030 C.ar  105  PHE105     -0.0000
    104  N         48.4900   39.7020   82.3140 N.3   107  GLN107     -0.1231
    105  CA        48.6680   39.6000   80.8860 C.3   107  GLN107      0.1698
    106  C         48.6460   40.9780   80.1810 C.2   107  GLN107      0.2592
    107  O         49.3640   41.1900   79.1960 O.2   107  GLN107     -0.2718
    108  CB        47.6460   38.6410   80.3290 C.3   107  GLN107      0.0381
    109  CG        46.2670   39.2640   80.1150 C.3   107  GLN107      0.0905
    110  CD        45.4600   39.3470   81.4070 C.2   107  GLN107      0.2608
    111  OE1       45.7570   38.6580   82.4380 O.2   107  GLN107     -0.2717
    112  NE2       44.3680   40.1120   81.3230 N.am  107  GLN107     -0.0878
    113  N         47.9500   41.9640   80.7460 N.am  108  VAL108     -0.1980
    114  CA        48.0370   43.3220   80.2470 C.3   108  VAL108      0.1595
    115  C         49.5070   43.7430   80.2450 C.2   108  VAL108      0.2287
    116  O         50.0220   44.1900   79.1950 O.2   108  VAL108     -0.2864
    117  CB        47.2070   44.2610   81.1450 C.3   108  VAL108      0.0276
    118  CG1       47.3610   45.7370   80.7530 C.3   108  VAL108      0.0022
    119  CG2       45.7570   43.8440   81.0190 C.3   108  VAL108      0.0022
    120  N         44.4130   41.2970   75.4640 N.3   147  SER147     -0.1217
    121  CA        44.3370   40.8590   76.8250 C.3   147  SER147      0.1889
    122  C         43.3820   39.7110   77.0230 C.2   147  SER147      0.2288
    123  O         43.6910   38.7340   77.7230 O.2   147  SER147     -0.2866
    124  CB        43.8670   42.0170   77.7040 C.3   147  SER147      0.2089
    125  OG        43.5730   41.6420   79.0190 O.3   147  SER147     -0.2183
    126  N         44.3050   36.0780   78.4830 N.3   151  TYR151     -0.1241
    127  CA        43.5640   35.7370   79.7100 C.3   151  TYR151      0.1605
    128  C         42.8240   34.4090   79.5980 C.2   151  TYR151      0.2264
    129  O         42.9180   33.5350   80.4760 O.2   151  TYR151     -0.2867
    130  CB        42.5860   36.8340   80.0480 C.3   151  TYR151      0.0534
    131  CG        41.7620   36.6060   81.3170 C.ar  151  TYR151     -0.0201
    132  CD1       42.3420   36.7080   82.5800 C.ar  151  TYR151     -0.0009
    133  CD2       40.4270   36.2620   81.2450 C.ar  151  TYR151     -0.0009
    134  CE1       41.5970   36.5370   83.7290 C.ar  151  TYR151      0.0417
    135  CE2       39.6600   36.0890   82.3970 C.ar  151  TYR151      0.0417
    136  CZ        40.2480   36.2180   83.6330 C.ar  151  TYR151      0.1957
    137  OH        39.5740   36.0180   84.8140 O.3   151  TYR151     -0.2866
    138  N         47.5270   50.2790   86.3510 N.3   191  PHE191     -0.1241
    139  CA        46.6580   49.9560   85.2230 C.3   191  PHE191      0.1605
    140  C         45.9580   51.2460   84.7690 C.2   191  PHE191      0.2264
    141  O         45.8790   51.6120   83.5900 O.2   191  PHE191     -0.2867
    142  CB        45.6380   48.8860   85.6240 C.3   191  PHE191      0.0534
    143  CG        44.6870   48.5290   84.5340 C.ar  191  PHE191     -0.0203
    144  CD1       45.0850   47.7750   83.4310 C.ar  191  PHE191     -0.0042
    145  CD2       43.3870   49.0130   84.5780 C.ar  191  PHE191     -0.0042
    146  CE1       44.1810   47.4980   82.4220 C.ar  191  PHE191     -0.0003
    147  CE2       42.4910   48.7360   83.5720 C.ar  191  PHE191     -0.0003
    148  CZ        42.9140   48.0150   82.4780 C.ar  191  PHE191     -0.0000
    149  N         39.8800   44.2350   76.0560 N.3   217  HIS217     -0.1241
    150  CA        39.4110   43.0820   76.8070 C.3   217  HIS217      0.1621
    151  C         37.9040   43.1000   76.8910 C.2   217  HIS217      0.2264
    152  O         37.3290   43.5880   77.8620 O.2   217  HIS217     -0.2867
    153  CB        39.9830   43.0950   78.2110 C.3   217  HIS217      0.0745
    154  CG        39.8100   41.8060   78.9200 C.ar  217  HIS217      0.0817
    155  ND1       40.8830   41.0230   79.2740 N.ar  217  HIS217     -0.2268
    156  CD2       38.7020   41.1590   79.3470 C.ar  217  HIS217      0.1154
    157  CE1       40.4440   39.9370   79.8730 C.ar  217  HIS217      0.1986
    158  NE2       39.1270   39.9960   79.9310 N.ar  217  HIS217     -0.2212
    159  N         35.0270   45.7680   78.7640 N.3   220  PHE220     -0.1227
    160  CA        35.6060   46.7200   79.7070 C.3   220  PHE220      0.1736
    161  C         36.0100   47.9960   79.0110 C.2   220  PHE220      0.2595
    162  O         36.5020   47.9470   77.8960 O.2   220  PHE220     -0.2718
    163  CB        36.8070   46.1560   80.4730 C.3   220  PHE220      0.0547
    164  CG        36.4390   45.0020   81.3550 C.ar  220  PHE220     -0.0202
    165  CD1       36.8020   43.7080   81.0460 C.ar  220  PHE220     -0.0042
    166  CD2       35.7820   45.2460   82.5340 C.ar  220  PHE220     -0.0042
    167  CE1       36.4360   42.6790   81.8990 C.ar  220  PHE220     -0.0003
    168  CE2       35.4550   44.2250   83.4010 C.ar  220  PHE220     -0.0003
    169  CZ        35.7850   42.9470   83.0750 C.ar  220  PHE220     -0.0000
    170  N         35.8090   49.1220   79.6990 N.am  221  LYS221     -0.1966
    171  CA        36.0930   50.4230   79.1210 C.3   221  LYS221      0.1728
    172  C         37.4410   50.7960   79.7020 C.2   221  LYS221      0.2616
    173  O         37.5190   51.1990   80.8770 O.2   221  LYS221     -0.2715
    174  CB        35.0470   51.4430   79.5980 C.3   221  LYS221      0.0311
    175  CG        33.6380   51.1940   79.0820 C.3   221  LYS221      0.0038
    176  CD        33.4010   51.9720   77.8120 C.3   221  LYS221      0.0206
    177  CE        32.4430   51.2460   76.8940 C.3   221  LYS221      0.1093
    178  NZ        32.4050   52.0650   75.6550 N.3   221  LYS221     -0.1314
    179  N         38.5050   50.6290   78.9230 N.am  222  ASN222     -0.1972
    180  CA        39.8350   50.8500   79.5270 C.3   222  ASN222      0.1688
    181  C         40.5330   52.1100   78.9640 C.2   222  ASN222      0.2292
    182  O         40.6420   53.1880   79.6320 O.2   222  ASN222     -0.2864
    183  CB        40.6890   49.6070   79.2900 C.3   222  ASN222      0.1181
    184  CG        40.1990   48.3390   80.0480 C.2   222  ASN222      0.2629
    185  OD1       39.6470   48.3930   81.1250 O.2   222  ASN222     -0.2716
    186  ND2       40.4510   47.1760   79.4500 N.am  222  ASN222     -0.0877
@<TRIPOS>BOND
     1   120   121    1
     2   178   177    1
     3   149   150    1
     4   150   151    1
     5   150   153    1
     6   121   122    1
     7   121   124    1
     8   151   152    2
     9   177   176    1
    10   122   123    2
    11   124   125    1
    12   176   175    1
    13   162   161    2
    14   153   154    1
    15   126   127    1
    16   159   160    1
    17   154   155   ar
    18   154   156   ar
    19   179   180    1
    20   179   172   am
    21   181   180    1
    22   181   182    2
    23   161   170   am
    24   161   160    1
    25   175   174    1
    26   171   174    1
    27   171   170    1
    28   171   172    1
    29   116   115    2
    30   107   106    2
    31   155   157   ar
    32   183   180    1
    33   183   184    1
    34   156   158   ar
    35   186   184   am
    36   128   127    1
    37   128   129    2
    38   172   173    2
    39   160   163    1
    40   127   130    1
    41   157   158   ar
    42   184   185    2
    43   130   131    1
    44   109   108    1
    45   109   110    1
    46   106   113   am
    47   106   105    1
    48   115   114    1
    49   114   113    1
    50   114   117    1
    51   108   105    1
    52   163   164    1
    53   118   117    1
    54   105   104    1
    55   119   117    1
    56   165   164   ar
    57   165   167   ar
    58   133   131   ar
    59   133   135   ar
    60   131   132   ar
    61   112   110   am
    62   164   166   ar
    63   110   111    2
    64   167   169   ar
    65   135   136   ar
    66   146   148   ar
    67   146   144   ar
    68   148   147   ar
    69   166   168   ar
    70   132   134   ar
    71   169   168   ar
    72   144   143   ar
    73   147   145   ar
    74   141   140    2
    75   136   134   ar
    76   136   137    1
    77    96    95    2
    78   143   145   ar
    79   143   142    1
    80    97    98    1
    81    97    94    1
    82    95    94    1
    83   140   139    1
    84   100    98   ar
    85   100   102   ar
    86   139   142    1
    87   139   138    1
    88    98    99   ar
    89    94    93    1
    90    71    70    2
    91   102   103   ar
    92    99   101   ar
    93    70    69    1
    94    72    69    1
    95    72    73    1
    96   103   101   ar
    97    82    81    2
    98    69    68    1
    99    93    81   am
   100    16    14   am
   101    15    14    2
   102    81    80    1
   103    73    74    1
   104    25    26   ar
   105    25    23   ar
   106    14    13    1
   107    68    74    1
   108    68    60   am
   109    61    60    2
   110    26    24   ar
   111    23    22   ar
   112    80    83    1
   113    80    79    1
   114    60    59    1
   115    83    84    1
   116    13    10    1
   117    67    65   ar
   118    67    66   ar
   119    11    10    1
   120    11    12    2
   121    78    77    2
   122    24    22   ar
   123    65    63   ar
   124    10     9    1
   125    22    21    1
   126    79    77   am
   127    89    91   ar
   128    89    86   ar
   129    66    64   ar
   130    77    76    1
   131    84    86   ar
   132    84    85   ar
   133    56    54    1
   134    59    58    1
   135    59    62    1
   136    63    64   ar
   137    63    62    1
   138    91    92   ar
   139    86    88   ar
   140     4     3    2
   141    21    18    1
   142    58    52   am
   143    75    76    1
   144     9     3   am
   145    41    40    1
   146    52    53    2
   147    52    51    1
   148    85    87   ar
   149     3     2    1
   150    92    90   ar
   151    54    51    1
   152    54    55    1
   153    88    87   ar
   154    88    90   ar
   155    18    17    1
   156    18    19    1
   157    51    50    1
   158    40    39    1
   159    57    55    1
   160    20    19    2
   161     2     5    1
   162     2     1    1
   163    19    27   am
   164     5     6    1
   165    50    44   am
   166    38    39    1
   167    38    37    1
   168    45    44    2
   169    48    47    2
   170    27    28    1
   171    44    43    1
   172     6     7   ar
   173     6     8   ar
   174    47    49   am
   175    47    46    1
   176    37    34    1
   177    30    29    2
   178    34    33    1
   179    34    35    1
   180    29    28    1
   181    29    33   am
   182    28    31    1
   183    43    46    1
   184    43    42    1
   185    36    35    2
   186    31    32    1
