@<TRIPOS>MOLECULE
tmp/4yfyA01.pdb
 193 191 0 0 0
SMALL
GASTEIGER

@<TRIPOS>ATOM
      1  N         42.3240   30.4520   97.6800 N.3    73  SER73      -0.1217
      2  CA        41.9000   31.6520   97.0100 C.3    73  SER73       0.1889
      3  C         41.9280   31.3820   95.5170 C.2    73  SER73       0.2288
      4  O         42.9230   30.9600   94.9540 O.2    73  SER73      -0.2866
      5  CB        42.8510   32.7860   97.3820 C.3    73  SER73       0.2089
      6  OG        42.7790   33.8130   96.4460 O.3    73  SER73      -0.2183
      7  N         41.1700   33.6630   92.5460 N.3    75  HIS75      -0.1226
      8  CA        40.8250   34.9620   91.9980 C.3    75  HIS75       0.1752
      9  C         39.9550   35.6570   93.0280 C.2    75  HIS75       0.2596
     10  O         38.8070   36.0880   92.7380 O.2    75  HIS75      -0.2718
     11  CB        40.0730   34.7640   90.6990 C.3    75  HIS75       0.0759
     12  CG        40.9340   34.3710   89.5450 C.ar   75  HIS75       0.0818
     13  ND1       40.6950   34.8030   88.2630 N.ar   75  HIS75      -0.2268
     14  CD2       41.9900   33.5300   89.4650 C.ar   75  HIS75       0.1154
     15  CE1       41.5510   34.2290   87.4360 C.ar   75  HIS75       0.1986
     16  NE2       42.3490   33.4530   88.1530 N.ar   75  HIS75      -0.2212
     17  N         40.4290   35.5980   94.2690 N.am   76  CYS76      -0.1956
     18  CA        39.7890   36.3460   95.3940 C.3    76  CYS76       0.1843
     19  C         40.0990   37.8500   95.2650 C.2    76  CYS76       0.2625
     20  O         41.2700   38.2310   95.0940 O.2    76  CYS76      -0.2714
     21  CB        40.3360   35.8350   96.7450 C.3    76  CYS76       0.0997
     22  SG        39.6110   36.6810   98.1510 S.3    76  CYS76      -0.0797
     23  N         39.0830   38.6970   95.4420 N.am   77  LYS77      -0.1963
     24  CA        39.2580   40.1380   95.2570 C.3    77  LYS77       0.1728
     25  C         39.8520   40.8220   96.4980 C.2    77  LYS77       0.2616
     26  O         40.0430   42.0090   96.4390 O.2    77  LYS77      -0.2715
     27  CB        37.9390   40.8400   94.9210 C.3    77  LYS77       0.0311
     28  CG        37.3720   40.6810   93.5250 C.3    77  LYS77       0.0038
     29  CD        35.8900   41.0840   93.5390 C.3    77  LYS77       0.0206
     30  CE        35.2230   40.8810   92.1980 C.3    77  LYS77       0.1093
     31  NZ        35.9680   41.6420   91.1680 N.3    77  LYS77      -0.1314
     32  N         40.1080   40.1150   97.5960 N.am   78  GLN78      -0.1963
     33  CA        40.6480   40.7280   98.7950 C.3    78  GLN78       0.1733
     34  C         42.0450   40.1590   99.1180 C.2    78  GLN78       0.2616
     35  O         42.2890   38.9490   98.9980 O.2    78  GLN78      -0.2715
     36  CB        39.7900   40.4680  100.0140 C.3    78  GLN78       0.0408
     37  CG        38.3340   40.9340   99.9860 C.3    78  GLN78       0.0908
     38  CD        37.6140   40.4920  101.2560 C.2    78  GLN78       0.2608
     39  OE1       37.2820   39.2870  101.4790 O.2    78  GLN78      -0.2717
     40  NE2       37.4140   41.4790  102.1350 N.am   78  GLN78      -0.0878
     41  N         42.9070   41.0450   99.5960 N.am   79  ILE79      -0.1963
     42  CA        44.1600   40.6510  100.2330 C.3    79  ILE79       0.1727
     43  C         43.8740   40.0760  101.6010 C.2    79  ILE79       0.2616
     44  O         43.2750   40.7540  102.4570 O.2    79  ILE79      -0.2715
     45  CB        45.1580   41.8150  100.4070 C.3    79  ILE79       0.0290
     46  CG1       45.5630   42.4310   99.0670 C.3    79  ILE79       0.0022
     47  CG2       46.4090   41.2970  101.1320 C.3    79  ILE79       0.0023
     48  CD1       46.0390   43.8730   99.1760 C.3    79  ILE79       0.0001
     49  N         44.2920   38.8330  101.7980 N.am   80  PHE80      -0.1974
     50  CA        44.1780   38.1480  103.0860 C.3    80  PHE80       0.1639
     51  C         45.1540   38.8230  104.0810 C.2    80  PHE80       0.2290
     52  O         46.3400   39.0550  103.7450 O.2    80  PHE80      -0.2864
     53  CB        44.6400   36.7090  102.9730 C.3    80  PHE80       0.0560
     54  CG        43.6780   35.7400  102.3780 C.ar   80  PHE80      -0.0200
     55  CD1       42.8350   36.0730  101.3350 C.ar   80  PHE80      -0.0042
     56  CD2       43.7490   34.4270  102.7940 C.ar   80  PHE80      -0.0042
     57  CE1       42.0140   35.1080  100.7740 C.ar   80  PHE80      -0.0003
     58  CE2       42.9120   33.4600  102.2640 C.ar   80  PHE80      -0.0003
     59  CZ        42.0550   33.8160  101.2350 C.ar   80  PHE80      -0.0000
     60  N         47.1090   34.3540  106.7280 N.3    85  VAL85      -0.1245
     61  CA        48.0350   33.5260  105.9740 C.3    85  VAL85       0.1561
     62  C         49.1070   32.9040  106.8800 C.2    85  VAL85       0.2260
     63  O         49.6480   31.8570  106.5690 O.2    85  VAL85      -0.2867
     64  CB        48.6740   34.2950  104.7860 C.3    85  VAL85       0.0252
     65  CG1       47.5970   34.8330  103.8780 C.3    85  VAL85       0.0019
     66  CG2       49.6520   35.3710  105.2410 C.3    85  VAL85       0.0019
     67  N         46.8760   30.1020   96.7280 N.3    92  ASN92      -0.1240
     68  CA        46.2960   30.9840   95.7010 C.3    92  ASN92       0.1653
     69  C         46.5090   30.4220   94.3060 C.2    92  ASN92       0.2266
     70  O         47.6180   29.9860   93.9460 O.2    92  ASN92      -0.2867
     71  CB        46.9560   32.3530   95.7730 C.3    92  ASN92       0.1155
     72  CG        46.2970   33.4090   94.8750 C.2    92  ASN92       0.2627
     73  OD1       47.0280   34.1500   94.1890 O.2    92  ASN92      -0.2716
     74  ND2       45.0040   33.5090   94.8780 N.am   92  ASN92      -0.0877
     75  N         50.3600   40.8720   90.8450 N.3   103  GLY103     -0.1210
     76  CA        49.3220   41.8570   91.1040 C.3   103  GLY103      0.1956
     77  C         48.3580   41.8700   89.9530 C.2   103  GLY103      0.2611
     78  O         48.0820   40.8220   89.4200 O.2   103  GLY103     -0.2717
     79  N         47.9410   43.0660   89.5490 N.am  104  TRP104     -0.1976
     80  CA        46.7830   43.2730   88.7000 C.3   104  TRP104      0.1640
     81  C         47.0160   42.9360   87.2140 C.2   104  TRP104      0.2290
     82  O         47.9620   43.3880   86.5640 O.2   104  TRP104     -0.2864
     83  CB        46.2880   44.7220   88.8540 C.3   104  TRP104      0.0576
     84  CG        45.6720   44.9770   90.1690 C.ar  104  TRP104      0.0006
     85  CD1       46.3120   45.3320   91.3380 C.ar  104  TRP104      0.0946
     86  CD2       44.2850   44.8570   90.4890 C.ar  104  TRP104      0.0152
     87  NE1       45.3910   45.4720   92.3540 N.ar  104  TRP104     -0.2442
     88  CE2       44.1420   45.1800   91.8580 C.ar  104  TRP104      0.0810
     89  CE3       43.1350   44.5900   89.7240 C.ar  104  TRP104      0.0012
     90  CZ2       42.8880   45.2020   92.4940 C.ar  104  TRP104      0.0191
     91  CZ3       41.8980   44.5570   90.3620 C.ar  104  TRP104      0.0001
     92  CH2       41.7820   44.8780   91.7360 C.ar  104  TRP104      0.0015
     93  N         50.4100   28.8940   94.2510 N.3   122  HIS122     -0.1241
     94  CA        51.4140   29.2250   95.2430 C.3   122  HIS122      0.1621
     95  C         50.8160   29.3350   96.6360 C.2   122  HIS122      0.2264
     96  O         49.6160   29.6240   96.7920 O.2   122  HIS122     -0.2867
     97  CB        52.1860   30.4870   94.8650 C.3   122  HIS122      0.0745
     98  CG        51.3530   31.7280   94.8960 C.ar  122  HIS122      0.0817
     99  ND1       51.1630   32.4850   96.0320 N.ar  122  HIS122     -0.2268
    100  CD2       50.6200   32.3100   93.9270 C.ar  122  HIS122      0.1154
    101  CE1       50.3960   33.5150   95.7530 C.ar  122  HIS122      0.1986
    102  NE2       50.0370   33.4130   94.4890 N.ar  122  HIS122     -0.2212
    103  N         50.2240   31.3690   99.9870 N.3   124  MET124     -0.1230
    104  CA        50.0780   32.8200  100.2190 C.3   124  MET124      0.1702
    105  C         50.9290   33.2300  101.3960 C.2   124  MET124      0.2592
    106  O         50.8510   32.6170  102.4600 O.2   124  MET124     -0.2718
    107  CB        48.6080   33.1690  100.4300 C.3   124  MET124      0.0401
    108  CG        47.8240   32.7210   99.2080 C.3   124  MET124      0.0596
    109  SD        46.0410   32.6340   99.3740 S.3   124  MET124     -0.1393
    110  CE        45.7910   34.3100   99.9370 C.3   124  MET124      0.0692
    111  N         51.7610   34.2440  101.2070 N.am  125  ASP125     -0.1960
    112  CA        52.2670   34.9400  102.3770 C.3   125  ASP125      0.1840
    113  C         51.5440   36.2580  102.5410 C.2   125  ASP125      0.2623
    114  O         50.4920   36.4820  101.9250 O.2   125  ASP125     -0.2715
    115  CB        53.7970   34.9670  102.3050 C.3   125  ASP125      0.1450
    116  CG        54.2870   35.8150  101.1940 C.2   125  ASP125      0.3671
    117  OD1       53.4770   36.6170  100.6500 O.co2 125  ASP125     -0.2456
    118  OD2       55.4900   35.6950  100.8850 O.co2 125  ASP125     -0.2456
    119  N         52.0210   37.1230  103.4340 N.am  126  SER126     -0.1936
    120  CA        51.3810   38.4220  103.6820 C.3   126  SER126      0.2055
    121  C         51.5140   39.4520  102.5360 C.2   126  SER126      0.2643
    122  O         50.7300   40.3900  102.4550 O.2   126  SER126     -0.2714
    123  CB        51.9870   39.0660  104.9290 C.3   126  SER126      0.2130
    124  OG        53.3750   39.2940  104.7120 O.3   126  SER126     -0.2179
    125  N         52.4520   39.2220  101.6210 N.am  127  GLU127     -0.1963
    126  CA        52.5570   39.9620  100.3900 C.3   127  GLU127      0.1733
    127  C         51.7550   39.3170   99.2660 C.2   127  GLU127      0.2616
    128  O         51.4200   38.1570   99.3010 O.2   127  GLU127     -0.2715
    129  CB        54.0170   39.9240   99.9270 C.3   127  GLU127      0.0429
    130  CG        54.9770   41.0050  100.2910 C.3   127  GLU127      0.1163
    131  CD        54.7260   41.5910  101.6380 C.2   127  GLU127      0.3649
    132  OE1       54.6360   42.8270  101.6520 O.co2 127  GLU127     -0.2457
    133  OE2       54.6110   40.8170  102.6140 O.co2 127  GLU127     -0.2457
    134  N         51.5460   40.0880   98.2190 N.am  128  VAL128     -0.1963
    135  CA        50.6680   39.6820   97.1400 C.3   128  VAL128      0.1727
    136  C         51.4610   38.9300   96.1050 C.2   128  VAL128      0.2616
    137  O         52.5100   39.3890   95.5760 O.2   128  VAL128     -0.2715
    138  CB        50.0290   40.8880   96.4500 C.3   128  VAL128      0.0290
    139  CG1       49.1370   40.4000   95.3000 C.3   128  VAL128      0.0023
    140  CG2       49.1900   41.6700   97.4470 C.3   128  VAL128      0.0023
    141  N         50.9620   37.7230   95.8650 N.am  129  ASP129     -0.1957
    142  CA        51.4360   36.8870   94.7520 C.3   129  ASP129      0.1840
    143  C         52.9310   36.6080   94.8590 C.2   129  ASP129      0.2622
    144  O         53.7900   36.8600   93.9550 O.2   129  ASP129     -0.2715
    145  CB        51.0970   37.4980   93.4040 C.3   129  ASP129      0.1450
    146  CG        49.6310   37.7480   93.2060 C.2   129  ASP129      0.3671
    147  OD1       48.7870   37.0450   93.7980 O.co2 129  ASP129     -0.2456
    148  OD2       49.3470   38.6210   92.3620 O.co2 129  ASP129     -0.2456
    149  N         53.2590   36.1520   96.0630 N.am  130  HIS130     -0.1973
    150  CA        54.6470   36.2380   96.5580 C.3   130  HIS130      0.1656
    151  C         55.2140   34.9690   97.2410 C.2   130  HIS130      0.2291
    152  O         56.4460   34.7830   97.2710 O.2   130  HIS130     -0.2864
    153  CB        54.7900   37.4430   97.4940 C.3   130  HIS130      0.0771
    154  CG        56.1910   37.7220   97.9430 C.ar  130  HIS130      0.0820
    155  ND1       56.7190   37.1390   99.0780 N.ar  130  HIS130     -0.2267
    156  CD2       57.1610   38.5430   97.4450 C.ar  130  HIS130      0.1154
    157  CE1       57.9510   37.5880   99.2690 C.ar  130  HIS130      0.1986
    158  NE2       58.2480   38.4360   98.2940 N.ar  130  HIS130     -0.2212
    159  N         55.4160   44.0530   91.0260 N.3   185  TYR185     -0.1241
    160  CA        54.0120   44.0640   91.3740 C.3   185  TYR185      0.1605
    161  C         53.3560   45.2210   90.6010 C.2   185  TYR185      0.2264
    162  O         53.8830   46.3070   90.5950 O.2   185  TYR185     -0.2867
    163  CB        53.7990   44.1820   92.8730 C.3   185  TYR185      0.0534
    164  CG        52.3780   44.4410   93.2960 C.ar  185  TYR185     -0.0201
    165  CD1       51.8950   45.7470   93.3900 C.ar  185  TYR185     -0.0009
    166  CD2       51.5210   43.4050   93.5870 C.ar  185  TYR185     -0.0009
    167  CE1       50.5960   46.0090   93.7860 C.ar  185  TYR185      0.0417
    168  CE2       50.2150   43.6650   93.9760 C.ar  185  TYR185      0.0417
    169  CZ        49.7670   44.9520   94.0690 C.ar  185  TYR185      0.1957
    170  OH        48.4650   45.2170   94.4480 O.3   185  TYR185     -0.2866
    171  N         50.0410   47.6190   90.3460 N.3   187  SER187     -0.1202
    172  CA        48.8580   47.9380   91.1010 C.3   187  SER187      0.2020
    173  C         47.7170   48.3610   90.1820 C.2   187  SER187      0.2619
    174  O         47.8810   48.5430   88.9740 O.2   187  SER187     -0.2717
    175  CB        49.1800   49.0820   92.0710 C.3   187  SER187      0.2103
    176  OG        49.4700   50.2570   91.3410 O.3   187  SER187     -0.2182
    177  N         46.5650   48.5980   90.7940 N.am  188  ILE188     -0.1965
    178  CA        45.4020   49.0840   90.0490 C.3   188  ILE188      0.1727
    179  C         45.6670   50.4760   89.5500 C.2   188  ILE188      0.2616
    180  O         45.2820   50.8270   88.4530 O.2   188  ILE188     -0.2715
    181  CB        44.0630   48.9510   90.8050 C.3   188  ILE188      0.0290
    182  CG1       42.8760   49.3020   89.8900 C.3   188  ILE188      0.0022
    183  CG2       44.0240   49.8230   92.0550 C.3   188  ILE188      0.0023
    184  CD1       42.5240   48.2440   88.8570 C.3   188  ILE188      0.0001
    185  N         46.3660   51.2950   90.3240 N.am  189  GLN189     -0.1977
    186  CA        46.6800   52.6380   89.8650 C.3   189  GLN189      0.1601
    187  C         47.6070   52.6160   88.6390 C.2   189  GLN189      0.2287
    188  O         47.5180   53.4770   87.7270 O.2   189  GLN189     -0.2864
    189  CB        47.3360   53.3880   91.0150 C.3   189  GLN189      0.0394
    190  CG        48.0340   54.6640   90.5890 C.3   189  GLN189      0.0908
    191  CD        49.4310   54.7470   91.1700 C.2   189  GLN189      0.2608
    192  OE1       50.2990   53.9160   90.8450 O.2   189  GLN189     -0.2717
    193  NE2       49.6710   55.7710   92.0080 N.am  189  GLN189     -0.0878
@<TRIPOS>BOND
     1    82    81    2
     2    81    80    1
     3    15    16   ar
     4    15    13   ar
     5   188   187    2
     6    16    14   ar
     7    13    12   ar
     8   180   179    2
     9   187   186    1
    10    80    83    1
    11    80    79    1
    12    83    84    1
    13   184   182    1
    14   174   173    2
    15    78    77    2
    16    14    12   ar
    17    12    11    1
    18    79    77   am
    19   179   178    1
    20   179   185   am
    21    89    91   ar
    22    89    86   ar
    23   186   185    1
    24   186   189    1
    25   182   181    1
    26    77    76    1
    27   178   177    1
    28   178   181    1
    29    84    86   ar
    30    84    85   ar
    31   173   177   am
    32   173   172    1
    33   171   172    1
    34    91    92   ar
    35    86    88   ar
    36   190   189    1
    37   190   191    1
    38   162   161    2
    39   161   160    1
    40    11     8    1
    41   181   183    1
    42    75    76    1
    43   192   191    2
    44   159   160    1
    45   172   175    1
    46    31    30    1
    47   191   193   am
    48    85    87   ar
    49   176   175    1
    50   160   163    1
    51    92    90   ar
    52    88    87   ar
    53    88    90   ar
    54     8     7    1
    55     8     9    1
    56    30    29    1
    57   148   146   ar
    58    10     9    2
    59   163   164    1
    60     9    17   am
    61   146   145    1
    62   146   147   ar
    63   164   165   ar
    64   164   166   ar
    65   165   167   ar
    66   145   142    1
    67    28    29    1
    68    28    27    1
    69   166   168   ar
    70   167   169   ar
    71   100   102   ar
    72   100    98   ar
    73    70    69    2
    74   144   143    2
    75   168   169   ar
    76   169   170    1
    77    73    72    2
    78    93    94    1
    79    17    18    1
    80    69    68    1
    81   102   101   ar
    82   142   143    1
    83   142   141    1
    84   143   149   am
    85    97    98    1
    86    97    94    1
    87    72    74   am
    88    72    71    1
    89    98    99   ar
    90    27    24    1
    91     4     3    2
    92    20    19    2
    93    94    95    1
    94    24    23    1
    95    24    25    1
    96    19    18    1
    97    19    23   am
    98   139   138    1
    99    18    21    1
   100     3     2    1
   101   137   136    2
   102    68    71    1
   103    68    67    1
   104   101    99   ar
   105   141   136   am
   106   149   150    1
   107   136   135    1
   108    26    25    2
   109     6     5    1
   110   138   135    1
   111   138   140    1
   112    25    32   am
   113   150   151    1
   114   150   153    1
   115    95    96    2
   116    21    22    1
   117     2     5    1
   118     2     1    1
   119   135   134    1
   120   151   152    2
   121   156   154   ar
   122   156   158   ar
   123   153   154    1
   124    32    33    1
   125   154   155   ar
   126   134   127   am
   127   158   157   ar
   128    33    34    1
   129    33    36    1
   130    35    34    2
   131    46    48    1
   132    46    45    1
   133   155   157   ar
   134    34    41   am
   135   108   109    1
   136   108   107    1
   137   127   128    2
   138   127   126    1
   139   109   110    1
   140    41    42    1
   141   129   130    1
   142   129   126    1
   143    37    36    1
   144    37    38    1
   145   103   104    1
   146   104   107    1
   147   104   105    1
   148    42    45    1
   149    42    43    1
   150   130   131    1
   151   126   125    1
   152    45    47    1
   153   117   116   ar
   154    57    59   ar
   155    57    55   ar
   156   118   116   ar
   157   116   115    1
   158   111   105   am
   159   111   112    1
   160    59    58   ar
   161    38    39    2
   162    38    40   am
   163    55    54   ar
   164   105   106    2
   165    43    49   am
   166    43    44    2
   167   125   121   am
   168   131   132   ar
   169   131   133   ar
   170    49    50    1
   171   114   113    2
   172    58    56   ar
   173   115   112    1
   174   112   113    1
   175    54    56   ar
   176    54    53    1
   177   122   121    2
   178   121   120    1
   179   113   119   am
   180    53    50    1
   181    50    51    1
   182   119   120    1
   183   120   123    1
   184    52    51    2
   185    65    64    1
   186   124   123    1
   187    64    66    1
   188    64    61    1
   189    61    60    1
   190    61    62    1
   191    63    62    2
