@<TRIPOS>MOLECULE
tmp/4yg8B00.pdb
 133 125 0 0 0
SMALL
GASTEIGER

@<TRIPOS>ATOM
      1  N        -32.4450  -83.7460  -30.6670 N.3   161  ASN161     -0.1225
      2  CA       -33.7660  -83.3190  -30.1910 C.3   161  ASN161      0.1785
      3  C        -34.3650  -82.2750  -31.1130 C.2   161  ASN161      0.2598
      4  O        -35.5530  -82.3460  -31.4330 O.2   161  ASN161     -0.2718
      5  CB       -33.6870  -82.7720  -28.7640 C.3   161  ASN161      0.1169
      6  CG       -35.0440  -82.5360  -28.1380 C.2   161  ASN161      0.2627
      7  OD1      -35.3540  -81.4160  -27.7350 O.2   161  ASN161     -0.2716
      8  ND2      -35.8600  -83.5890  -28.0440 N.am  161  ASN161     -0.0877
      9  N        -33.5220  -81.3470  -31.5750 N.am  162  THR162     -0.1939
     10  CA       -33.9540  -80.2130  -32.3690 C.3   162  THR162      0.2028
     11  C        -34.1330  -80.4630  -33.8730 C.2   162  THR162      0.2642
     12  O        -34.4990  -79.5500  -34.6090 O.2   162  THR162     -0.2714
     13  CB       -33.0180  -79.0040  -32.1730 C.3   162  THR162      0.1808
     14  OG1      -31.6940  -79.3650  -32.5570 O.3   162  THR162     -0.2208
     15  CG2      -32.9900  -78.5820  -30.7200 C.3   162  THR162      0.0379
     16  N        -33.8190  -81.6630  -34.3300 N.am  163  ASN163     -0.1958
     17  CA       -34.0800  -82.0390  -35.7030 C.3   163  ASN163      0.1804
     18  C        -34.7790  -83.3920  -35.7240 C.2   163  ASN163      0.2463
     19  O        -34.1580  -84.4090  -35.5030 O.2   163  ASN163     -0.2730
     20  CB       -32.7760  -82.0950  -36.5060 C.3   163  ASN163      0.1195
     21  CG       -31.8880  -80.8650  -36.2970 C.2   163  ASN163      0.2630
     22  OD1      -31.9200  -79.9210  -37.0800 O.2   163  ASN163     -0.2716
     23  ND2      -31.0820  -80.8880  -35.2490 N.am  163  ASN163     -0.0877
     24  N        -36.0670  -83.3880  -36.0300 N.am  164  PRO164     -0.2727
     25  CA       -36.8930  -84.5910  -36.0820 C.3   164  PRO164      0.1402
     26  C        -36.4910  -85.5490  -37.1810 C.2   164  PRO164      0.2269
     27  O        -36.7530  -86.7370  -37.1030 O.2   164  PRO164     -0.2865
     28  CB       -38.2720  -84.0250  -36.3570 C.3   164  PRO164      0.0296
     29  CG       -38.0030  -82.8300  -37.1080 C.3   164  PRO164      0.0237
     30  CD       -36.7730  -82.2070  -36.5440 C.3   164  PRO164      0.0939
     31  N        -34.2730  -88.3410  -35.9410 N.3   167  LYS167     -0.1245
     32  CA       -34.7310  -89.2530  -34.9000 C.3   167  LYS167      0.1561
     33  C        -35.2950  -90.5430  -35.4730 C.2   167  LYS167      0.2260
     34  O        -36.1610  -90.5210  -36.3400 O.2   167  LYS167     -0.2867
     35  CB       -35.7960  -88.5840  -34.0270 C.3   167  LYS167      0.0271
     36  CG       -35.3480  -87.3150  -33.3340 C.3   167  LYS167      0.0035
     37  CD       -36.4670  -86.7380  -32.4700 C.3   167  LYS167      0.0206
     38  CE       -36.1030  -85.3680  -31.9630 C.3   167  LYS167      0.1093
     39  NZ       -36.9370  -84.9940  -30.8060 N.3   167  LYS167     -0.1314
     40  N        -35.4790  -89.9850  -25.4650 N.3   173  GLU173     -0.1245
     41  CA       -34.7350  -88.7840  -25.1900 C.3   173  GLU173      0.1567
     42  C        -34.9850  -88.3700  -23.7580 C.2   173  GLU173      0.2260
     43  O        -36.1090  -88.1620  -23.3580 O.2   173  GLU173     -0.2867
     44  CB       -35.1740  -87.7020  -26.1550 C.3   173  GLU173      0.0388
     45  CG       -35.3810  -88.2330  -27.5400 C.3   173  GLU173      0.1160
     46  CD       -35.8070  -87.1840  -28.5190 C.2   173  GLU173      0.3649
     47  OE1      -36.7640  -87.4300  -29.2670 O.co2 173  GLU173     -0.2457
     48  OE2      -35.1770  -86.1170  -28.5620 O.co2 173  GLU173     -0.2457
     49  N        -43.9360  -89.6530  -35.4000 N.3   443  ILE443     -0.1231
     50  CA       -43.6300  -88.9280  -36.6190 C.3   443  ILE443      0.1692
     51  C        -42.2290  -88.3130  -36.5630 C.2   443  ILE443      0.2592
     52  O        -41.9990  -87.2550  -35.9860 O.2   443  ILE443     -0.2718
     53  CB       -44.6830  -87.8340  -36.9020 C.3   443  ILE443      0.0266
     54  CG1      -45.9450  -88.4610  -37.4740 C.3   443  ILE443      0.0019
     55  CG2      -44.2010  -86.9040  -37.9670 C.3   443  ILE443      0.0020
     56  CD1      -46.9920  -88.6690  -36.4670 C.3   443  ILE443      0.0001
     57  N        -41.3020  -88.9450  -37.2480 N.am  444  CYS444     -0.1970
     58  CA       -39.9280  -88.5050  -37.2010 C.3   444  CYS444      0.1712
     59  C        -39.2860  -88.9790  -38.4870 C.2   444  CYS444      0.2296
     60  O        -39.9350  -89.6850  -39.2560 O.2   444  CYS444     -0.2864
     61  CB       -39.2240  -89.1480  -36.0110 C.3   444  CYS444      0.0983
     62  SG       -39.4710  -90.9440  -35.9190 S.3   444  CYS444     -0.0798
     63  N        -47.3330  -78.4610  -34.9440 N.3   580  GLN580     -0.1245
     64  CA       -45.9680  -77.9540  -34.8180 C.3   580  GLN580      0.1566
     65  C        -45.7500  -76.6600  -35.6050 C.2   580  GLN580      0.2260
     66  O        -45.1110  -75.7250  -35.1050 O.2   580  GLN580     -0.2867
     67  CB       -44.9510  -79.0040  -35.2680 C.3   580  GLN580      0.0367
     68  CG       -43.5350  -78.5110  -35.2860 C.3   580  GLN580      0.0905
     69  CD       -42.9960  -78.2980  -33.8910 C.2   580  GLN580      0.2608
     70  OE1      -43.5960  -78.7350  -32.9070 O.2   580  GLN580     -0.2717
     71  NE2      -41.8670  -77.6090  -33.7920 N.am  580  GLN580     -0.0878
     72  N        -49.4140  -81.6000  -27.9850 N.3   611  LYS611     -0.1245
     73  CA       -48.1100  -81.8860  -28.5640 C.3   611  LYS611      0.1561
     74  C        -47.2040  -82.5580  -27.5410 C.2   611  LYS611      0.2260
     75  O        -46.5840  -83.5740  -27.8440 O.2   611  LYS611     -0.2867
     76  CB       -47.4450  -80.6340  -29.1370 C.3   611  LYS611      0.0271
     77  CG       -46.1980  -80.9340  -29.9360 C.3   611  LYS611      0.0035
     78  CD       -46.5650  -81.4370  -31.3240 C.3   611  LYS611      0.0206
     79  CE       -45.5560  -82.4540  -31.8380 C.3   611  LYS611      0.1093
     80  NZ       -44.1640  -81.9490  -31.7810 N.3   611  LYS611     -0.1314
     81  N        -45.5330  -86.1700  -28.0620 N.3   615  ASP615     -0.1239
     82  CA       -44.0990  -86.3600  -27.8910 C.3   615  ASP615      0.1674
     83  C        -43.7680  -87.3960  -26.8100 C.2   615  ASP615      0.2266
     84  O        -42.8990  -88.2610  -26.9980 O.2   615  ASP615     -0.2867
     85  CB       -43.3960  -85.0170  -27.6030 C.3   615  ASP615      0.1410
     86  CG       -43.4350  -84.0610  -28.8020 C.2   615  ASP615      0.3668
     87  OD1      -43.7760  -84.5180  -29.9220 O.co2 615  ASP615     -0.2456
     88  OD2      -43.1220  -82.8550  -28.6350 O.co2 615  ASP615     -0.2456
     89  N        -40.0500  -89.0070  -26.3010 N.3   620  ASN620     -0.1240
     90  CA       -39.3340  -87.7440  -26.2290 C.3   620  ASN620      0.1653
     91  C        -39.7860  -87.0120  -24.9460 C.2   620  ASN620      0.2266
     92  O        -40.8160  -86.3440  -24.8890 O.2   620  ASN620     -0.2867
     93  CB       -39.6790  -86.9500  -27.4860 C.3   620  ASN620      0.1155
     94  CG       -39.0990  -85.5660  -27.4970 C.2   620  ASN620      0.2627
     95  OD1      -38.3380  -85.1720  -26.6090 O.2   620  ASN620     -0.2716
     96  ND2      -39.4550  -84.8070  -28.5200 N.am  620  ASN620     -0.0877
     97  N        -37.7210  -82.5280  -25.2710 N.3   623  GLN623     -0.1231
     98  CA       -38.6350  -81.4730  -25.7120 C.3   623  GLN623      0.1698
     99  C        -38.1160  -80.0330  -25.5810 C.2   623  GLN623      0.2592
    100  O        -38.8140  -79.1480  -25.0950 O.2   623  GLN623     -0.2718
    101  CB       -39.9910  -81.6080  -25.0120 C.3   623  GLN623      0.0381
    102  CG       -40.7760  -82.8010  -25.4460 C.3   623  GLN623      0.0905
    103  CD       -42.1490  -82.8540  -24.8090 C.2   623  GLN623      0.2608
    104  OE1      -42.8260  -81.8360  -24.6940 O.2   623  GLN623     -0.2717
    105  NE2      -42.5660  -84.0410  -24.3930 N.am  623  GLN623     -0.0878
    106  N        -36.9040  -79.7930  -26.0510 N.am  624  ILE624     -0.1966
    107  CA       -36.3530  -78.4500  -26.0110 C.3   624  ILE624      0.1727
    108  C        -37.2850  -77.3950  -26.6540 C.2   624  ILE624      0.2616
    109  O        -37.4700  -76.2990  -26.1080 O.2   624  ILE624     -0.2715
    110  CB       -34.9290  -78.4160  -26.5950 C.3   624  ILE624      0.0290
    111  CG1      -33.9670  -79.1180  -25.6350 C.3   624  ILE624      0.0022
    112  CG2      -34.4690  -76.9930  -26.7970 C.3   624  ILE624      0.0023
    113  CD1      -32.6130  -79.4500  -26.2600 C.3   624  ILE624      0.0001
    114  N        -37.8910  -77.7190  -27.7900 N.am  625  PHE625     -0.1974
    115  CA       -38.7900  -76.7580  -28.4430 C.3   625  PHE625      0.1639
    116  C        -39.9930  -76.4260  -27.5610 C.2   625  PHE625      0.2290
    117  O        -40.3500  -75.2700  -27.3880 O.2   625  PHE625     -0.2864
    118  CB       -39.2660  -77.2950  -29.7850 C.3   625  PHE625      0.0560
    119  CG       -40.2260  -76.4090  -30.4910 C.ar  625  PHE625     -0.0200
    120  CD1      -39.7760  -75.3550  -31.2590 C.ar  625  PHE625     -0.0042
    121  CD2      -41.5950  -76.6380  -30.4000 C.ar  625  PHE625     -0.0042
    122  CE1      -40.6790  -74.5310  -31.9360 C.ar  625  PHE625     -0.0003
    123  CE2      -42.4960  -75.8250  -31.0580 C.ar  625  PHE625     -0.0003
    124  CZ       -42.0360  -74.7670  -31.8420 C.ar  625  PHE625     -0.0000
    125  N        -39.2730  -73.9710  -24.9300 N.3   628  GLN628     -0.1245
    126  CA       -39.1600  -72.6260  -25.4540 C.3   628  GLN628      0.1566
    127  C        -40.5350  -71.9890  -25.4780 C.2   628  GLN628      0.2260
    128  O        -40.6800  -70.7960  -25.1690 O.2   628  GLN628     -0.2867
    129  CB       -38.6220  -72.6470  -26.8670 C.3   628  GLN628      0.0367
    130  CG       -37.1310  -72.6210  -26.9730 C.3   628  GLN628      0.0905
    131  CD       -36.7030  -72.4760  -28.4100 C.2   628  GLN628      0.2608
    132  OE1      -36.5510  -73.4640  -29.1350 O.2   628  GLN628     -0.2717
    133  NE2      -36.5480  -71.2370  -28.8450 N.am  628  GLN628     -0.0878
@<TRIPOS>BOND
     1    60    59    2
     2    59    58    1
     3    55    53    1
     4    54    53    1
     5    54    56    1
     6    57    58    1
     7    57    51   am
     8    58    61    1
     9    26    27    2
    10    26    25    1
    11    29    30    1
    12    29    28    1
    13    22    21    2
    14    53    50    1
    15    50    51    1
    16    50    49    1
    17    51    52    2
    18    30    24    1
    19    20    21    1
    20    20    17    1
    21    28    25    1
    22    34    33    2
    23    21    23   am
    24    25    24    1
    25    24    18   am
    26    61    62    1
    27    31    32    1
    28    18    17    1
    29    18    19    2
    30    17    16    1
    31    65    66    2
    32    65    64    1
    33    33    32    1
    34    68    67    1
    35    68    69    1
    36    67    64    1
    37    63    64    1
    38    32    35    1
    39    12    11    2
    40    16    11   am
    41    35    36    1
    42    69    71   am
    43    69    70    2
    44    11    10    1
    45    36    37    1
    46    14    13    1
    47    37    38    1
    48    10    13    1
    49    10     9    1
    50    13    15    1
    51    38    39    1
    52   122   124   ar
    53   122   120   ar
    54   124   123   ar
    55    79    80    1
    56    79    78    1
    57     9     3   am
    58     4     3    2
    59    78    77    1
    60   120   119   ar
    61     3     2    1
    62   123   121   ar
    63     1     2    1
    64   119   121   ar
    65   119   118    1
    66     2     5    1
    67    77    76    1
    68    87    86   ar
    69   118   115    1
    70    47    46   ar
    71    76    73    1
    72   132   131    2
    73   133   131   am
    74    86    88   ar
    75    86    85    1
    76     5     6    1
    77    73    72    1
    78    73    74    1
    79    48    46   ar
    80    96    94   am
    81    46    45    1
    82   115   114    1
    83   115   116    1
    84   131   130    1
    85     6     8   am
    86     6     7    2
    87    81    82    1
    88    82    85    1
    89    82    83    1
    90    75    74    2
    91   114   108   am
    92   116   117    2
    93    45    44    1
    94    94    93    1
    95    94    95    2
    96    93    90    1
    97    84    83    2
    98   130   129    1
    99   129   126    1
   100   112   110    1
   101   108   109    2
   102   108   107    1
   103   110   107    1
   104   110   111    1
   105    89    90    1
   106   113   111    1
   107    90    91    1
   108    44    41    1
   109   106   107    1
   110   106    99   am
   111    98    99    1
   112    98    97    1
   113    98   101    1
   114    99   100    2
   115   127   126    1
   116   127   128    2
   117    40    41    1
   118   126   125    1
   119   102   101    1
   120   102   103    1
   121    41    42    1
   122    91    92    2
   123   103   104    2
   124   103   105   am
   125    42    43    2
