@<TRIPOS>MOLECULE
tmp/4ygfG00.pdb
 127 122 0 0 0
SMALL
GASTEIGER

@<TRIPOS>ATOM
      1  N        -15.8660    2.3130 -158.8310 N.3    69  LYS69      -0.1245
      2  CA       -14.4310    2.3070 -158.5980 C.3    69  LYS69       0.1561
      3  C        -13.8640    3.6790 -158.2530 C.2    69  LYS69       0.2260
      4  O        -14.3080    4.6830 -158.7860 O.2    69  LYS69      -0.2867
      5  CB       -13.7500    1.7240 -159.8290 C.3    69  LYS69       0.0271
      6  CG       -12.2550    1.6550 -159.8090 C.3    69  LYS69       0.0035
      7  CD       -11.8630    0.6830 -160.8990 C.3    69  LYS69       0.0206
      8  CE       -10.4040    0.7230 -161.2530 C.3    69  LYS69       0.1093
      9  NZ       -10.1290   -0.3130 -162.2860 N.3    69  LYS69      -0.1314
     10  N         -3.5850    1.1510 -156.9970 N.3    88  ASP88      -0.1225
     11  CA        -4.2150    1.6640 -158.2210 C.3    88  ASP88       0.1805
     12  C         -5.6240    2.1970 -157.9380 C.2    88  ASP88       0.2597
     13  O         -6.0060    3.2920 -158.3740 O.2    88  ASP88      -0.2718
     14  CB        -4.2740    0.5640 -159.2960 C.3    88  ASP88       0.1424
     15  CG        -4.9240    1.0300 -160.6190 C.2    88  ASP88       0.3668
     16  OD1       -4.2120    1.5990 -161.4750 O.co2  88  ASP88      -0.2456
     17  OD2       -6.1360    0.7880 -160.8280 O.co2  88  ASP88      -0.2456
     18  N         -6.4030    1.3980 -157.2200 N.am   89  ASN89      -0.1974
     19  CA        -7.7930    1.7250 -156.9870 C.3    89  ASN89       0.1688
     20  C         -8.3980    0.9920 -155.8060 C.2    89  ASN89       0.2292
     21  O         -7.8290    0.0390 -155.3010 O.2    89  ASN89      -0.2864
     22  CB        -8.6280    1.4010 -158.2290 C.3    89  ASN89       0.1181
     23  CG        -8.8690   -0.1010 -158.4070 C.2    89  ASN89       0.2629
     24  OD1       -9.7840   -0.6610 -157.8040 O.2    89  ASN89      -0.2716
     25  ND2       -8.0810   -0.7430 -159.2700 N.am   89  ASN89      -0.0877
     26  N        -12.1870   -0.7080 -155.3580 N.3    91  HIS91      -0.1241
     27  CA       -13.4790   -0.9260 -155.9790 C.3    91  HIS91       0.1621
     28  C        -14.2360   -1.9060 -155.1020 C.2    91  HIS91       0.2264
     29  O        -13.6710   -2.4320 -154.1580 O.2    91  HIS91      -0.2867
     30  CB       -13.3500   -1.4510 -157.4080 C.3    91  HIS91       0.0745
     31  CG       -12.6610   -2.7700 -157.5010 C.ar   91  HIS91       0.0817
     32  ND1      -11.2940   -2.8920 -157.6100 N.ar   91  HIS91      -0.2268
     33  CD2      -13.1550   -4.0280 -157.5060 C.ar   91  HIS91       0.1154
     34  CE1      -10.9740   -4.1700 -157.6730 C.ar   91  HIS91       0.1986
     35  NE2      -12.0840   -4.8810 -157.6110 N.ar   91  HIS91      -0.2212
     36  N        -17.5310   -4.9990 -154.3220 N.3    93  HIS93      -0.1241
     37  CA       -18.3580   -6.1350 -154.7530 C.3    93  HIS93       0.1621
     38  C        -19.4920   -6.3310 -153.7920 C.2    93  HIS93       0.2264
     39  O        -19.3180   -6.1780 -152.5990 O.2    93  HIS93      -0.2867
     40  CB       -17.5290   -7.4110 -154.8690 C.3    93  HIS93       0.0745
     41  CG       -16.4560   -7.3110 -155.9130 C.ar   93  HIS93       0.0817
     42  ND1      -16.5390   -6.4510 -156.9770 N.ar   93  HIS93      -0.2268
     43  CD2      -15.2770   -7.9410 -156.0270 C.ar   93  HIS93       0.1154
     44  CE1      -15.4550   -6.5800 -157.7240 C.ar   93  HIS93       0.1986
     45  NE2      -14.6710   -7.4750 -157.1740 N.ar   93  HIS93      -0.2212
     46  N        -12.0380   -4.0500 -152.6060 N.3   110  HIS110     -0.1241
     47  CA       -10.7420   -4.5270 -153.0530 C.3   110  HIS110      0.1621
     48  C         -9.7510   -3.4040 -153.2330 C.2   110  HIS110      0.2264
     49  O         -9.9920   -2.4850 -153.9910 O.2   110  HIS110     -0.2867
     50  CB       -10.8910   -5.2700 -154.3710 C.3   110  HIS110      0.0745
     51  CG       -11.5660   -6.5950 -154.2490 C.ar  110  HIS110      0.0817
     52  ND1      -12.1680   -7.2190 -155.3160 N.ar  110  HIS110     -0.2268
     53  CD2      -11.6620   -7.4500 -153.2080 C.ar  110  HIS110      0.1154
     54  CE1      -12.6380   -8.3900 -154.9250 C.ar  110  HIS110      0.1986
     55  NE2      -12.3490   -8.5510 -153.6500 N.ar  110  HIS110     -0.2212
     56  N         -6.4210   -2.6200 -154.8070 N.3   112  VAL112     -0.1245
     57  CA        -5.5710   -3.1750 -155.8470 C.3   112  VAL112      0.1561
     58  C         -4.2400   -2.4620 -155.8930 C.2   112  VAL112      0.2260
     59  O         -4.1800   -1.2520 -156.0560 O.2   112  VAL112     -0.2867
     60  CB        -6.2350   -3.1030 -157.2360 C.3   112  VAL112      0.0252
     61  CG1       -5.2850   -3.5850 -158.3320 C.3   112  VAL112      0.0019
     62  CG2       -7.5190   -3.8910 -157.2520 C.3   112  VAL112      0.0019
     63  N         -0.1720   -2.4680 -157.5350 N.3   114  LYS114     -0.1197
     64  CA         0.6640   -2.9300 -158.6370 C.3   114  LYS114      0.1778
     65  C          2.0960   -2.5080 -158.3720 C.2   114  LYS114      0.2305
     66  O          2.3140   -1.4260 -157.8580 O.2   114  LYS114     -0.2863
     67  CB         0.2010   -2.3880 -160.0050 C.2   114  LYS114     -0.0042
     68  CG        -1.1270   -2.9580 -160.5350 C.2   114  LYS114     -0.0273
     69  CD        -1.7470   -2.1880 -161.7290 C.3   114  LYS114      0.0462
     70  CE        -3.2350   -2.5450 -161.9140 C.3   114  LYS114      0.1140
     71  NZ        -3.8740   -1.7930 -163.0140 N.3   114  LYS114     -0.1310
     72  N          0.8190   -7.8710 -159.0530 N.3   120  LEU120     -0.1245
     73  CA        -0.3620   -7.5140 -158.2930 C.3   120  LEU120      0.1561
     74  C         -0.4080   -8.0120 -156.8660 C.2   120  LEU120      0.2260
     75  O         -0.0010   -9.1320 -156.5720 O.2   120  LEU120     -0.2867
     76  CB        -1.5890   -8.0330 -159.0410 C.3   120  LEU120      0.0270
     77  CG        -1.8000   -7.4230 -160.4180 C.3   120  LEU120      0.0019
     78  CD1       -2.6800   -8.3010 -161.2630 C.3   120  LEU120      0.0001
     79  CD2       -2.4690   -6.0960 -160.2080 C.3   120  LEU120      0.0001
     80  N         -3.6010   -7.7520 -154.1010 N.3   122  VAL122     -0.1245
     81  CA        -4.8930   -7.1680 -153.8210 C.3   122  VAL122      0.1561
     82  C         -5.3420   -7.5790 -152.4320 C.2   122  VAL122      0.2260
     83  O         -5.2230   -8.7190 -152.0140 O.2   122  VAL122     -0.2867
     84  CB        -5.9430   -7.5320 -154.8800 C.3   122  VAL122      0.0252
     85  CG1       -7.2410   -6.7520 -154.6530 C.3   122  VAL122      0.0019
     86  CG2       -5.4030   -7.2360 -156.2560 C.3   122  VAL122      0.0019
     87  N         -7.1020  -12.7350 -160.6910 N.3   171  LEU171     -0.1231
     88  CA        -8.1250  -11.7210 -160.8070 C.3   171  LEU171      0.1693
     89  C         -9.5010  -12.3940 -160.7560 C.2   171  LEU171      0.2593
     90  O         -9.6740  -13.5050 -161.2570 O.2   171  LEU171     -0.2718
     91  CB        -7.9560  -10.9500 -162.1050 C.3   171  LEU171      0.0284
     92  CG        -6.6550  -10.1900 -162.3190 C.3   171  LEU171      0.0019
     93  CD1       -6.7050   -9.5190 -163.6810 C.3   171  LEU171      0.0001
     94  CD2       -6.4660   -9.1840 -161.2210 C.3   171  LEU171      0.0001
     95  N        -10.4720  -11.7310 -160.1370 N.am  172  THR172     -0.1939
     96  CA       -11.8210  -12.2890 -159.9970 C.3   172  THR172      0.2028
     97  C        -12.6790  -11.8070 -161.1460 C.2   172  THR172      0.2642
     98  O        -13.8800  -12.0450 -161.2000 O.2   172  THR172     -0.2714
     99  CB       -12.4900  -11.8930 -158.6600 C.3   172  THR172      0.1808
    100  OG1      -12.6740  -10.4820 -158.6170 O.3   172  THR172     -0.2208
    101  CG2      -11.6480  -12.3340 -157.4630 C.3   172  THR172      0.0379
    102  N        -12.0340  -11.0900 -162.0530 N.am  173  ALA173     -0.1963
    103  CA       -12.6710  -10.5790 -163.2500 C.3   173  ALA173      0.1713
    104  C        -11.7800  -10.8950 -164.4490 C.2   173  ALA173      0.2458
    105  O        -10.5750  -11.0730 -164.2840 O.2   173  ALA173     -0.2730
    106  CB       -12.9050   -9.0890 -163.1160 C.3   173  ALA173      0.0333
    107  N        -12.3600  -11.0080 -165.6500 N.am  174  PRO174     -0.2727
    108  CA       -11.5420  -11.2680 -166.8320 C.3   174  PRO174      0.1402
    109  C        -10.4190  -10.2630 -166.9230 C.2   174  PRO174      0.2269
    110  O        -10.6230   -9.1290 -166.4990 O.2   174  PRO174     -0.2865
    111  CB       -12.5290  -11.0970 -167.9720 C.3   174  PRO174      0.0296
    112  CG       -13.8070  -11.4800 -167.3890 C.3   174  PRO174      0.0237
    113  CD       -13.7860  -10.9690 -165.9880 C.3   174  PRO174      0.0939
    114  N         -3.0780  -12.4270 -152.6380 N.3   182  TRP182     -0.1241
    115  CA        -4.2870  -12.0350 -151.9320 C.3   182  TRP182      0.1605
    116  C         -4.0800  -11.9610 -150.4280 C.2   182  TRP182      0.2264
    117  O         -3.4520  -12.8200 -149.8210 O.2   182  TRP182     -0.2867
    118  CB        -5.4470  -12.9890 -152.2290 C.3   182  TRP182      0.0550
    119  CG        -6.1550  -12.6740 -153.4990 C.ar  182  TRP182      0.0003
    120  CD1       -5.9760  -13.2790 -154.6980 C.ar  182  TRP182      0.0946
    121  CD2       -7.1630  -11.6660 -153.7020 C.ar  182  TRP182      0.0152
    122  NE1       -6.8060  -12.7240 -155.6350 N.ar  182  TRP182     -0.2442
    123  CE2       -7.5460  -11.7280 -155.0530 C.ar  182  TRP182      0.0810
    124  CE3       -7.7790  -10.7140 -152.8680 C.ar  182  TRP182      0.0012
    125  CZ2       -8.5190  -10.8760 -155.6030 C.ar  182  TRP182      0.0191
    126  CZ3       -8.7550   -9.8710 -153.4150 C.ar  182  TRP182      0.0001
    127  CH2       -9.1060   -9.9580 -154.7650 C.ar  182  TRP182      0.0015
@<TRIPOS>BOND
     1   111   112    1
     2   111   108    1
     3   112   113    1
     4   109   108    1
     5   109   110    2
     6   108   107    1
     7   113   107    1
     8   107   104   am
     9   104   105    2
    10   104   103    1
    11    93    92    1
    12   103   106    1
    13   103   102    1
    14    71    70    1
    15    92    91    1
    16    92    94    1
    17     9     8    1
    18    91    88    1
    19   102    97   am
    20    70    69    1
    21    69    68    1
    22    16    15   ar
    23    78    77    1
    24    90    89    2
    25     8     7    1
    26    98    97    2
    27    97    96    1
    28     7     6    1
    29    17    15   ar
    30    88    89    1
    31    88    87    1
    32    89    95   am
    33    15    14    1
    34    68    67    2
    35    77    79    1
    36    77    76    1
    37    95    96    1
    38    67    64    1
    39    96    99    1
    40     5     6    1
    41     5     2    1
    42    14    11    1
    43    25    23   am
    44    72    73    1
    45    76    73    1
    46     1     2    1
    47     4     3    2
    48    99   100    1
    49    99   101    1
    50    64    65    1
    51    64    63    1
    52     2     3    1
    53    23    22    1
    54    23    24    2
    55    13    12    2
    56    65    66    2
    57    61    60    1
    58    73    74    1
    59    22    19    1
    60    11    12    1
    61    11    10    1
    62    12    18   am
    63    44    45   ar
    64    44    42   ar
    65    34    35   ar
    66    34    32   ar
    67    35    33   ar
    68    32    31   ar
    69    33    31   ar
    70    31    30    1
    71    30    27    1
    72    62    60    1
    73    60    57    1
    74    18    19    1
    75    45    43   ar
    76    19    20    1
    77    42    41   ar
    78    74    75    2
    79    86    84    1
    80    59    58    2
    81    43    41   ar
    82    27    26    1
    83    27    28    1
    84    41    40    1
    85    58    57    1
    86    57    56    1
    87    20    21    2
    88   122   123   ar
    89   122   120   ar
    90   125   123   ar
    91   125   127   ar
    92    52    54   ar
    93    52    51   ar
    94    28    29    2
    95   123   121   ar
    96    54    55   ar
    97    84    85    1
    98    84    81    1
    99    40    37    1
   100   127   126   ar
   101    37    36    1
   102    37    38    1
   103   120   119   ar
   104    50    51    1
   105    50    47    1
   106    51    53   ar
   107    80    81    1
   108    49    48    2
   109    81    82    1
   110    38    39    2
   111   121   119   ar
   112   121   124   ar
   113    55    53   ar
   114   119   118    1
   115   126   124   ar
   116    48    47    1
   117    47    46    1
   118   114   115    1
   119    82    83    2
   120   118   115    1
   121   115   116    1
   122   116   117    2
