@<TRIPOS>MOLECULE
tmp/4ygrA00.pdb
 131 126 0 0 0
SMALL
GASTEIGER

@<TRIPOS>ATOM
      1  N        -17.0280  -34.9780    6.9290 N.3     7  ASP7       -0.1239
      2  CA       -17.6790  -33.8650    7.6140 C.3     7  ASP7        0.1674
      3  C        -18.5760  -33.1230    6.6060 C.2     7  ASP7        0.2266
      4  O        -18.3980  -33.2890    5.4090 O.2     7  ASP7       -0.2867
      5  CB       -16.6030  -32.9420    8.1860 C.3     7  ASP7        0.1410
      6  CG       -17.1620  -31.6590    8.7410 C.2     7  ASP7        0.3668
      7  OD1      -18.0220  -31.7390    9.6340 O.co2   7  ASP7       -0.2456
      8  OD2      -16.7200  -30.5790    8.2990 O.co2   7  ASP7       -0.2456
      9  N        -19.9930  -29.2970    7.1220 N.3     9  ASP9       -0.1239
     10  CA       -19.8180  -27.8490    7.0510 C.3     9  ASP9        0.1674
     11  C        -18.3670  -27.4220    6.8410 C.2     9  ASP9        0.2266
     12  O        -17.4950  -27.6900    7.6810 O.2     9  ASP9       -0.2867
     13  CB       -20.3840  -27.2070    8.3310 C.3     9  ASP9        0.1410
     14  CG       -21.9000  -27.2490    8.3680 C.2     9  ASP9        0.3668
     15  OD1      -22.5130  -26.8340    7.3640 O.co2   9  ASP9       -0.2456
     16  OD2      -22.4860  -27.6680    9.3990 O.co2   9  ASP9       -0.2456
     17  N        -22.7210  -23.2540    4.5480 N.3    15  GLU15      -0.1245
     18  CA       -23.9570  -22.5470    4.7990 C.3    15  GLU15       0.1567
     19  C        -23.7120  -21.0600    5.0710 C.2    15  GLU15       0.2260
     20  O        -24.6290  -20.3670    5.5040 O.2    15  GLU15      -0.2867
     21  CB       -24.7130  -23.1870    5.9770 C.3    15  GLU15       0.0388
     22  CG       -24.0050  -23.0020    7.3330 C.3    15  GLU15       0.1160
     23  CD       -24.7000  -23.7130    8.4910 C.2    15  GLU15       0.3649
     24  OE1      -25.6990  -24.4230    8.2660 O.co2  15  GLU15      -0.2457
     25  OE2      -24.2140  -23.5710    9.6310 O.co2  15  GLU15      -0.2457
     26  N        -26.2190  -18.0050    6.5160 N.3    19  ILE19      -0.1245
     27  CA       -25.9150  -17.3040    7.7610 C.3    19  ILE19       0.1561
     28  C        -25.9570  -15.7920    7.5560 C.2    19  ILE19       0.2260
     29  O        -26.5800  -15.0670    8.3400 O.2    19  ILE19      -0.2867
     30  CB       -24.5390  -17.7310    8.3030 C.3    19  ILE19       0.0252
     31  CG1      -24.5810  -19.2120    8.6840 C.3    19  ILE19       0.0019
     32  CG2      -24.1380  -16.8790    9.5020 C.3    19  ILE19       0.0019
     33  CD1      -23.2250  -19.7810    9.0720 C.3    19  ILE19       0.0001
     34  N        -22.9380  -17.5630   21.5500 N.3    49  ILE49      -0.1245
     35  CA       -22.3480  -18.5770   20.6840 C.3    49  ILE49       0.1561
     36  C        -20.8960  -18.8130   21.1170 C.2    49  ILE49       0.2260
     37  O        -20.4900  -19.9530   21.3660 O.2    49  ILE49      -0.2867
     38  CB       -22.4150  -18.1620   19.2050 C.3    49  ILE49       0.0252
     39  CG1      -23.8700  -18.2040   18.7160 C.3    49  ILE49       0.0019
     40  CG2      -21.5420  -19.0670   18.3430 C.3    49  ILE49       0.0019
     41  CD1      -24.0340  -17.7820   17.2510 C.3    49  ILE49       0.0001
     42  N        -23.2300  -25.9170   20.9750 N.3    58  TRP58      -0.1227
     43  CA       -22.6410  -24.9920   20.0050 C.3    58  TRP58       0.1737
     44  C        -22.9790  -25.3670   18.5700 C.2    58  TRP58       0.2595
     45  O        -22.9840  -24.5170   17.6730 O.2    58  TRP58      -0.2718
     46  CB       -21.1200  -24.9690   20.1690 C.3    58  TRP58       0.0564
     47  CG       -20.3820  -23.9500   19.3200 C.ar   58  TRP58       0.0003
     48  CD1      -20.2560  -22.6140   19.5680 C.ar   58  TRP58       0.0946
     49  CD2      -19.6430  -24.2070   18.1180 C.ar   58  TRP58       0.0152
     50  NE1      -19.4890  -22.0200   18.5920 N.ar   58  TRP58      -0.2442
     51  CE2      -19.1070  -22.9760   17.6850 C.ar   58  TRP58       0.0810
     52  CE3      -19.3990  -25.3540   17.3570 C.ar   58  TRP58       0.0012
     53  CZ2      -18.3370  -22.8610   16.5310 C.ar   58  TRP58       0.0191
     54  CZ3      -18.6270  -25.2430   16.2160 C.ar   58  TRP58       0.0001
     55  CH2      -18.0980  -24.0070   15.8150 C.ar   58  TRP58       0.0015
     56  N        -23.2560  -26.6450   18.3640 N.am   59  HIS59      -0.1975
     57  CA       -23.4390  -27.1800   17.0200 C.3    59  HIS59       0.1656
     58  C        -24.8360  -27.0840   16.4250 C.2    59  HIS59       0.2291
     59  O        -25.0430  -27.4770   15.2720 O.2    59  HIS59      -0.2864
     60  CB       -22.9980  -28.6320   17.0110 C.3    59  HIS59       0.0771
     61  CG       -21.5150  -28.7840   17.0960 C.ar   59  HIS59       0.0820
     62  ND1      -20.6990  -28.5840   16.0020 N.ar   59  HIS59      -0.2267
     63  CD2      -20.7010  -29.0710   18.1360 C.ar   59  HIS59       0.1154
     64  CE1      -19.4390  -28.7510   16.3680 C.ar   59  HIS59       0.1986
     65  NE2      -19.4120  -29.0600   17.6520 N.ar   59  HIS59      -0.2212
     66  N        -28.0850  -24.6760   15.5380 N.3    61  TRP61      -0.1241
     67  CA       -28.6830  -23.3470   15.4190 C.3    61  TRP61       0.1605
     68  C        -29.9730  -23.2120   16.2220 C.2    61  TRP61       0.2264
     69  O        -30.2670  -22.1430   16.7680 O.2    61  TRP61      -0.2867
     70  CB       -28.9780  -23.0150   13.9540 C.3    61  TRP61       0.0550
     71  CG       -27.7760  -22.5740   13.1990 C.ar   61  TRP61       0.0003
     72  CD1      -27.1280  -23.2600   12.2050 C.ar   61  TRP61       0.0946
     73  CD2      -27.0640  -21.3400   13.3670 C.ar   61  TRP61       0.0152
     74  NE1      -26.0580  -22.5260   11.7480 N.ar   61  TRP61      -0.2442
     75  CE2      -25.9960  -21.3460   12.4400 C.ar   61  TRP61       0.0810
     76  CE3      -27.2270  -20.2310   14.2040 C.ar   61  TRP61       0.0012
     77  CZ2      -25.0900  -20.2910   12.3310 C.ar   61  TRP61       0.0191
     78  CZ3      -26.3330  -19.1800   14.0920 C.ar   61  TRP61       0.0001
     79  CH2      -25.2750  -19.2190   13.1580 C.ar   61  TRP61       0.0015
     80  N        -29.7060  -22.0210   19.7990 N.3    64  PHE64      -0.1241
     81  CA       -29.5610  -20.5910   20.0120 C.3    64  PHE64       0.1605
     82  C        -30.8690  -19.8590   19.7590 C.2    64  PHE64       0.2264
     83  O        -31.1970  -18.9160   20.4700 O.2    64  PHE64      -0.2867
     84  CB       -28.4320  -20.0410   19.1490 C.3    64  PHE64       0.0534
     85  CG       -27.0880  -20.5610   19.5650 C.ar   64  PHE64      -0.0203
     86  CD1      -26.4930  -20.0930   20.7220 C.ar   64  PHE64      -0.0042
     87  CD2      -26.4560  -21.5640   18.8460 C.ar   64  PHE64      -0.0042
     88  CE1      -25.2710  -20.5840   21.1470 C.ar   64  PHE64      -0.0003
     89  CE2      -25.2330  -22.0630   19.2620 C.ar   64  PHE64      -0.0003
     90  CZ       -24.6370  -21.5730   20.4170 C.ar   64  PHE64      -0.0000
     91  N        -21.1680  -33.1830   13.6340 N.3   110  SER110     -0.1217
     92  CA       -21.5790  -32.7970   14.9840 C.3   110  SER110      0.1889
     93  C        -22.8730  -31.9880   14.9970 C.2   110  SER110      0.2288
     94  O        -23.4540  -31.7380   16.0630 O.2   110  SER110     -0.2866
     95  CB       -20.4640  -31.9970   15.6660 C.3   110  SER110      0.2089
     96  OG       -19.3190  -32.8140   15.8280 O.3   110  SER110     -0.2183
     97  N        -31.1090  -31.7820   11.2490 N.3   114  TYR114     -0.1241
     98  CA       -31.3100  -30.9770   10.0340 C.3   114  TYR114      0.1605
     99  C        -30.0960  -31.0170    9.0960 C.2   114  TYR114      0.2264
    100  O        -30.1890  -30.5480    7.9630 O.2   114  TYR114     -0.2867
    101  CB       -31.6810  -29.5060   10.3410 C.3   114  TYR114      0.0534
    102  CG       -30.6620  -28.6560   11.0880 C.ar  114  TYR114     -0.0201
    103  CD1      -29.3790  -28.4460   10.5920 C.ar  114  TYR114     -0.0009
    104  CD2      -31.0180  -28.0070   12.2600 C.ar  114  TYR114     -0.0009
    105  CE1      -28.4590  -27.6750   11.2850 C.ar  114  TYR114      0.0417
    106  CE2      -30.1200  -27.2170   12.9460 C.ar  114  TYR114      0.0417
    107  CZ       -28.8460  -27.0540   12.4620 C.ar  114  TYR114      0.1957
    108  OH       -27.9560  -26.2820   13.1670 O.3   114  TYR114     -0.2866
    109  N        -12.7920  -30.3600    8.0660 N.3   166  ASP166     -0.1225
    110  CA       -12.0460  -29.1050    8.1660 C.3   166  ASP166      0.1805
    111  C        -11.7080  -28.6900    9.5990 C.2   166  ASP166      0.2598
    112  O        -11.0960  -27.6390    9.8030 O.2   166  ASP166     -0.2718
    113  CB       -12.8040  -27.9720    7.4490 C.3   166  ASP166      0.1424
    114  CG       -13.9480  -27.3670    8.2730 C.2   166  ASP166      0.3668
    115  OD1      -14.4580  -28.0000    9.2300 O.co2 166  ASP166     -0.2456
    116  OD2      -14.3570  -26.2300    7.9280 O.co2 166  ASP166     -0.2456
    117  N        -12.0960  -29.5100   10.5830 N.am  167  SER167     -0.1952
    118  CA       -11.7730  -29.2310   11.9890 C.3   167  SER167      0.1924
    119  C        -10.6370  -30.1060   12.5310 C.2   167  SER167      0.2314
    120  O        -10.7440  -31.3330   12.5830 O.2   167  SER167     -0.2863
    121  CB       -13.0270  -29.4180   12.8640 C.3   167  SER167      0.2116
    122  OG       -12.6840  -29.3150   14.2390 O.3   167  SER167     -0.2180
    123  N        -12.2360  -31.6560   15.9480 N.3   170  GLN170     -0.1245
    124  CA       -13.3320  -32.6010   15.7390 C.3   170  GLN170      0.1566
    125  C        -12.9560  -33.7490   14.8260 C.2   170  GLN170      0.2260
    126  O        -13.1680  -34.9190   15.1480 O.2   170  GLN170     -0.2867
    127  CB       -14.5530  -31.9210   15.1120 C.3   170  GLN170      0.0367
    128  CG       -15.2770  -30.9100   15.9800 C.3   170  GLN170      0.0905
    129  CD       -16.4560  -30.3440   15.2210 C.2   170  GLN170      0.2608
    130  OE1      -17.4470  -31.0410   15.0080 O.2   170  GLN170     -0.2717
    131  NE2      -16.3360  -29.0960   14.7650 N.am  170  GLN170     -0.0878
@<TRIPOS>BOND
     1    17    18    1
     2    18    19    1
     3    18    21    1
     4    19    20    2
     5     4     3    2
     6    21    22    1
     7    26    27    1
     8     3     2    1
     9    11    10    1
    10    11    12    2
    11     1     2    1
    12    10     9    1
    13    10    13    1
    14    22    23    1
    15    15    14   ar
    16   113   110    1
    17   113   114    1
    18    28    27    1
    19    28    29    2
    20     2     5    1
    21    27    30    1
    22   116   114   ar
    23   100    99    2
    24   109   110    1
    25   110   111    1
    26     5     6    1
    27    24    23   ar
    28   114   115   ar
    29     8     6   ar
    30    30    31    1
    31    30    32    1
    32    13    14    1
    33    14    16   ar
    34    23    25   ar
    35    31    33    1
    36     6     7   ar
    37    99    98    1
    38   111   112    2
    39   111   117   am
    40    98   101    1
    41    98    97    1
    42   101   102    1
    43   117   118    1
    44   103   102   ar
    45   103   105   ar
    46   102   104   ar
    47   105   107   ar
    48    74    72   ar
    49    74    75   ar
    50   118   119    1
    51   118   121    1
    52    72    71   ar
    53   104   106   ar
    54    77    75   ar
    55    77    79   ar
    56    75    73   ar
    57   107   106   ar
    58   107   108    1
    59   119   120    2
    60   121   122    1
    61    79    78   ar
    62    71    73   ar
    63    71    70    1
    64    73    76   ar
    65    91    92    1
    66    70    67    1
    67    78    76   ar
    68   131   129   am
    69   125   126    2
    70   125   124    1
    71    92    93    1
    72    92    95    1
    73    93    94    2
    74   130   129    2
    75   127   124    1
    76   127   128    1
    77   129   128    1
    78    59    58    2
    79    67    66    1
    80    67    68    1
    81    95    96    1
    82   124   123    1
    83    55    54   ar
    84    55    53   ar
    85    62    64   ar
    86    62    61   ar
    87    54    52   ar
    88    68    69    2
    89    64    65   ar
    90    58    57    1
    91    53    51   ar
    92    60    57    1
    93    60    61    1
    94    57    56    1
    95    61    63   ar
    96    41    39    1
    97    52    49   ar
    98    65    63   ar
    99    45    44    2
   100    51    49   ar
   101    51    50   ar
   102    49    47   ar
   103    40    38    1
   104    56    44   am
   105    44    43    1
   106    50    48   ar
   107    39    38    1
   108    87    89   ar
   109    87    85   ar
   110    84    85    1
   111    84    81    1
   112    38    35    1
   113    89    90   ar
   114    47    48   ar
   115    47    46    1
   116    85    86   ar
   117    82    81    1
   118    82    83    2
   119    80    81    1
   120    43    46    1
   121    43    42    1
   122    90    88   ar
   123    35    36    1
   124    35    34    1
   125    86    88   ar
   126    36    37    2
