@<TRIPOS>MOLECULE
tmp/4yguD00.pdb
 103 98 0 0 0
SMALL
GASTEIGER

@<TRIPOS>ATOM
      1  N         12.0460   30.5090   54.8410 N.3    18  SER18      -0.1202
      2  CA        10.7840   30.5380   55.6070 C.3    18  SER18       0.2020
      3  C          9.5240   30.5820   54.7280 C.2    18  SER18       0.2618
      4  O          9.6170   30.7860   53.5160 O.2    18  SER18      -0.2717
      5  CB        10.7490   31.7710   56.5200 C.3    18  SER18       0.2103
      6  OG         9.6160   31.9020   57.2210 O.3    18  SER18      -0.2182
      7  N          8.3300   30.4170   55.3650 N.am   19  VAL19      -0.1979
      8  CA         7.0650   30.5900   54.6540 C.3    19  VAL19       0.1595
      9  C          6.3730   31.8420   55.3260 C.2    19  VAL19       0.2287
     10  O          6.2940   31.9750   56.5620 O.2    19  VAL19      -0.2864
     11  CB         6.1500   29.3300   54.5130 C.3    19  VAL19       0.0276
     12  CG1        6.7730   28.0620   55.0800 C.3    19  VAL19       0.0022
     13  CG2        4.7090   29.5500   54.9570 C.3    19  VAL19       0.0022
     14  N          4.6010   29.4600   64.8090 N.3    40  TYR40      -0.1241
     15  CA         5.4810   29.8240   63.6940 C.3    40  TYR40       0.1605
     16  C          6.4720   30.9200   64.0930 C.2    40  TYR40       0.2264
     17  O          7.6410   30.8240   63.7260 O.2    40  TYR40      -0.2867
     18  CB         4.6880   30.2720   62.4640 C.3    40  TYR40       0.0534
     19  CG         3.6870   29.2500   61.9830 C.ar   40  TYR40      -0.0201
     20  CD1        4.0810   27.9520   61.6660 C.ar   40  TYR40      -0.0009
     21  CD2        2.3600   29.6000   61.7660 C.ar   40  TYR40      -0.0009
     22  CE1        3.1540   26.9970   61.2620 C.ar   40  TYR40       0.0417
     23  CE2        1.4360   28.6720   61.2960 C.ar   40  TYR40       0.0417
     24  CZ         1.8410   27.3720   61.0300 C.ar   40  TYR40       0.1957
     25  OH         0.9360   26.4350   60.5900 O.3    40  TYR40      -0.2866
     26  N          9.1280   29.4070   66.2670 N.3    43  ASN43      -0.1225
     27  CA        10.0080   28.5000   65.5390 C.3    43  ASN43       0.1785
     28  C         10.8410   29.2790   64.4730 C.2    43  ASN43       0.2597
     29  O         11.6330   28.6630   63.7570 O.2    43  ASN43      -0.2718
     30  CB         9.2080   27.3620   64.8950 C.3    43  ASN43       0.1169
     31  CG        10.0680   26.2770   64.2950 C.2    43  ASN43       0.2627
     32  OD1       11.0840   25.8580   64.8860 O.2    43  ASN43      -0.2716
     33  ND2        9.7050   25.8490   63.0790 N.am   43  ASN43      -0.0877
     34  N         10.7110   30.6220   64.3920 N.am   44  THR44      -0.1953
     35  CA        11.5130   31.3960   63.4430 C.3    44  THR44       0.1897
     36  C         12.7930   31.8600   64.1560 C.2    44  THR44       0.2313
     37  O         12.7240   32.5590   65.1700 O.2    44  THR44      -0.2863
     38  CB        10.7190   32.5660   62.8420 C.3    44  THR44       0.1794
     39  OG1        9.5150   32.0700   62.2620 O.3    44  THR44      -0.2208
     40  CG2       11.5140   33.3190   61.7840 C.3    44  THR44       0.0378
     41  N         14.4600   28.2470   60.4350 N.3    57  PHE57      -0.1241
     42  CA        13.7080   27.5430   61.4720 C.3    57  PHE57       0.1605
     43  C         14.6300   27.1170   62.6040 C.2    57  PHE57       0.2264
     44  O         15.7840   26.7770   62.3570 O.2    57  PHE57      -0.2867
     45  CB        12.9640   26.3170   60.8950 C.3    57  PHE57       0.0534
     46  CG        11.9880   26.6630   59.7800 C.ar   57  PHE57      -0.0203
     47  CD1       12.4250   26.7880   58.4640 C.ar   57  PHE57      -0.0042
     48  CD2       10.6690   27.0030   60.0640 C.ar   57  PHE57      -0.0042
     49  CE1       11.5330   27.1280   57.4400 C.ar   57  PHE57      -0.0003
     50  CE2        9.7790   27.3530   59.0380 C.ar   57  PHE57      -0.0003
     51  CZ        10.2130   27.4010   57.7350 C.ar   57  PHE57      -0.0000
     52  N         11.0640   20.5600   61.1460 N.3    61  LYS61      -0.1245
     53  CA         9.7970   19.8520   61.3170 C.3    61  LYS61       0.1561
     54  C          9.1330   19.6550   59.9460 C.2    61  LYS61       0.2260
     55  O          9.0880   20.5920   59.1340 O.2    61  LYS61      -0.2867
     56  CB         8.8720   20.6100   62.2840 C.3    61  LYS61       0.0271
     57  CG         8.4930   21.9460   61.7680 C.3    61  LYS61       0.0035
     58  CD         7.4250   22.3370   62.7170 C.3    61  LYS61       0.0206
     59  CE         6.3640   22.9810   61.8530 C.3    61  LYS61       0.1093
     60  NZ         5.1180   23.0560   62.6020 N.3    61  LYS61      -0.1314
     61  N          5.8310   18.3850   57.2250 N.3    63  LYS63      -0.1231
     62  CA         4.4490   18.7810   56.8930 C.3    63  LYS63       0.1693
     63  C          4.3280   20.3130   56.7680 C.2    63  LYS63       0.2592
     64  O          4.0320   21.0020   57.7540 O.2    63  LYS63      -0.2718
     65  CB         3.4300   18.2460   57.9260 C.3    63  LYS63       0.0285
     66  CG         3.1870   16.7890   57.9830 C.3    63  LYS63       0.0035
     67  CD         2.7760   16.1220   56.6970 C.3    63  LYS63       0.0206
     68  CE         2.8260   14.5790   56.8520 C.3    63  LYS63       0.1093
     69  NZ         3.9790   14.1450   57.7870 N.3    63  LYS63      -0.1314
     70  N          4.5380   20.8250   55.5270 N.am   64  SER64      -0.1952
     71  CA         4.4670   22.2450   55.1780 C.3    64  SER64       0.1924
     72  C          3.6190   22.4530   53.9190 C.2    64  SER64       0.2314
     73  O          3.2530   23.5810   53.5840 O.2    64  SER64      -0.2863
     74  CB         5.8690   22.8100   54.9700 C.3    64  SER64       0.2116
     75  OG         5.8920   24.0970   54.6020 O.3    64  SER64      -0.2180
     76  N          1.4580   26.3400   53.7460 N.3    65  LYS65      -0.1231
     77  CA         1.2820   27.3180   52.6690 C.3    65  LYS65       0.1693
     78  C          0.8060   28.6940   53.2300 C.2    65  LYS65       0.2592
     79  O          0.4080   29.5630   52.4530 O.2    65  LYS65      -0.2718
     80  CB         0.2840   26.7840   51.6270 C.3    65  LYS65       0.0285
     81  CG         0.7420   25.5100   50.9720 C.3    65  LYS65       0.0035
     82  CD         2.0800   25.7080   50.2970 C.3    65  LYS65       0.0206
     83  CE         2.5960   24.4090   49.7530 C.3    65  LYS65       0.1093
     84  NZ         3.5180   24.7110   48.6600 N.3    65  LYS65      -0.1314
     85  N          0.8770   28.8740   54.5830 N.am   66  ASP66      -0.1960
     86  CA         0.5210   30.0780   55.3710 C.3    66  ASP66       0.1840
     87  C          1.3930   30.1510   56.6570 C.2    66  ASP66       0.2623
     88  O          1.4650   29.1660   57.4080 O.2    66  ASP66      -0.2715
     89  CB        -0.9780   30.0940   55.7280 C.3    66  ASP66       0.1450
     90  CG        -1.4370   31.3820   56.3790 C.2    66  ASP66       0.3671
     91  OD1       -1.4660   32.4260   55.6780 O.co2  66  ASP66      -0.2456
     92  OD2       -1.8080   31.3410   57.5770 O.co2  66  ASP66      -0.2456
     93  N          2.0470   31.3060   56.8750 N.am   67  GLY67      -0.1940
     94  CA         2.9670   31.4860   57.9930 C.3    67  GLY67       0.2014
     95  C          3.0720   32.8380   58.6660 C.2    67  GLY67       0.2638
     96  O          2.1530   33.2560   59.3790 O.2    67  GLY67      -0.2714
     97  N          4.2370   33.4870   58.5310 N.am   68  VAL68      -0.1977
     98  CA         4.5140   34.7240   59.2630 C.3    68  VAL68       0.1596
     99  C          4.5990   35.9540   58.3520 C.2    68  VAL68       0.2287
    100  O          4.7350   35.8380   57.1210 O.2    68  VAL68      -0.2864
    101  CB         5.8450   34.6200   60.0730 C.3    68  VAL68       0.0276
    102  CG1        5.7650   33.5380   61.1550 C.3    68  VAL68       0.0022
    103  CG2        7.0570   34.3940   59.1590 C.3    68  VAL68       0.0022
@<TRIPOS>BOND
     1    84    83    1
     2    83    82    1
     3    82    81    1
     4    81    80    1
     5    80    77    1
     6    79    78    2
     7    77    78    1
     8    77    76    1
     9    78    85   am
    10     4     3    2
    11    73    72    2
    12    72    71    1
    13    11     8    1
    14    11    13    1
    15    11    12    1
    16    85    86    1
    17    75    74    1
    18     8     9    1
    19     8     7    1
    20     3     7   am
    21     3     2    1
    22     1     2    1
    23    74    71    1
    24    71    70    1
    25     9    10    2
    26    86    89    1
    27    86    87    1
    28    70    63   am
    29     2     5    1
    30    91    90   ar
    31    89    90    1
    32    90    92   ar
    33     5     6    1
    34    87    93   am
    35    87    88    2
    36    67    68    1
    37    67    66    1
    38    63    62    1
    39    63    64    2
    40    68    69    1
    41    93    94    1
    42    62    61    1
    43    62    65    1
    44   100    99    2
    45    49    51   ar
    46    49    47   ar
    47    51    50   ar
    48    65    66    1
    49    94    95    1
    50    99    98    1
    51    47    46   ar
    52    97    95   am
    53    97    98    1
    54    95    96    2
    55    50    48   ar
    56    55    54    2
    57   103   101    1
    58    98   101    1
    59    46    48   ar
    60    46    45    1
    61    54    53    1
    62   101   102    1
    63    41    42    1
    64    25    24    1
    65    45    42    1
    66    24    22   ar
    67    24    23   ar
    68    52    53    1
    69    22    20   ar
    70    23    21   ar
    71    53    56    1
    72    42    43    1
    73    20    19   ar
    74    21    19   ar
    75    57    56    1
    76    57    58    1
    77    40    38    1
    78    59    60    1
    79    59    58    1
    80    19    18    1
    81    39    38    1
    82    44    43    2
    83    18    15    1
    84    38    35    1
    85    33    31   am
    86    35    36    1
    87    35    34    1
    88    15    16    1
    89    15    14    1
    90    17    16    2
    91    29    28    2
    92    36    37    2
    93    31    32    2
    94    31    30    1
    95    34    28   am
    96    28    27    1
    97    30    27    1
    98    27    26    1
