@<TRIPOS>MOLECULE
tmp/4ygxD00.pdb
 80 76 0 0 0
SMALL
GASTEIGER

@<TRIPOS>ATOM
      1  N        157.7410  -54.3020   98.4160 N.3    11  SER11      -0.1217
      2  CA       157.2760  -55.7100   98.5760 C.3    11  SER11       0.1889
      3  C        155.7790  -55.7600   98.9140 C.2    11  SER11       0.2288
      4  O        155.0100  -56.2950   98.1440 O.2    11  SER11      -0.2866
      5  CB       158.1450  -56.4310   99.6160 C.3    11  SER11       0.2089
      6  OG       157.7670  -57.7610   99.7230 O.3    11  SER11      -0.2183
      7  N        154.7390  -58.2810   95.9590 N.3    37  GLY37      -0.1210
      8  CA       154.5970  -59.6000   96.5410 C.3    37  GLY37       0.1956
      9  C        153.3020  -60.3250   96.1920 C.2    37  GLY37       0.2611
     10  O        152.3610  -59.7000   95.6560 O.2    37  GLY37      -0.2717
     11  N        153.2350  -61.6320   96.4900 N.am   38  GLU38      -0.1979
     12  CA       152.0030  -62.4070   96.2440 C.3    38  GLU38       0.1602
     13  C        150.9560  -62.0980   97.3240 C.2    38  GLU38       0.2287
     14  O        149.7770  -61.9500   97.0520 O.2    38  GLU38      -0.2864
     15  CB       152.3060  -63.8910   96.1600 C.3    38  GLU38       0.0415
     16  CG       153.2610  -64.2050   95.0250 C.3    38  GLU38       0.1163
     17  CD       153.1380  -65.6250   94.5330 C.2    38  GLU38       0.3649
     18  OE1      154.0580  -66.0860   93.8150 O.co2  38  GLU38      -0.2457
     19  OE2      152.1190  -66.2720   94.8630 O.co2  38  GLU38      -0.2457
     20  N        153.2790  -59.3950  103.7210 N.3    41  LYS41      -0.1231
     21  CA       154.0900  -60.0810  104.7390 C.3    41  LYS41       0.1693
     22  C        154.6810  -59.1120  105.7670 C.2    41  LYS41       0.2592
     23  O        155.4220  -58.1950  105.3920 O.2    41  LYS41      -0.2718
     24  CB       155.1770  -60.9290  104.0930 C.3    41  LYS41       0.0285
     25  CG       154.6090  -62.1470  103.3850 C.3    41  LYS41       0.0035
     26  CD       155.6840  -63.1850  103.1170 C.3    41  LYS41       0.0206
     27  CE       155.0710  -64.5180  102.7130 C.3    41  LYS41       0.1093
     28  NZ       156.0840  -65.6070  102.6430 N.3    41  LYS41      -0.1314
     29  N        154.3350  -59.3340  107.0500 N.am   42  LEU42      -0.1966
     30  CA       154.8250  -58.5690  108.2090 C.3    42  LEU42       0.1713
     31  C        155.5760  -59.4410  109.1830 C.2    42  LEU42       0.2458
     32  O        155.2170  -60.5980  109.3350 O.2    42  LEU42      -0.2730
     33  CB       153.7170  -57.7820  108.9000 C.3    42  LEU42       0.0310
     34  CG       153.1720  -56.6650  108.0220 C.3    42  LEU42       0.0022
     35  CD1      152.1550  -55.8310  108.7750 C.3    42  LEU42       0.0001
     36  CD2      154.2930  -55.7770  107.5040 C.3    42  LEU42       0.0001
     37  N        156.6140  -58.9150  109.8770 N.am   43  PRO43      -0.2727
     38  CA       157.3320  -59.7500  110.8720 C.3    43  PRO43       0.1402
     39  C        156.4770  -60.1540  112.0630 C.2    43  PRO43       0.2269
     40  O        155.5220  -59.4600  112.3880 O.2    43  PRO43      -0.2865
     41  CB       158.4570  -58.8380  111.3700 C.3    43  PRO43       0.0296
     42  CG       157.9090  -57.4840  111.1800 C.3    43  PRO43       0.0237
     43  CD       157.1210  -57.5400  109.8940 C.3    43  PRO43       0.0939
     44  N        161.2160  -65.2990  112.8880 N.3    47  PHE47      -0.1241
     45  CA       161.5570  -65.2780  111.4430 C.3    47  PHE47       0.1605
     46  C        160.6870  -66.2560  110.6600 C.2    47  PHE47       0.2264
     47  O        160.2290  -65.9260  109.5630 O.2    47  PHE47      -0.2867
     48  CB       163.0410  -65.6350  111.2040 C.3    47  PHE47       0.0534
     49  CG       163.4580  -65.5920  109.7400 C.ar   47  PHE47      -0.0203
     50  CD1      163.7840  -64.3760  109.1180 C.ar   47  PHE47      -0.0042
     51  CD2      163.5160  -66.7620  108.9750 C.ar   47  PHE47      -0.0042
     52  CE1      164.1580  -64.3300  107.7770 C.ar   47  PHE47      -0.0003
     53  CE2      163.8900  -66.7190  107.6330 C.ar   47  PHE47      -0.0003
     54  CZ       164.2120  -65.5040  107.0350 C.ar   47  PHE47      -0.0000
     55  N        155.6730  -65.4430  110.3860 N.3    50  PRO50      -0.2116
     56  CA       155.3140  -64.0810  109.9500 C.3    50  PRO50       0.1372
     57  C        153.7900  -63.8300  109.8890 C.2    50  PRO50       0.2244
     58  O        153.0120  -64.7780  110.0030 O.2    50  PRO50      -0.2868
     59  CB       155.8800  -64.0460  108.5420 C.3    50  PRO50       0.0268
     60  CG       155.6210  -65.4290  108.0500 C.3    50  PRO50       0.0207
     61  CD       155.9480  -66.3120  109.2270 C.3    50  PRO50       0.0892
     62  N        165.1780  -56.1630   93.2210 N.3   112  ARG112     -0.1245
     63  CA       164.3020  -57.3320   93.1640 C.3   112  ARG112      0.1563
     64  C        162.8750  -56.9050   92.7880 C.2   112  ARG112      0.2260
     65  O        162.2260  -57.5710   91.9470 O.2   112  ARG112     -0.2867
     66  CB       164.2530  -57.9230   94.5620 C.3   112  ARG112      0.0307
     67  CG       164.4960  -59.4220   94.6660 C.3   112  ARG112      0.0489
     68  CD       164.3060  -59.9210   96.1030 C.3   112  ARG112      0.2205
     69  NE       163.2830  -59.1740   96.8630 N.pl3 112  ARG112     -0.0865
     70  CZ       161.9590  -59.2300   96.6520 C.cat 112  ARG112      0.5346
     71  NH1      161.4390  -59.9960   95.6970 N.pl3 112  ARG112      0.1354
     72  NH2      161.1330  -58.5040   97.3980 N.pl3 112  ARG112      0.1354
     73  N        165.0860  -52.4690  104.2070 N.3   141  ASN141     -0.1240
     74  CA       163.7720  -52.6340  104.8520 C.3   141  ASN141      0.1653
     75  C        163.7460  -52.6410  106.3630 C.2   141  ASN141      0.2266
     76  O        163.7420  -53.6670  107.0200 O.2   141  ASN141     -0.2867
     77  CB       162.9850  -53.8410  104.3450 C.3   141  ASN141      0.1155
     78  CG       161.5240  -53.5480  104.3270 C.2   141  ASN141      0.2627
     79  OD1      161.0760  -52.6160  104.9810 O.2   141  ASN141     -0.2716
     80  ND2      160.7880  -54.2550  103.5310 N.am  141  ASN141     -0.0877
@<TRIPOS>BOND
     1    65    64    2
     2    64    63    1
     3    63    62    1
     4    63    66    1
     5    18    17   ar
     6    17    19   ar
     7    17    16    1
     8    66    67    1
     9    67    68    1
    10    16    15    1
    11    10     9    2
    12    71    70    1
    13     7     8    1
    14    68    69    1
    15    15    12    1
    16     9    11   am
    17     9     8    1
    18    12    11    1
    19    12    13    1
    20    70    69    2
    21    70    72    1
    22    14    13    2
    23     4     3    2
    24     1     2    1
    25     2     3    1
    26     2     5    1
    27     5     6    1
    28    28    27    1
    29    27    26    1
    30    26    25    1
    31    25    24    1
    32    80    78   am
    33    20    21    1
    34    24    21    1
    35    73    74    1
    36    78    77    1
    37    78    79    2
    38    77    74    1
    39    21    22    1
    40    74    75    1
    41    23    22    2
    42    22    29   am
    43    75    76    2
    44    54    53   ar
    45    54    52   ar
    46    29    30    1
    47    36    34    1
    48    53    51   ar
    49    52    50   ar
    50    34    35    1
    51    34    33    1
    52    60    59    1
    53    60    61    1
    54    30    33    1
    55    30    31    1
    56    59    56    1
    57    51    49   ar
    58    50    49   ar
    59    31    32    2
    60    31    37   am
    61    61    55    1
    62    47    46    2
    63    49    48    1
    64    37    43    1
    65    37    38    1
    66    57    56    1
    67    57    58    2
    68    43    42    1
    69    56    55    1
    70    46    45    1
    71    38    41    1
    72    38    39    1
    73    42    41    1
    74    48    45    1
    75    45    44    1
    76    39    40    2
