@<TRIPOS>MOLECULE
tmp/4ygyB00.pdb
 167 158 0 0 0
SMALL
GASTEIGER

@<TRIPOS>ATOM
      1  N        172.9470    9.7260   10.6820 N.3    20  ASN20      -0.1225
      2  CA       174.1990    9.4270    9.9990 C.3    20  ASN20       0.1785
      3  C        175.3350    9.4530   10.9890 C.2    20  ASN20       0.2597
      4  O        175.2080   10.0380   12.0680 O.2    20  ASN20      -0.2718
      5  CB       174.4780   10.5040    8.9460 C.3    20  ASN20       0.1169
      6  CG       175.6300   10.1110    8.0650 C.2    20  ASN20       0.2627
      7  OD1      175.6090    9.0040    7.5060 O.2    20  ASN20      -0.2716
      8  ND2      176.6640   10.9840    7.9610 N.am   20  ASN20      -0.0877
      9  N        176.4550    8.8240   10.6410 N.am   21  LEU21      -0.1966
     10  CA       177.5720    8.7320   11.5630 C.3    21  LEU21       0.1728
     11  C        178.6630    9.7310   11.2290 C.2    21  LEU21       0.2616
     12  O        178.8600   10.7140   11.9560 O.2    21  LEU21      -0.2715
     13  CB       178.1160    7.3220   11.5890 C.3    21  LEU21       0.0311
     14  CG       179.2580    6.9890   12.5650 C.3    21  LEU21       0.0022
     15  CD1      178.9300    7.3010   14.0150 C.3    21  LEU21       0.0001
     16  CD2      179.6060    5.5370   12.4480 C.3    21  LEU21       0.0001
     17  N        179.3610    9.5280   10.1190 N.am   22  ASP22      -0.1957
     18  CA       180.5510   10.3510    9.8470 C.3    22  ASP22       0.1840
     19  C        180.2310   11.7710    9.4180 C.2    22  ASP22       0.2621
     20  O        179.3490   12.0160    8.5750 O.2    22  ASP22      -0.2715
     21  CB       181.4170    9.6820    8.8170 C.3    22  ASP22       0.1450
     22  CG       182.0670    8.3630    9.3370 C.2    22  ASP22       0.3671
     23  OD1      182.5090    8.2040   10.4930 O.co2  22  ASP22      -0.2456
     24  OD2      182.1790    7.4520    8.5510 O.co2  22  ASP22      -0.2456
     25  N        180.9720   12.7100   10.0070 N.am   23  GLU23      -0.1977
     26  CA       180.7560   14.1120    9.8040 C.3    23  GLU23       0.1602
     27  C        179.4040   14.6040   10.3460 C.2    23  GLU23       0.2287
     28  O        179.0990   15.7760   10.2750 O.2    23  GLU23      -0.2864
     29  CB       180.9630   14.5140    8.3190 C.3    23  GLU23       0.0415
     30  CG       182.3840   14.3800    7.8210 C.3    23  GLU23       0.1163
     31  CD       182.9170   12.9620    7.8090 C.2    23  GLU23       0.3649
     32  OE1      182.4210   12.2030    6.9980 O.co2  23  GLU23      -0.2457
     33  OE2      183.8070   12.5830    8.6120 O.co2  23  GLU23      -0.2457
     34  N        186.4130   10.7410   12.0370 N.3    28  SER28      -0.1217
     35  CA       187.3650    9.6680   12.1720 C.3    28  SER28       0.1889
     36  C        188.4570    9.9380   11.1650 C.2    28  SER28       0.2288
     37  O        188.1700   10.5360   10.1410 O.2    28  SER28      -0.2866
     38  CB       186.6850    8.3480   11.8560 C.3    28  SER28       0.2089
     39  OG       185.8590    7.9570   12.9540 O.3    28  SER28      -0.2183
     40  N        192.5320    8.0940    9.7360 N.3    30  PHE30      -0.1241
     41  CA       193.7000    7.2690    9.8190 C.3    30  PHE30       0.1605
     42  C        194.9510    8.0480   10.1880 C.2    30  PHE30       0.2264
     43  O        195.8810    7.4630   10.6900 O.2    30  PHE30      -0.2867
     44  CB       193.9170    6.5690    8.5060 C.3    30  PHE30       0.0534
     45  CG       192.8720    5.5650    8.1860 C.ar   30  PHE30      -0.0203
     46  CD1      192.9160    4.2970    8.7440 C.ar   30  PHE30      -0.0042
     47  CD2      191.8410    5.8710    7.2800 C.ar   30  PHE30      -0.0042
     48  CE1      191.9400    3.3450    8.4290 C.ar   30  PHE30      -0.0003
     49  CE2      190.8540    4.9330    6.9720 C.ar   30  PHE30      -0.0003
     50  CZ       190.9090    3.6630    7.5400 C.ar   30  PHE30      -0.0000
     51  N        191.0400   -1.2870   12.8430 N.3    42  VAL42      -0.1245
     52  CA       190.2740   -1.7680   11.6910 C.3    42  VAL42       0.1561
     53  C        191.1760   -2.4860   10.6760 C.2    42  VAL42       0.2260
     54  O        192.2090   -1.9180   10.2380 O.2    42  VAL42      -0.2867
     55  CB       189.5480   -0.6010   10.9840 C.3    42  VAL42       0.0252
     56  CG1      188.7320   -1.1210    9.8130 C.3    42  VAL42       0.0019
     57  CG2      188.6430    0.1230   11.9800 C.3    42  VAL42       0.0019
     58  N        191.9710   -3.7110    7.1790 N.3    44  ILE44      -0.1245
     59  CA       191.7700   -3.5330    5.7330 C.3    44  ILE44       0.1561
     60  C        192.7580   -4.3660    4.9240 C.2    44  ILE44       0.2260
     61  O        193.9880   -4.1740    5.0410 O.2    44  ILE44      -0.2867
     62  CB       191.9130   -2.0870    5.2740 C.3    44  ILE44       0.0252
     63  CG1      190.9770   -1.2030    6.0920 C.3    44  ILE44       0.0019
     64  CG2      191.5890   -1.9880    3.7770 C.3    44  ILE44       0.0019
     65  CD1      191.3910    0.2470    6.1030 C.3    44  ILE44       0.0001
     66  N        191.9540    3.6760   13.6450 N.3    51  VAL51      -0.1245
     67  CA       191.0630    4.8040   13.2780 C.3    51  VAL51       0.1561
     68  C        190.8180    5.6630   14.4900 C.2    51  VAL51       0.2260
     69  O        190.2820    5.1980   15.4890 O.2    51  VAL51      -0.2867
     70  CB       189.7540    4.3100   12.6950 C.3    51  VAL51       0.0252
     71  CG1      188.8530    5.4620   12.3370 C.3    51  VAL51       0.0019
     72  CG2      190.0710    3.4830   11.4580 C.3    51  VAL51       0.0019
     73  N        174.5680    4.5120    8.1140 N.3    76  THR76      -0.1203
     74  CA       175.8550    4.9760    7.6560 C.3    76  THR76       0.1994
     75  C        176.2830    4.2680    6.3380 C.2    76  THR76       0.2618
     76  O        175.8590    3.1560    6.0570 O.2    76  THR76      -0.2717
     77  CB       176.9060    4.6860    8.7160 C.3    76  THR76       0.1784
     78  OG1      178.1760    5.0430    8.2020 O.3    76  THR76      -0.2211
     79  CG2      176.9390    3.2140    9.0270 C.3    76  THR76       0.0376
     80  N        177.1310    4.9310    5.5500 N.am   77  ALA77      -0.1965
     81  CA       177.7030    4.3350    4.3450 C.3    77  ALA77       0.1728
     82  C        179.0540    3.6540    4.6650 C.2    77  ALA77       0.2617
     83  O        179.7370    3.1330    3.7670 O.2    77  ALA77      -0.2715
     84  CB       177.8850    5.3880    3.2690 C.3    77  ALA77       0.0334
     85  N        179.4410    3.6610    5.9400 N.am   78  SER78      -0.1936
     86  CA       180.6520    3.0240    6.3360 C.3    78  SER78       0.2055
     87  C        180.3200    1.5610    6.5580 C.2    78  SER78       0.2642
     88  O        179.1490    1.1560    6.5490 O.2    78  SER78      -0.2714
     89  CB       181.2370    3.6760    7.6140 C.3    78  SER78       0.2130
     90  OG       180.3560    3.5620    8.7120 O.3    78  SER78      -0.2179
     91  N        181.3560    0.7620    6.7690 N.am   79  LEU79      -0.1977
     92  CA       181.1900   -0.6660    6.9890 C.3    79  LEU79       0.1596
     93  C        181.0350   -0.9140    8.4550 C.2    79  LEU79       0.2287
     94  O        181.6020   -0.2050    9.2620 O.2    79  LEU79      -0.2864
     95  CB       182.4430   -1.4010    6.4780 C.3    79  LEU79       0.0297
     96  CG       182.7550   -1.2860    4.9680 C.3    79  LEU79       0.0022
     97  CD1      184.0210   -2.0630    4.6400 C.3    79  LEU79       0.0001
     98  CD2      181.5850   -1.7620    4.1260 C.3    79  LEU79       0.0001
     99  N        182.4190   -3.0140   10.3960 N.3    81  LYS81      -0.1231
    100  CA       183.6150   -3.3970   11.1450 C.3    81  LYS81       0.1693
    101  C        184.2110   -2.1080   11.7590 C.2    81  LYS81       0.2592
    102  O        184.9070   -2.1970   12.7570 O.2    81  LYS81      -0.2718
    103  CB       184.6430   -4.1780   10.2580 C.3    81  LYS81       0.0285
    104  CG       185.2030   -3.3820    9.0650 C.3    81  LYS81       0.0035
    105  CD       186.3890   -3.9920    8.3280 C.3    81  LYS81       0.0206
    106  CE       186.0590   -5.3860    7.8480 C.3    81  LYS81       0.1093
    107  NZ       187.0800   -5.9080    6.8830 N.3    81  LYS81      -0.1314
    108  N        183.9610   -0.9370   11.1520 N.am   82  TYR82      -0.1976
    109  CA       184.2790    0.3660   11.7750 C.3    82  TYR82       0.1639
    110  C        183.1100    0.8720   12.6350 C.2    82  TYR82       0.2290
    111  O        183.2780    1.2630   13.7940 O.2    82  TYR82      -0.2864
    112  CB       184.6990    1.3900   10.7040 C.3    82  TYR82       0.0560
    113  CG       184.4660    2.8580   11.0250 C.ar   82  TYR82      -0.0198
    114  CD1      185.2870    3.5220   11.8790 C.ar   82  TYR82      -0.0009
    115  CD2      183.4050    3.5580   10.4930 C.ar   82  TYR82      -0.0009
    116  CE1      185.0730    4.8490   12.2050 C.ar   82  TYR82       0.0417
    117  CE2      183.1620    4.8960   10.8070 C.ar   82  TYR82       0.0417
    118  CZ       184.0190    5.5410   11.6600 C.ar   82  TYR82       0.1957
    119  OH       183.8700    6.8650   12.0200 O.3    82  TYR82      -0.2866
    120  N        176.7940    0.2820    4.8390 N.3   102  ARG102     -0.1245
    121  CA       177.0200    0.4450    3.4100 C.3   102  ARG102      0.1563
    122  C        176.1140   -0.3920    2.5190 C.2   102  ARG102      0.2260
    123  O        175.4700    0.1370    1.6460 O.2   102  ARG102     -0.2867
    124  CB       178.4730    0.1440    3.0380 C.3   102  ARG102      0.0307
    125  CG       178.8300    0.6060    1.6110 C.3   102  ARG102      0.0489
    126  CD       180.3050    0.4050    1.3300 C.3   102  ARG102      0.2205
    127  NE       181.0420    1.4820    1.9800 N.pl3 102  ARG102     -0.0865
    128  CZ       182.3230    1.4240    2.2970 C.cat 102  ARG102      0.5346
    129  NH1      183.0210    0.3440    2.0050 N.pl3 102  ARG102      0.1354
    130  NH2      182.8960    2.4400    2.9210 N.pl3 102  ARG102      0.1354
    131  N        176.2870    7.2020   -2.1470 N.3   112  TYR112     -0.1241
    132  CA       175.5950    6.2190   -1.3140 C.3   112  TYR112      0.1605
    133  C        174.3760    6.9260   -0.7810 C.2   112  TYR112      0.2264
    134  O        174.4850    7.9160   -0.0990 O.2   112  TYR112     -0.2867
    135  CB       176.4830    5.6960   -0.1760 C.3   112  TYR112      0.0534
    136  CG       177.4720    4.6710   -0.6490 C.ar  112  TYR112     -0.0201
    137  CD1      177.0370    3.4120   -1.0430 C.ar  112  TYR112     -0.0009
    138  CD2      178.8310    4.9590   -0.7610 C.ar  112  TYR112     -0.0009
    139  CE1      177.9230    2.4490   -1.5020 C.ar  112  TYR112      0.0417
    140  CE2      179.7390    3.9930   -1.2220 C.ar  112  TYR112      0.0417
    141  CZ       179.2700    2.7500   -1.5930 C.ar  112  TYR112      0.1957
    142  OH       180.1160    1.7560   -2.0510 O.3   112  TYR112     -0.2866
    143  N        170.6990    6.8670    1.1250 N.3   114  LYS114     -0.1245
    144  CA       169.8570    6.2620    2.1280 C.3   114  LYS114      0.1561
    145  C        168.4500    6.3580    1.5590 C.2   114  LYS114      0.2260
    146  O        167.8110    7.4360    1.5690 O.2   114  LYS114     -0.2867
    147  CB       170.0050    7.0140    3.4760 C.3   114  LYS114      0.0271
    148  CG       171.2560    6.6930    4.2670 C.3   114  LYS114      0.0035
    149  CD       172.3520    7.6420    3.9700 C.3   114  LYS114      0.0206
    150  CE       173.6610    7.2290    4.6160 C.3   114  LYS114      0.1093
    151  NZ       174.5250    8.4420    4.8360 N.3   114  LYS114     -0.1314
    152  N        171.4610   13.9500    8.2860 N.3   130  ASP130     -0.1225
    153  CA       172.6630   13.6230    7.5510 C.3   130  ASP130      0.1805
    154  C        173.3610   14.8890    7.0620 C.2   130  ASP130      0.2597
    155  O        172.7060   15.9030    6.6910 O.2   130  ASP130     -0.2718
    156  CB       172.2800   12.7440    6.3930 C.3   130  ASP130      0.1424
    157  CG       173.4520   11.9820    5.8030 C.2   130  ASP130      0.3668
    158  OD1      174.4840   12.5720    5.3590 O.co2 130  ASP130     -0.2456
    159  OD2      173.3380   10.7510    5.7750 O.co2 130  ASP130     -0.2456
    160  N        174.6950   14.8520    7.0630 N.am  131  ASN131     -0.1974
    161  CA       175.4730   16.0170    6.6480 C.3   131  ASN131      0.1688
    162  C        175.6530   16.1460    5.1380 C.2   131  ASN131      0.2292
    163  O        176.2100   17.1150    4.6670 O.2   131  ASN131     -0.2864
    164  CB       176.8420   15.9570    7.2770 C.3   131  ASN131      0.1181
    165  CG       177.5910   14.7110    6.8810 C.2   131  ASN131      0.2629
    166  OD1      177.2240   13.6050    7.2270 O.2   131  ASN131     -0.2716
    167  ND2      178.6260   14.8900    6.1310 N.am  131  ASN131     -0.0877
@<TRIPOS>BOND
     1   131   132    1
     2   142   141    1
     3   141   139   ar
     4   141   140   ar
     5   139   137   ar
     6   132   133    1
     7   132   135    1
     8   140   138   ar
     9   137   136   ar
    10   133   134    2
    11   138   136   ar
    12   136   135    1
    13   143   144    1
    14   126   125    1
    15   126   127    1
    16   145   146    2
    17   145   144    1
    18   125   124    1
    19   123   122    2
    20   127   128    2
    21   129   128    1
    22   144   147    1
    23   128   130    1
    24   122   121    1
    25   124   121    1
    26    84    81    1
    27   121   120    1
    28   147   148    1
    29    83    82    2
    30    64    62    1
    31   149   148    1
    32   149   150    1
    33    98    96    1
    34    81    82    1
    35    81    80    1
    36   150   151    1
    37    97    96    1
    38    82    85   am
    39   163   162    2
    40    60    61    2
    41    60    59    1
    42    96    95    1
    43   162   161    1
    44    62    59    1
    45    62    63    1
    46   158   157   ar
    47    80    75   am
    48    59    58    1
    49   159   157   ar
    50   157   156    1
    51    85    86    1
    52    76    75    2
    53    63    65    1
    54   167   165   am
    55    86    87    1
    56    86    89    1
    57    75    74    1
    58   156   153    1
    59    95    92    1
    60    88    87    2
    61    87    91   am
    62   161   160    1
    63   161   164    1
    64   155   154    2
    65    91    92    1
    66   165   166    2
    67   165   164    1
    68   107   106    1
    69    49    47   ar
    70    49    50   ar
    71    92    93    1
    72    32    31   ar
    73   154   160   am
    74   154   153    1
    75    47    45   ar
    76     7     6    2
    77    50    48   ar
    78   153   152    1
    79    89    90    1
    80    74    73    1
    81    74    77    1
    82    31    30    1
    83    31    33   ar
    84    30    29    1
    85   106   105    1
    86     8     6   am
    87     6     5    1
    88    45    44    1
    89    45    46   ar
    90    78    77    1
    91    29    26    1
    92   105   104    1
    93    48    46   ar
    94    93    94    2
    95    44    41    1
    96    24    22   ar
    97    20    19    2
    98    77    79    1
    99    21    22    1
   100    21    18    1
   101     5     2    1
   102   104   103    1
   103    22    23   ar
   104    19    18    1
   105    19    25   am
   106    40    41    1
   107    26    25    1
   108    26    27    1
   109    56    55    1
   110    41    42    1
   111    18    17    1
   112     2     1    1
   113     2     3    1
   114    17    11   am
   115    37    36    2
   116    42    43    2
   117    54    53    2
   118   103   100    1
   119    28    27    2
   120    99   100    1
   121   115   117   ar
   122   115   113   ar
   123     9     3   am
   124     9    10    1
   125    53    52    1
   126   112   113    1
   127   112   109    1
   128   117   118   ar
   129    55    52    1
   130    55    57    1
   131     3     4    2
   132   113   114   ar
   133   100   101    1
   134   108   101   am
   135   108   109    1
   136    36    35    1
   137    11    10    1
   138    11    12    2
   139    72    70    1
   140    10    13    1
   141    13    14    1
   142   118   119    1
   143   118   116   ar
   144    52    51    1
   145   101   102    2
   146   109   110    1
   147    38    35    1
   148    38    39    1
   149   114   116   ar
   150    34    35    1
   151    71    70    1
   152    16    14    1
   153    14    15    1
   154   110   111    2
   155    70    67    1
   156    67    66    1
   157    67    68    1
   158    68    69    2
