@<TRIPOS>MOLECULE
tmp/4yh2D00.pdb
 157 154 0 0 0
SMALL
GASTEIGER

@<TRIPOS>ATOM
      1  N         38.7440  -19.1880   34.2050 N.3     9  LEU9       -0.1245
      2  CA        38.7430  -20.6400   34.0970 C.3     9  LEU9        0.1561
      3  C         37.9370  -21.0330   32.8720 C.2     9  LEU9        0.2260
      4  O         37.0020  -20.3310   32.4810 O.2     9  LEU9       -0.2867
      5  CB        38.1660  -21.2930   35.3560 C.3     9  LEU9        0.0270
      6  CG        36.6750  -21.1640   35.6600 C.3     9  LEU9        0.0019
      7  CD1       36.3280  -22.1240   36.7890 C.3     9  LEU9        0.0001
      8  CD2       36.2670  -19.7450   36.0300 C.3     9  LEU9        0.0001
      9  N         33.9230  -21.1230   32.1540 N.3    12  SER12      -0.1203
     10  CA        33.1620  -19.8870   32.2650 C.3    12  SER12       0.2005
     11  C         32.9080  -19.2430   30.9090 C.2    12  SER12       0.2461
     12  O         33.8460  -18.9060   30.2010 O.2    12  SER12      -0.2732
     13  CB        33.9070  -18.9060   33.1790 C.3    12  SER12       0.2103
     14  OG        33.4610  -17.5740   32.9710 O.3    12  SER12      -0.2182
     15  N         31.6280  -19.0590   30.5390 N.am   13  PRO13      -0.2718
     16  CA        31.3980  -18.4220   29.2360 C.3    13  PRO13       0.1520
     17  C         32.0810  -17.0540   29.0340 C.2    13  PRO13       0.2440
     18  O         32.7190  -16.8820   27.9900 O.2    13  PRO13      -0.2731
     19  CB        29.8640  -18.2870   29.1800 C.3    13  PRO13       0.0310
     20  CG        29.3630  -19.4280   30.0500 C.3    13  PRO13       0.0237
     21  CD        30.3830  -19.5420   31.1700 C.3    13  PRO13       0.0939
     22  N         31.9710  -16.1050   29.9920 N.am   14  PRO14      -0.2727
     23  CA        32.6150  -14.8220   29.6830 C.3    14  PRO14       0.1402
     24  C         34.1320  -14.9010   29.6010 C.2    14  PRO14       0.2269
     25  O         34.7430  -14.0910   28.8970 O.2    14  PRO14      -0.2865
     26  CB        32.1860  -13.9210   30.8460 C.3    14  PRO14       0.0296
     27  CG        31.8290  -14.8570   31.9640 C.3    14  PRO14       0.0237
     28  CD        31.1800  -16.0250   31.2370 C.3    14  PRO14       0.0939
     29  N         36.8300  -20.7580   41.2160 N.3    36  ILE36      -0.1245
     30  CA        35.5760  -20.2110   41.7280 C.3    36  ILE36       0.1561
     31  C         34.8830  -21.1590   42.7100 C.2    36  ILE36       0.2260
     32  O         34.2460  -20.7160   43.6680 O.2    36  ILE36      -0.2867
     33  CB        34.6040  -19.8840   40.5720 C.3    36  ILE36       0.0252
     34  CG1       35.2550  -18.8950   39.6150 C.3    36  ILE36       0.0019
     35  CG2       33.3090  -19.3010   41.1040 C.3    36  ILE36       0.0019
     36  CD1       35.6980  -17.6300   40.2850 C.3    36  ILE36       0.0001
     37  N         37.9370  -16.1790   44.1820 N.3    41  GLN41      -0.1245
     38  CA        37.6540  -14.8180   43.7380 C.3    41  GLN41       0.1566
     39  C         37.3230  -13.8940   44.9100 C.2    41  GLN41       0.2260
     40  O         37.2250  -12.6810   44.7350 O.2    41  GLN41      -0.2867
     41  CB        36.5040  -14.8110   42.7210 C.3    41  GLN41       0.0367
     42  CG        35.1040  -14.9260   43.3210 C.3    41  GLN41       0.0905
     43  CD        34.7190  -16.3470   43.6720 C.2    41  GLN41       0.2608
     44  OE1       35.5620  -17.2450   43.7020 O.2    41  GLN41      -0.2717
     45  NE2       33.4320  -16.5640   43.9210 N.am   41  GLN41      -0.0878
     46  N         34.1960   -6.3920   42.2040 N.3    52  GLN52      -0.1231
     47  CA        32.9460   -7.1210   41.9560 C.3    52  GLN52       0.1698
     48  C         33.1790   -8.6380   42.0870 C.2    52  GLN52       0.2592
     49  O         32.2430   -9.4420   42.0340 O.2    52  GLN52      -0.2718
     50  CB        32.3770   -6.7610   40.5740 C.3    52  GLN52       0.0381
     51  CG        30.9120   -7.1770   40.3920 C.3    52  GLN52       0.0905
     52  CD        30.3980   -6.9450   38.9960 C.2    52  GLN52       0.2608
     53  OE1       30.9160   -6.1050   38.2660 O.2    52  GLN52      -0.2717
     54  NE2       29.3710   -7.7050   38.6070 N.am   52  GLN52      -0.0878
     55  N         34.4440   -9.0010   42.2980 N.am   53  HIS53      -0.1962
     56  CA        34.9170  -10.3920   42.3740 C.3    53  HIS53       0.1787
     57  C         34.2830  -11.3410   41.3480 C.2    53  HIS53       0.2621
     58  O         33.7700  -12.4090   41.6900 O.2    53  HIS53      -0.2715
     59  CB        34.7500  -10.9610   43.8020 C.3    53  HIS53       0.0785
     60  CG        33.3700  -10.8460   44.3760 C.ar   53  HIS53       0.0821
     61  ND1       32.3880  -11.7900   44.1570 N.ar   53  HIS53      -0.2267
     62  CD2       32.8220   -9.9230   45.2040 C.ar   53  HIS53       0.1154
     63  CE1       31.2910  -11.4420   44.8050 C.ar   53  HIS53       0.1986
     64  NE2       31.5290  -10.3120   45.4510 N.ar   53  HIS53      -0.2212
     65  N         34.3410  -10.9400   40.0800 N.am   54  THR54      -0.1937
     66  CA        33.9400  -11.8010   38.9790 C.3    54  THR54       0.2028
     67  C         35.1560  -12.2110   38.1410 C.2    54  THR54       0.2642
     68  O         36.2040  -11.5700   38.1900 O.2    54  THR54      -0.2714
     69  CB        32.9090  -11.1060   38.0530 C.3    54  THR54       0.1808
     70  OG1       33.4690   -9.8860   37.5450 O.3    54  THR54      -0.2208
     71  CG2       31.6130  -10.7980   38.8100 C.3    54  THR54       0.0379
     72  N         35.0130  -13.2930   37.3850 N.am   55  VAL55      -0.1963
     73  CA        35.9550  -13.6020   36.3150 C.3    55  VAL55       0.1712
     74  C         35.1670  -13.4410   35.0320 C.2    55  VAL55       0.2458
     75  O         33.9520  -13.6860   35.0180 O.2    55  VAL55      -0.2730
     76  CB        36.5600  -15.0230   36.4230 C.3    55  VAL55       0.0289
     77  CG1       37.4280  -15.1430   37.6740 C.3    55  VAL55       0.0023
     78  CG2       35.4850  -16.0900   36.4110 C.3    55  VAL55       0.0023
     79  N         35.8250  -13.0120   33.9470 N.am   56  PRO56      -0.2727
     80  CA        37.2460  -12.6980   33.7810 C.3    56  PRO56       0.1402
     81  C         37.6690  -11.3360   34.3120 C.2    56  PRO56       0.2269
     82  O         36.8910  -10.3860   34.3510 O.2    56  PRO56      -0.2865
     83  CB        37.4260  -12.7280   32.2600 C.3    56  PRO56       0.0296
     84  CG        36.0670  -12.2830   31.7300 C.3    56  PRO56       0.0237
     85  CD        35.0780  -12.8850   32.6820 C.3    56  PRO56       0.0939
     86  N         34.6150   -7.3330   33.3510 N.3    67  ASP67      -0.1225
     87  CA        33.4700   -7.5600   32.4620 C.3    67  ASP67       0.1805
     88  C         33.9660   -7.9180   31.0700 C.2    67  ASP67       0.2598
     89  O         34.6490   -7.1270   30.4090 O.2    67  ASP67      -0.2718
     90  CB        32.5150   -6.3670   32.3880 C.3    67  ASP67       0.1424
     91  CG        31.2440   -6.7140   31.6620 C.2    67  ASP67       0.3668
     92  OD1       31.2640   -6.7190   30.4180 O.co2  67  ASP67      -0.2456
     93  OD2       30.2410   -7.0160   32.3380 O.co2  67  ASP67      -0.2456
     94  N         33.6300   -9.1280   30.6340 N.am   68  SER68      -0.1938
     95  CA        34.1120   -9.6470   29.3600 C.3    68  SER68       0.2055
     96  C         33.8500   -8.6870   28.1990 C.2    68  SER68       0.2643
     97  O         34.6650   -8.5710   27.2980 O.2    68  SER68      -0.2714
     98  CB        33.4740  -11.0100   29.0460 C.3    68  SER68       0.2130
     99  OG        32.0680  -10.9030   28.9050 O.3    68  SER68      -0.2179
    100  N         32.6980   -8.0200   28.2070 N.am   69  HIS69      -0.1973
    101  CA        32.3550   -7.1620   27.0760 C.3    69  HIS69       0.1656
    102  C         33.2080   -5.9050   27.0570 C.2    69  HIS69       0.2291
    103  O         33.6270   -5.4640   25.9900 O.2    69  HIS69      -0.2864
    104  CB        30.8680   -6.8160   27.1110 C.3    69  HIS69       0.0771
    105  CG        30.0000   -8.0110   27.3230 C.ar   69  HIS69       0.0820
    106  ND1       29.6630   -8.4700   28.5780 N.ar   69  HIS69      -0.2267
    107  CD2       29.4600   -8.8900   26.4440 C.ar   69  HIS69       0.1154
    108  CE1       28.9290   -9.5620   28.4640 C.ar   69  HIS69       0.1986
    109  NE2       28.7790   -9.8270   27.1780 N.ar   69  HIS69      -0.2212
    110  N         23.5720  -10.1100   25.5150 N.3   103  GLU103     -0.1231
    111  CA        24.2980  -11.2180   26.1090 C.3   103  GLU103      0.1699
    112  C         24.4690  -11.0170   27.6180 C.2   103  GLU103      0.2592
    113  O         24.2810  -11.9520   28.3890 O.2   103  GLU103     -0.2718
    114  CB        25.6560  -11.3880   25.4200 C.3   103  GLU103      0.0402
    115  CG        26.3110  -12.7560   25.6400 C.3   103  GLU103      0.1161
    116  CD        26.9730  -12.9250   27.0040 C.2   103  GLU103      0.3649
    117  OE1       27.3500  -11.9160   27.6380 O.co2 103  GLU103     -0.2457
    118  OE2       27.1230  -14.0870   27.4380 O.co2 103  GLU103     -0.2457
    119  N         24.8230   -9.8020   28.0340 N.am  104  SER104     -0.1952
    120  CA        25.0120   -9.5200   29.4590 C.3   104  SER104      0.1924
    121  C         23.7770   -9.8210   30.2970 C.2   104  SER104      0.2314
    122  O         23.8730  -10.4020   31.3740 O.2   104  SER104     -0.2863
    123  CB        25.3950   -8.0540   29.6640 C.3   104  SER104      0.2116
    124  OG        26.7630   -7.8820   29.3910 O.3   104  SER104     -0.2180
    125  N         23.2540  -14.1700   29.7230 N.3   108  PHE108     -0.1241
    126  CA        24.0780  -14.6250   30.8290 C.3   108  PHE108      0.1605
    127  C         23.4210  -14.4630   32.1990 C.2   108  PHE108      0.2264
    128  O         23.3060  -15.4390   32.9500 O.2   108  PHE108     -0.2867
    129  CB        25.4390  -13.9250   30.8420 C.3   108  PHE108      0.0534
    130  CG        26.3550  -14.4880   31.8880 C.ar  108  PHE108     -0.0203
    131  CD1       26.4970  -13.8660   33.1160 C.ar  108  PHE108     -0.0042
    132  CD2       26.9880  -15.7010   31.6710 C.ar  108  PHE108     -0.0042
    133  CE1       27.3090  -14.4240   34.1020 C.ar  108  PHE108     -0.0003
    134  CE2       27.7780  -16.2580   32.6390 C.ar  108  PHE108     -0.0003
    135  CZ        27.9500  -15.6170   33.8540 C.ar  108  PHE108     -0.0000
    136  N         23.5690  -17.6030   34.7290 N.3   113  ARG113     -0.1245
    137  CA        23.9690  -17.3960   36.1260 C.3   113  ARG113      0.1563
    138  C         22.8150  -17.6790   37.0960 C.2   113  ARG113      0.2260
    139  O         23.0290  -18.0830   38.2400 O.2   113  ARG113     -0.2867
    140  CB        24.5070  -15.9670   36.3290 C.3   113  ARG113      0.0307
    141  CG        25.0070  -15.6840   37.7500 C.3   113  ARG113      0.0489
    142  CD        25.8850  -14.4330   37.8300 C.3   113  ARG113      0.2205
    143  NE        26.0750  -14.0050   39.2140 N.pl3 113  ARG113     -0.0865
    144  CZ        27.2540  -13.9120   39.8260 C.cat 113  ARG113      0.5346
    145  NH1       28.3770  -14.2010   39.1800 N.pl3 113  ARG113      0.1354
    146  NH2       27.3090  -13.5180   41.0910 N.pl3 113  ARG113      0.1354
    147  N         26.8360  -23.8790   42.9660 N.3   121  PHE121     -0.1241
    148  CA        27.4430  -23.3080   44.1620 C.3   121  PHE121      0.1605
    149  C         26.5530  -23.4290   45.3940 C.2   121  PHE121      0.2264
    150  O         27.0250  -23.2640   46.5170 O.2   121  PHE121     -0.2867
    151  CB        27.8100  -21.8410   43.9120 C.3   121  PHE121      0.0534
    152  CG        28.7220  -21.6430   42.7300 C.ar  121  PHE121     -0.0203
    153  CD1       30.0050  -22.1730   42.7290 C.ar  121  PHE121     -0.0042
    154  CD2       28.2960  -20.9320   41.6180 C.ar  121  PHE121     -0.0042
    155  CE1       30.8420  -22.0010   41.6430 C.ar  121  PHE121     -0.0003
    156  CE2       29.1320  -20.7520   40.5270 C.ar  121  PHE121     -0.0003
    157  CZ        30.4060  -21.2890   40.5400 C.ar  121  PHE121     -0.0000
@<TRIPOS>BOND
     1   114   115    1
     2   114   111    1
     3   110   111    1
     4   115   116    1
     5   103   102    2
     6   111   112    1
     7   107   109   ar
     8   107   105   ar
     9   116   118   ar
    10   116   117   ar
    11   102   101    1
    12   101   104    1
    13   101   100    1
    14   104   105    1
    15   109   108   ar
    16    97    96    2
    17   105   106   ar
    18   112   119   am
    19   112   113    2
    20    18    17    2
    21   119   120    1
    22    96   100   am
    23    96    95    1
    24   108   106   ar
    25    25    24    2
    26    99    98    1
    27    17    16    1
    28    17    22   am
    29    98    95    1
    30    19    16    1
    31    19    20    1
    32    16    15    1
    33    95    94    1
    34   124   123    1
    35   120   123    1
    36   120   121    1
    37    24    23    1
    38    23    22    1
    39    23    26    1
    40   125   126    1
    41    22    28    1
    42    20    21    1
    43    12    11    2
    44   121   122    2
    45    89    88    2
    46    92    91   ar
    47    15    11   am
    48    15    21    1
    49    94    88   am
    50   126   129    1
    51   126   127    1
    52   129   130    1
    53    26    27    1
    54    11    10    1
    55    88    87    1
    56    28    27    1
    57    91    93   ar
    58    91    90    1
    59   132   130   ar
    60   132   134   ar
    61    84    83    1
    62    84    85    1
    63   130   131   ar
    64     9    10    1
    65   127   128    2
    66    83    80    1
    67    10    13    1
    68    90    87    1
    69    87    86    1
    70     4     3    2
    71   134   135   ar
    72    85    79    1
    73     3     2    1
    74    14    13    1
    75   131   133   ar
    76    80    79    1
    77    80    81    1
    78   135   133   ar
    79    79    74   am
    80     2     1    1
    81     2     5    1
    82    81    82    2
    83   136   137    1
    84    75    74    2
    85    74    73    1
    86     5     6    1
    87     6     8    1
    88     6     7    1
    89   137   140    1
    90   137   138    1
    91    73    76    1
    92    73    72    1
    93   140   141    1
    94    78    76    1
    95    76    77    1
    96   138   139    2
    97    72    67   am
    98    70    69    1
    99   141   142    1
   100   142   143    1
   101    69    71    1
   102    69    66    1
   103    67    68    2
   104    67    66    1
   105    53    52    2
   106    54    52   am
   107    66    65    1
   108    52    51    1
   109   145   144    1
   110   143   144    2
   111    34    36    1
   112    34    33    1
   113   144   146    1
   114    65    57   am
   115    51    50    1
   116   156   157   ar
   117   156   154   ar
   118   157   155   ar
   119    33    35    1
   120    33    30    1
   121    50    47    1
   122    29    30    1
   123    57    58    2
   124    57    56    1
   125   154   152   ar
   126   155   153   ar
   127    30    31    1
   128    47    48    1
   129    47    46    1
   130    49    48    2
   131    48    55   am
   132    55    56    1
   133    56    59    1
   134    31    32    2
   135    41    42    1
   136    41    38    1
   137   153   152   ar
   138   152   151    1
   139   147   148    1
   140    42    43    1
   141    43    44    2
   142    43    45   am
   143    38    37    1
   144    38    39    1
   145    59    60    1
   146   151   148    1
   147    61    60   ar
   148    61    63   ar
   149   148   149    1
   150    60    62   ar
   151    40    39    2
   152    63    64   ar
   153    62    64   ar
   154   149   150    2
