@<TRIPOS>MOLECULE
tmp/4yh3A00.pdb
 126 122 0 0 0
SMALL
GASTEIGER

@<TRIPOS>ATOM
      1  N         -4.1410    0.4700    0.9920 N.3    40  TRP40      -0.1228
      2  CA        -4.0170    1.8510    1.5570 C.3    40  TRP40       0.1722
      3  C         -5.3230    2.6680    1.6880 C.2    40  TRP40       0.2437
      4  O         -5.4540    3.3360    2.6990 O.2    40  TRP40      -0.2733
      5  CB        -2.9340    2.6130    0.7510 C.3    40  TRP40       0.0563
      6  CG        -3.2340    2.7880   -0.7100 C.ar   40  TRP40       0.0003
      7  CD1       -2.8030    1.9920   -1.7380 C.ar   40  TRP40       0.0946
      8  CD2       -3.8790    3.8940   -1.3450 C.ar   40  TRP40       0.0152
      9  NE1       -3.2720    2.4440   -2.9320 N.ar   40  TRP40      -0.2442
     10  CE2       -3.9520    3.6050   -2.7190 C.ar   40  TRP40       0.0810
     11  CE3       -4.5690    5.0260   -0.8730 C.ar   40  TRP40       0.0012
     12  CZ2       -4.5120    4.4970   -3.6600 C.ar   40  TRP40       0.0191
     13  CZ3       -5.1830    5.8290   -1.7990 C.ar   40  TRP40       0.0001
     14  CH2       -5.1730    5.5700   -3.1410 C.ar   40  TRP40       0.0015
     15  N         -6.3040    2.5070    0.8000 N.am   41  PRO41      -0.2718
     16  CA        -7.5230    3.3060    1.0780 C.3    41  PRO41       0.1535
     17  C         -8.3020    2.8720    2.3510 C.2    41  PRO41       0.2598
     18  O         -9.1660    3.6700    2.8500 O.2    41  PRO41      -0.2715
     19  CB        -8.3830    3.0920   -0.1630 C.3    41  PRO41       0.0310
     20  CG        -7.4390    2.6260   -1.1680 C.3    41  PRO41       0.0237
     21  CD        -6.4590    1.7790   -0.4690 C.3    41  PRO41       0.0939
     22  N         -7.9540    1.7020    2.8550 N.am   42  PHE42      -0.1974
     23  CA        -8.7100    1.0660    3.9100 C.3    42  PHE42       0.1639
     24  C         -7.9290    1.0350    5.2020 C.2    42  PHE42       0.2290
     25  O         -8.3890    0.4420    6.1850 O.2    42  PHE42      -0.2864
     26  CB        -9.1040   -0.3730    3.4770 C.3    42  PHE42       0.0560
     27  CG        -9.9060   -0.4120    2.2230 C.ar   42  PHE42      -0.0200
     28  CD1      -11.2580   -0.0350    2.2130 C.ar   42  PHE42      -0.0042
     29  CD2       -9.3240   -0.7180    0.9860 C.ar   42  PHE42      -0.0042
     30  CE1      -11.9730    0.0250    1.0620 C.ar   42  PHE42      -0.0003
     31  CE2      -10.0820   -0.6960   -0.1710 C.ar   42  PHE42      -0.0003
     32  CZ       -11.3910   -0.2830   -0.1420 C.ar   42  PHE42      -0.0000
     33  N         -7.1730    3.4160    7.3140 N.3    44  GLN44      -0.1245
     34  CA        -7.5770    4.4560    8.3010 C.3    44  GLN44       0.1566
     35  C         -8.9950    4.8720    7.9760 C.2    44  GLN44       0.2260
     36  O         -9.4920    4.6140    6.8740 O.2    44  GLN44      -0.2867
     37  CB        -6.6730    5.7100    8.1770 C.3    44  GLN44       0.0367
     38  CG        -6.6340    6.3520    6.7710 C.3    44  GLN44       0.0905
     39  CD        -5.8630    5.5370    5.7300 C.2    44  GLN44       0.2608
     40  OE1       -4.7220    5.0990    5.9430 O.2    44  GLN44      -0.2717
     41  NE2       -6.5010    5.3090    4.6070 N.am   44  GLN44      -0.0878
     42  N        -12.1590    6.9190    6.7810 N.3    46  VAL46      -0.1245
     43  CA       -12.3650    7.7830    5.5910 C.3    46  VAL46       0.1561
     44  C        -12.2850    9.2400    6.0480 C.2    46  VAL46       0.2260
     45  O        -13.0730    9.6770    6.9140 O.2    46  VAL46      -0.2867
     46  CB       -13.6440    7.4750    4.8890 C.3    46  VAL46       0.0252
     47  CG1      -13.8600    8.5110    3.7660 C.3    46  VAL46       0.0019
     48  CG2      -13.5830    6.1080    4.2010 C.3    46  VAL46       0.0019
     49  N        -10.4900   14.0990    1.3580 N.3    51  LEU51      -0.1245
     50  CA       -10.9640   13.4240    0.1370 C.3    51  LEU51       0.1561
     51  C        -12.1070   14.1510   -0.5880 C.2    51  LEU51       0.2260
     52  O        -12.6320   13.6440   -1.6040 O.2    51  LEU51      -0.2867
     53  CB       -11.3740   12.0070    0.4240 C.3    51  LEU51       0.0270
     54  CG       -10.3060   10.9690    0.6850 C.3    51  LEU51       0.0019
     55  CD1       -9.0640   11.5480    1.2870 C.3    51  LEU51       0.0001
     56  CD2      -10.8370    9.8060    1.5050 C.3    51  LEU51       0.0001
     57  N        -15.3680   14.5620    0.2150 N.3    53  LEU53      -0.1245
     58  CA       -16.5480   13.6820    0.2000 C.3    53  LEU53       0.1561
     59  C        -17.4740   14.1920    1.2600 C.2    53  LEU53       0.2260
     60  O        -17.7590   13.5500    2.2410 O.2    53  LEU53      -0.2867
     61  CB       -16.1890   12.2310    0.4700 C.3    53  LEU53       0.0270
     62  CG       -15.1450   11.5780   -0.3940 C.3    53  LEU53       0.0019
     63  CD1      -14.8660   10.2270    0.2540 C.3    53  LEU53       0.0001
     64  CD2      -15.7460   11.5270   -1.7930 C.3    53  LEU53       0.0001
     65  N        -20.1780   11.6470    2.5260 N.3    56  TYR56      -0.1241
     66  CA       -19.8120   10.2710    2.9440 C.3    56  TYR56       0.1605
     67  C        -20.5230    9.8190    4.2130 C.2    56  TYR56       0.2264
     68  O        -21.1740    8.7460    4.2490 O.2    56  TYR56      -0.2867
     69  CB       -18.2880   10.1110    3.0440 C.3    56  TYR56       0.0534
     70  CG       -17.8590    8.7000    3.2980 C.ar   56  TYR56      -0.0201
     71  CD1      -17.8200    7.7530    2.2730 C.ar   56  TYR56      -0.0009
     72  CD2      -17.7120    8.2200    4.5950 C.ar   56  TYR56      -0.0009
     73  CE1      -17.5080    6.4160    2.5300 C.ar   56  TYR56       0.0417
     74  CE2      -17.3900    6.8900    4.8590 C.ar   56  TYR56       0.0417
     75  CZ       -17.3340    5.9570    3.8210 C.ar   56  TYR56       0.1957
     76  OH       -17.0380    4.5930    4.0700 O.3    56  TYR56      -0.2866
     77  N        -18.0770    0.2760    1.3310 N.3    95  CYS95      -0.1235
     78  CA       -17.4820    0.5960    0.0410 C.3    95  CYS95       0.1677
     79  C        -18.4280    0.3900   -1.1350 C.2    95  CYS95       0.2270
     80  O        -18.6240    1.2720   -2.0350 O.2    95  CYS95      -0.2867
     81  CB       -16.2170   -0.2660   -0.0950 C.3    95  CYS95       0.0956
     82  SG       -15.2780    0.2040   -1.5690 S.3    95  CYS95      -0.0801
     83  N        -21.4130    2.9740   -0.9970 N.3    98  TYR98      -0.1227
     84  CA       -21.0980    4.3410   -1.2900 C.3    98  TYR98       0.1736
     85  C        -20.7240    4.5870   -2.7500 C.2    98  TYR98       0.2595
     86  O        -21.1160    5.6440   -3.3100 O.2    98  TYR98      -0.2718
     87  CB       -20.0550    4.8890   -0.3780 C.3    98  TYR98       0.0548
     88  CG       -19.7590    6.3270   -0.6170 C.ar   98  TYR98      -0.0200
     89  CD1      -20.6700    7.3260   -0.2120 C.ar   98  TYR98      -0.0009
     90  CD2      -18.6310    6.7430   -1.2670 C.ar   98  TYR98      -0.0009
     91  CE1      -20.4060    8.6180   -0.4740 C.ar   98  TYR98       0.0417
     92  CE2      -18.3840    8.0480   -1.5620 C.ar   98  TYR98       0.0417
     93  CZ       -19.2660    9.0170   -1.0930 C.ar   98  TYR98       0.1957
     94  OH       -19.0140   10.3410   -1.4360 O.3    98  TYR98      -0.2866
     95  N        -19.9380    3.6890   -3.3240 N.am   99  ASN99      -0.1974
     96  CA       -19.4080    3.8950   -4.6780 C.3    99  ASN99       0.1688
     97  C        -20.1970    3.1940   -5.7970 C.2    99  ASN99       0.2292
     98  O        -21.1940    2.6110   -5.5190 O.2    99  ASN99      -0.2864
     99  CB       -17.9670    3.3510   -4.6140 C.3    99  ASN99       0.1181
    100  CG       -17.1320    4.0590   -3.5810 C.2    99  ASN99       0.2629
    101  OD1      -16.6850    5.2060   -3.8110 O.2    99  ASN99      -0.2716
    102  ND2      -16.9040    3.4220   -2.4090 N.am   99  ASN99      -0.0877
    103  N        -12.5330    2.0650   -9.2950 N.3   104  ASP104     -0.1225
    104  CA       -11.2810    1.4940   -8.7650 C.3   104  ASP104      0.1805
    105  C        -11.4270    1.0830   -7.3110 C.2   104  ASP104      0.2597
    106  O        -10.9630   -0.0020   -6.9540 O.2   104  ASP104     -0.2718
    107  CB       -10.1140    2.5140   -8.8320 C.3   104  ASP104      0.1424
    108  CG        -9.4030    2.5560  -10.1860 C.2   104  ASP104      0.3668
    109  OD1       -9.5910    1.6530  -11.0080 O.co2 104  ASP104     -0.2456
    110  OD2       -8.6410    3.5480  -10.3870 O.co2 104  ASP104     -0.2456
    111  N        -12.0140    1.9080   -6.4430 N.am  105  ILE105     -0.1980
    112  CA       -11.9990    1.5720   -5.0060 C.3   105  ILE105      0.1595
    113  C        -12.8150    0.2890   -4.7640 C.2   105  ILE105      0.2287
    114  O        -12.5240   -0.4640   -3.8200 O.2   105  ILE105     -0.2864
    115  CB       -12.5930    2.7230   -4.1450 C.3   105  ILE105      0.0276
    116  CG1      -12.4140    2.4410   -2.7090 C.3   105  ILE105      0.0022
    117  CG2      -14.0790    3.0630   -4.5010 C.3   105  ILE105      0.0022
    118  CD1      -11.0050    2.4720   -2.1770 C.3   105  ILE105      0.0001
    119  N        -10.5960   -2.5380   -5.6290 N.3   108  MET108     -0.1245
    120  CA        -9.6800   -2.7370   -4.5520 C.3   108  MET108      0.1570
    121  C        -10.3340   -3.5400   -3.4120 C.2   108  MET108      0.2261
    122  O         -9.7600   -4.4900   -2.9230 O.2   108  MET108     -0.2867
    123  CB        -9.1660   -1.4330   -4.0690 C.3   108  MET108      0.0387
    124  CG        -8.4210   -0.7260   -5.1780 C.3   108  MET108      0.0595
    125  SD        -8.0110    1.0250   -4.8710 S.3   108  MET108     -0.1393
    126  CE        -6.4100    0.8760   -4.0400 C.3   108  MET108      0.0692
@<TRIPOS>BOND
     1   109   108   ar
     2   110   108   ar
     3   108   107    1
     4   103   104    1
     5   107   104    1
     6   104   105    1
     7   105   106    2
     8   105   111   am
     9   111   112    1
    10    97    98    2
    11    97    96    1
    12   119   120    1
    13   124   125    1
    14   124   123    1
    15   112   113    1
    16   112   115    1
    17   125   126    1
    18   113   114    2
    19    96    99    1
    20    96    95    1
    21    99   100    1
    22   120   123    1
    23   120   121    1
    24   117   115    1
    25   115   116    1
    26   101   100    2
    27    12    14   ar
    28    12    10   ar
    29   100   102   am
    30   121   122    2
    31    95    85   am
    32    86    85    2
    33    14    13   ar
    34     9    10   ar
    35     9     7   ar
    36    85    84    1
    37    10     8   ar
    38   116   118    1
    39    80    79    2
    40    13    11   ar
    41    64    62    1
    42     7     6   ar
    43    52    51    2
    44    82    81    1
    45    92    90   ar
    46    92    93   ar
    47    94    93    1
    48     8    11   ar
    49     8     6   ar
    50    84    83    1
    51    84    87    1
    52    90    88   ar
    53    20    21    1
    54    20    19    1
    55    79    78    1
    56    93    91   ar
    57     6     5    1
    58    88    87    1
    59    88    89   ar
    60    51    50    1
    61    91    89   ar
    62    21    15    1
    63    62    63    1
    64    62    61    1
    65    31    32   ar
    66    31    29   ar
    67    19    16    1
    68    32    30   ar
    69    81    78    1
    70    78    77    1
    71    50    53    1
    72    50    49    1
    73    58    57    1
    74    58    61    1
    75    58    59    1
    76    53    54    1
    77    54    55    1
    78    54    56    1
    79     5     2    1
    80    15    16    1
    81    15     3   am
    82    29    27   ar
    83     1     2    1
    84    30    28   ar
    85    16    17    1
    86    59    60    2
    87     2     3    1
    88     3     4    2
    89    28    27   ar
    90    27    26    1
    91    71    73   ar
    92    71    70   ar
    93    17    18    2
    94    17    22   am
    95    65    66    1
    96    73    75   ar
    97    22    23    1
    98    66    69    1
    99    66    67    1
   100    69    70    1
   101    70    72   ar
   102    26    23    1
   103    47    46    1
   104    75    76    1
   105    75    74   ar
   106    23    24    1
   107    48    46    1
   108    67    68    2
   109    72    74   ar
   110    41    39   am
   111    46    43    1
   112    24    25    2
   113    43    44    1
   114    43    42    1
   115    39    40    2
   116    39    38    1
   117    44    45    2
   118    38    37    1
   119    36    35    2
   120    33    34    1
   121    35    34    1
   122    37    34    1
