@<TRIPOS>MOLECULE
tmp/4yh4A00.pdb
 126 122 0 0 0
SMALL
GASTEIGER

@<TRIPOS>ATOM
      1  N          3.9370   -0.3600    1.0670 N.3    40  TRP40      -0.1228
      2  CA         3.8110   -1.6930    1.5880 C.3    40  TRP40       0.1722
      3  C          5.0630   -2.5190    1.7950 C.2    40  TRP40       0.2437
      4  O          5.1390   -3.2240    2.7910 O.2    40  TRP40      -0.2733
      5  CB         2.6800   -2.4580    0.8160 C.3    40  TRP40       0.0563
      6  CG         2.9440   -2.6280   -0.6640 C.ar   40  TRP40       0.0003
      7  CD1        2.6210   -1.7030   -1.6550 C.ar   40  TRP40       0.0946
      8  CD2        3.5370   -3.7230   -1.3210 C.ar   40  TRP40       0.0152
      9  NE1        3.0110   -2.1420   -2.8560 N.ar   40  TRP40      -0.2442
     10  CE2        3.5720   -3.3870   -2.7000 C.ar   40  TRP40       0.0810
     11  CE3        4.0640   -4.9230   -0.8940 C.ar   40  TRP40       0.0012
     12  CZ2        4.1010   -4.2900   -3.6600 C.ar   40  TRP40       0.0191
     13  CZ3        4.5770   -5.8060   -1.8360 C.ar   40  TRP40       0.0001
     14  CH2        4.6020   -5.4680   -3.1750 C.ar   40  TRP40       0.0015
     15  N          6.0870   -2.4580    0.8980 N.am   41  PRO41      -0.2718
     16  CA         7.2710   -3.2940    1.1600 C.3    41  PRO41       0.1535
     17  C          8.0420   -2.8360    2.3930 C.2    41  PRO41       0.2598
     18  O          8.9150   -3.5790    2.8990 O.2    41  PRO41      -0.2715
     19  CB         8.0920   -3.0930   -0.0860 C.3    41  PRO41       0.0310
     20  CG         7.1710   -2.6430   -1.1600 C.3    41  PRO41       0.0237
     21  CD         6.1840   -1.7680   -0.3790 C.3    41  PRO41       0.0939
     22  N          7.7720   -1.6190    2.8710 N.am   42  PHE42      -0.1974
     23  CA         8.5250   -0.9520    3.9040 C.3    42  PHE42       0.1639
     24  C          7.7700   -0.8780    5.2110 C.2    42  PHE42       0.2290
     25  O          8.2620   -0.3030    6.1730 O.2    42  PHE42      -0.2864
     26  CB         8.9290    0.4590    3.4310 C.3    42  PHE42       0.0560
     27  CG         9.7060    0.4560    2.1480 C.ar   42  PHE42      -0.0200
     28  CD1       11.0390    0.1200    2.1370 C.ar   42  PHE42      -0.0042
     29  CD2        9.0870    0.7210    0.9710 C.ar   42  PHE42      -0.0042
     30  CE1       11.7500    0.0630    0.9410 C.ar   42  PHE42      -0.0003
     31  CE2        9.7860    0.6750   -0.2120 C.ar   42  PHE42      -0.0003
     32  CZ        11.1040    0.3530   -0.2480 C.ar   42  PHE42      -0.0000
     33  N          7.0280   -3.2500    7.3430 N.3    44  GLN44      -0.1245
     34  CA         7.4150   -4.2640    8.3140 C.3    44  GLN44       0.1566
     35  C          8.8540   -4.6900    7.9500 C.2    44  GLN44       0.2260
     36  O          9.2980   -4.4560    6.8530 O.2    44  GLN44      -0.2867
     37  CB         6.4800   -5.4720    8.2480 C.3    44  GLN44       0.0367
     38  CG         6.3790   -6.1720    6.8920 C.3    44  GLN44       0.0905
     39  CD         5.5800   -5.3500    5.8750 C.2    44  GLN44       0.2608
     40  OE1        4.4720   -4.8940    6.1400 O.2    44  GLN44      -0.2717
     41  NE2        6.1600   -5.1330    4.6780 N.am   44  GLN44      -0.0878
     42  N         11.9740   -6.6650    6.5530 N.3    46  VAL46      -0.1245
     43  CA        12.1240   -7.5480    5.3940 C.3    46  VAL46       0.1561
     44  C         12.1080   -8.9990    5.8670 C.2    46  VAL46       0.2260
     45  O         12.8870   -9.4260    6.6920 O.2    46  VAL46      -0.2867
     46  CB        13.4220   -7.2420    4.6410 C.3    46  VAL46       0.0252
     47  CG1       13.6830   -8.2380    3.5270 C.3    46  VAL46       0.0019
     48  CG2       13.4050   -5.8120    4.0600 C.3    46  VAL46       0.0019
     49  N         10.3540  -13.9480    1.1810 N.3    51  LEU51      -0.1245
     50  CA        10.8090  -13.3330   -0.0860 C.3    51  LEU51       0.1561
     51  C         11.9060  -14.1400   -0.7670 C.2    51  LEU51       0.2260
     52  O         12.3500  -13.7610   -1.8390 O.2    51  LEU51      -0.2867
     53  CB        11.2360  -11.8990    0.1730 C.3    51  LEU51       0.0270
     54  CG        10.0730  -10.9510    0.5310 C.3    51  LEU51       0.0019
     55  CD1       10.6010   -9.6640    1.1890 C.3    51  LEU51       0.0001
     56  CD2        9.1790  -10.6070   -0.6860 C.3    51  LEU51       0.0001
     57  N         15.1510  -14.4660   -0.0310 N.3    53  LEU53      -0.1245
     58  CA        16.3550  -13.6130   -0.1220 C.3    53  LEU53       0.1561
     59  C         17.3310  -14.0490    0.9200 C.2    53  LEU53       0.2260
     60  O         17.5820  -13.3650    1.8920 O.2    53  LEU53      -0.2867
     61  CB        15.9810  -12.1410    0.0860 C.3    53  LEU53       0.0270
     62  CG        14.9610  -11.5360   -0.8230 C.3    53  LEU53       0.0019
     63  CD1       14.6150  -10.0800   -0.3750 C.3    53  LEU53       0.0001
     64  CD2       15.3960  -11.6230   -2.2660 C.3    53  LEU53       0.0001
     65  N         19.9380  -11.6100    2.2770 N.3    56  TYR56      -0.1241
     66  CA        19.5760  -10.2300    2.6350 C.3    56  TYR56       0.1605
     67  C         20.2890   -9.7480    3.8930 C.2    56  TYR56       0.2264
     68  O         20.9170   -8.7000    3.9150 O.2    56  TYR56      -0.2867
     69  CB        18.0650  -10.0850    2.8130 C.3    56  TYR56       0.0534
     70  CG        17.6960   -8.6280    3.0340 C.ar   56  TYR56      -0.0201
     71  CD1       17.5580   -7.7600    1.9690 C.ar   56  TYR56      -0.0009
     72  CD2       17.5160   -8.1340    4.3200 C.ar   56  TYR56      -0.0009
     73  CE1       17.2510   -6.3920    2.1770 C.ar   56  TYR56       0.0417
     74  CE2       17.1990   -6.8080    4.5300 C.ar   56  TYR56       0.0417
     75  CZ        17.0930   -5.9280    3.4460 C.ar   56  TYR56       0.1957
     76  OH        16.8510   -4.5790    3.6810 O.3    56  TYR56      -0.2866
     77  N         17.8120   -0.3050    1.1210 N.3    95  CYS95      -0.1235
     78  CA        17.1910   -0.6090   -0.1620 C.3    95  CYS95       0.1677
     79  C         18.1570   -0.3200   -1.2920 C.2    95  CYS95       0.2270
     80  O         18.3350   -1.1270   -2.2220 O.2    95  CYS95      -0.2867
     81  CB        15.9390    0.2020   -0.3080 C.3    95  CYS95       0.0956
     82  SG        14.9740   -0.1910   -1.7760 S.3    95  CYS95      -0.0801
     83  N         21.1320   -2.9540   -1.2690 N.3    98  TYR98      -0.1227
     84  CA        20.8430   -4.3490   -1.5800 C.3    98  TYR98       0.1736
     85  C         20.4170   -4.5240   -3.0340 C.2    98  TYR98       0.2595
     86  O         20.7070   -5.5540   -3.6400 O.2    98  TYR98      -0.2718
     87  CB        19.7660   -4.8630   -0.6190 C.3    98  TYR98       0.0548
     88  CG        19.4910   -6.3590   -0.8800 C.ar   98  TYR98      -0.0200
     89  CD1       20.4040   -7.3240   -0.4510 C.ar   98  TYR98      -0.0009
     90  CD2       18.4050   -6.7880   -1.5980 C.ar   98  TYR98      -0.0009
     91  CE1       20.2070   -8.6520   -0.7550 C.ar   98  TYR98       0.0417
     92  CE2       18.1970   -8.1170   -1.8480 C.ar   98  TYR98       0.0417
     93  CZ        19.1040   -9.0710   -1.4350 C.ar   98  TYR98       0.1957
     94  OH        18.8690  -10.4070   -1.7630 O.3    98  TYR98      -0.2866
     95  N         19.7270   -3.5630   -3.6290 N.am   99  ASN99      -0.1974
     96  CA        19.0740   -3.7390   -4.9160 C.3    99  ASN99       0.1688
     97  C         19.8160   -3.0030   -6.0440 C.2    99  ASN99       0.2292
     98  O         20.7550   -2.3520   -5.8410 O.2    99  ASN99      -0.2864
     99  CB        17.6190   -3.2480   -4.8340 C.3    99  ASN99       0.1181
    100  CG        16.8190   -3.9910   -3.7990 C.2    99  ASN99       0.2629
    101  OD1       16.4080   -5.1540   -4.0410 O.2    99  ASN99      -0.2716
    102  ND2       16.6270   -3.4070   -2.6280 N.am   99  ASN99      -0.0877
    103  N         12.2860   -1.8760   -9.4880 N.3   104  ASP104     -0.1225
    104  CA        11.0590   -1.2920   -8.9690 C.3   104  ASP104      0.1805
    105  C         11.1230   -0.9680   -7.4920 C.2   104  ASP104      0.2597
    106  O         10.6090    0.0870   -7.0770 O.2   104  ASP104     -0.2718
    107  CB         9.8910   -2.2450   -9.2310 C.3   104  ASP104      0.1424
    108  CG         9.3170   -2.1500  -10.7150 C.2   104  ASP104      0.3668
    109  OD1        9.7480   -1.3150  -11.5200 O.co2 104  ASP104     -0.2456
    110  OD2        8.4260   -3.0410  -10.8720 O.co2 104  ASP104     -0.2456
    111  N         11.7170   -1.8010   -6.6490 N.am  105  ILE105     -0.1980
    112  CA        11.7620   -1.5100   -5.2260 C.3   105  ILE105      0.1595
    113  C         12.5510   -0.2170   -4.9360 C.2   105  ILE105      0.2287
    114  O         12.2440    0.5170   -4.0220 O.2   105  ILE105     -0.2864
    115  CB        12.3220   -2.6980   -4.4180 C.3   105  ILE105      0.0276
    116  CG1       12.1340   -2.5740   -2.9370 C.3   105  ILE105      0.0022
    117  CG2       13.7600   -3.0290   -4.7730 C.3   105  ILE105      0.0022
    118  CD1       10.7090   -2.4890   -2.4930 C.3   105  ILE105      0.0001
    119  N         10.4070    2.6930   -5.6990 N.3   108  MET108     -0.1245
    120  CA         9.5000    2.8850   -4.6050 C.3   108  MET108      0.1570
    121  C         10.1530    3.6540   -3.4380 C.2   108  MET108      0.2261
    122  O          9.6130    4.6330   -2.9410 O.2   108  MET108     -0.2867
    123  CB         8.9650    1.5410   -4.1130 C.3   108  MET108      0.0387
    124  CG         8.1300    0.8250   -5.1820 C.3   108  MET108      0.0595
    125  SD         7.7440   -0.8820   -4.8170 S.3   108  MET108     -0.1393
    126  CE         6.1940   -0.7340   -4.0290 C.3   108  MET108      0.0692
@<TRIPOS>BOND
     1   109   108   ar
     2   110   108   ar
     3   108   107    1
     4   103   104    1
     5   107   104    1
     6   104   105    1
     7   105   106    2
     8   105   111   am
     9   111   112    1
    10    97    98    2
    11    97    96    1
    12   119   120    1
    13   112   113    1
    14   112   115    1
    15   124   125    1
    16   124   123    1
    17   113   114    2
    18    96    99    1
    19    96    95    1
    20    99   100    1
    21   125   126    1
    22   117   115    1
    23   120   123    1
    24   120   121    1
    25   115   116    1
    26   101   100    2
    27   100   102   am
    28    12    14   ar
    29    12    10   ar
    30    86    85    2
    31    95    85   am
    32   121   122    2
    33    14    13   ar
    34    85    84    1
    35   116   118    1
    36     9    10   ar
    37     9     7   ar
    38    10     8   ar
    39    64    62    1
    40    80    79    2
    41    92    90   ar
    42    92    93   ar
    43    52    51    2
    44    13    11   ar
    45    82    81    1
    46    94    93    1
    47     7     6   ar
    48    90    88   ar
    49    84    83    1
    50    84    87    1
    51    93    91   ar
    52     8    11   ar
    53     8     6   ar
    54    79    78    1
    55    20    21    1
    56    20    19    1
    57    88    87    1
    58    88    89   ar
    59    62    63    1
    60    62    61    1
    61    51    50    1
    62    91    89   ar
    63    56    54    1
    64     6     5    1
    65    21    15    1
    66    81    78    1
    67    32    31   ar
    68    32    30   ar
    69    31    29   ar
    70    78    77    1
    71    58    57    1
    72    58    61    1
    73    58    59    1
    74    50    53    1
    75    50    49    1
    76    19    16    1
    77    53    54    1
    78    54    55    1
    79     5     2    1
    80    15    16    1
    81    15     3   am
    82    59    60    2
    83    30    28   ar
    84    29    27   ar
    85     1     2    1
    86    16    17    1
    87     2     3    1
    88     3     4    2
    89    71    73   ar
    90    71    70   ar
    91    28    27   ar
    92    27    26    1
    93    73    75   ar
    94    65    66    1
    95    17    22   am
    96    17    18    2
    97    66    69    1
    98    66    67    1
    99    69    70    1
   100    22    23    1
   101    70    72   ar
   102    26    23    1
   103    75    76    1
   104    75    74   ar
   105    47    46    1
   106    67    68    2
   107    23    24    1
   108    48    46    1
   109    72    74   ar
   110    46    43    1
   111    41    39   am
   112    24    25    2
   113    43    44    1
   114    43    42    1
   115    44    45    2
   116    39    40    2
   117    39    38    1
   118    36    35    2
   119    38    37    1
   120    33    34    1
   121    35    34    1
   122    37    34    1
