@<TRIPOS>MOLECULE
tmp/4yh7B02.pdb
 90 83 0 0 0
SMALL
GASTEIGER

@<TRIPOS>ATOM
      1  N        -42.9500  -58.8540  -50.3130 N.3   109  ASP109     -0.1239
      2  CA       -43.9470  -59.7110  -49.6930 C.3   109  ASP109      0.1674
      3  C        -44.0130  -61.0240  -50.4670 C.2   109  ASP109      0.2266
      4  O        -43.9080  -61.0370  -51.6950 O.2   109  ASP109     -0.2867
      5  CB       -45.3140  -59.0240  -49.6430 C.3   109  ASP109      0.1410
      6  CG       -46.1900  -59.5540  -48.5230 C.2   109  ASP109      0.3668
      7  OD1      -47.4120  -59.2940  -48.5410 O.co2 109  ASP109     -0.2456
      8  OD2      -45.6550  -60.2360  -47.6250 O.co2 109  ASP109     -0.2456
      9  N        -44.0530  -61.7560  -54.4430 N.3   112  LEU112     -0.1245
     10  CA       -44.2190  -60.5340  -55.2210 C.3   112  LEU112      0.1561
     11  C        -42.9000  -59.7820  -55.4210 C.2   112  LEU112      0.2260
     12  O        -41.8190  -60.3020  -55.1260 O.2   112  LEU112     -0.2867
     13  CB       -45.2550  -59.6400  -54.5360 C.3   112  LEU112      0.0270
     14  CG       -46.5240  -60.4290  -54.1800 C.3   112  LEU112      0.0019
     15  CD1      -47.3690  -59.7350  -53.1270 C.3   112  LEU112      0.0001
     16  CD2      -47.3440  -60.7080  -55.4330 C.3   112  LEU112      0.0001
     17  N        -43.0280  -55.9730  -54.9620 N.3   114  TYR114     -0.1241
     18  CA       -43.2300  -54.9100  -53.9880 C.3   114  TYR114      0.1605
     19  C        -43.2450  -55.4500  -52.5670 C.2   114  TYR114      0.2264
     20  O        -43.3480  -56.6560  -52.3480 O.2   114  TYR114     -0.2867
     21  CB       -44.5440  -54.1680  -54.2600 C.3   114  TYR114      0.0534
     22  CG       -45.7720  -55.0490  -54.3580 C.ar  114  TYR114     -0.0201
     23  CD1      -46.3930  -55.5410  -53.2170 C.ar  114  TYR114     -0.0009
     24  CD2      -46.3230  -55.3710  -55.5920 C.ar  114  TYR114     -0.0009
     25  CE1      -47.5160  -56.3390  -53.3010 C.ar  114  TYR114      0.0417
     26  CE2      -47.4490  -56.1710  -55.6870 C.ar  114  TYR114      0.0417
     27  CZ       -48.0410  -56.6510  -54.5370 C.ar  114  TYR114      0.1957
     28  OH       -49.1620  -57.4470  -54.6130 O.3   114  TYR114     -0.2866
     29  N        -45.7310  -55.2650  -49.4950 N.3   116  SER116     -0.1217
     30  CA       -47.1390  -54.9600  -49.2330 C.3   116  SER116      0.1889
     31  C        -47.3630  -53.7600  -48.3070 C.2   116  SER116      0.2288
     32  O        -48.3230  -53.0030  -48.4740 O.2   116  SER116     -0.2866
     33  CB       -47.8290  -56.1880  -48.6350 C.3   116  SER116      0.2089
     34  OG       -47.9460  -57.2290  -49.5900 O.3   116  SER116     -0.2183
     35  N        -46.0280  -49.5120  -49.9810 N.3   119  LYS119     -0.1245
     36  CA       -46.4590  -48.9360  -51.2520 C.3   119  LYS119      0.1561
     37  C        -47.3260  -47.6910  -51.0720 C.2   119  LYS119      0.2260
     38  O        -48.0810  -47.5890  -50.1060 O.2   119  LYS119     -0.2867
     39  CB       -47.2220  -49.9790  -52.0710 C.3   119  LYS119      0.0271
     40  CG       -48.2610  -50.7610  -51.2870 C.3   119  LYS119      0.0035
     41  CD       -49.3440  -51.3030  -52.2050 C.3   119  LYS119      0.0206
     42  CE       -49.7310  -52.7160  -51.8260 C.3   119  LYS119      0.1093
     43  NZ       -48.7140  -53.6850  -52.2880 N.3   119  LYS119     -0.1314
     44  N        -48.0460  -54.8210  -63.8920 N.3   149  LYS149     -0.1231
     45  CA       -49.3360  -54.9350  -63.2310 C.3   149  LYS149      0.1693
     46  C        -49.3390  -56.2370  -62.4430 C.2   149  LYS149      0.2591
     47  O        -49.1960  -57.3140  -63.0250 O.2   149  LYS149     -0.2718
     48  CB       -50.4740  -54.9070  -64.2500 C.3   149  LYS149      0.0285
     49  CG       -51.8470  -55.1910  -63.6730 C.3   149  LYS149      0.0035
     50  CD       -52.5640  -53.9110  -63.3090 C.3   149  LYS149      0.0206
     51  CE       -54.0550  -54.0390  -63.5650 C.3   149  LYS149      0.1093
     52  NZ       -54.6100  -55.2700  -62.9350 N.3   149  LYS149     -0.1314
     53  N        -49.4850  -56.1310  -61.1240 N.am  150  GLU150     -0.1979
     54  CA       -49.3930  -57.2810  -60.2250 C.3   150  GLU150      0.1602
     55  C        -48.0600  -58.0060  -60.4200 C.2   150  GLU150      0.2287
     56  O        -47.9900  -59.2340  -60.3470 O.2   150  GLU150     -0.2864
     57  CB       -50.5680  -58.2400  -60.4410 C.3   150  GLU150      0.0415
     58  CG       -51.9330  -57.6190  -60.1880 C.3   150  GLU150      0.1163
     59  CD       -52.0660  -57.0480  -58.7880 C.2   150  GLU150      0.3649
     60  OE1      -51.5310  -57.6600  -57.8360 O.co2 150  GLU150     -0.2457
     61  OE2      -52.7010  -55.9810  -58.6400 O.co2 150  GLU150     -0.2457
     62  N        -58.1260  -51.4280  -61.5170 N.3   177  ILE177     -0.1231
     63  CA       -57.7930  -51.6870  -60.1200 C.3   177  ILE177      0.1692
     64  C        -56.6150  -52.6460  -59.9940 C.2   177  ILE177      0.2593
     65  O        -56.5490  -53.6540  -60.6960 O.2   177  ILE177     -0.2718
     66  CB       -59.0010  -52.2760  -59.3510 C.3   177  ILE177      0.0266
     67  CG1      -60.1020  -51.2300  -59.2020 C.3   177  ILE177      0.0019
     68  CG2      -58.5840  -52.7890  -57.9750 C.3   177  ILE177      0.0020
     69  CD1      -61.3310  -51.7300  -58.4650 C.3   177  ILE177      0.0001
     70  N        -55.6830  -52.3260  -59.1030 N.am  178  GLY178     -0.1942
     71  CA       -54.5910  -53.2300  -58.8110 C.3   178  GLY178      0.2014
     72  C        -53.3040  -52.5500  -58.4030 C.2   178  GLY178      0.2638
     73  O        -53.2820  -51.3640  -58.0650 O.2   178  GLY178     -0.2714
     74  N        -52.2220  -53.3180  -58.4480 N.am  179  ASN179     -0.1972
     75  CA       -50.9200  -52.8550  -58.0000 C.3   179  ASN179      0.1688
     76  C        -49.9800  -52.5710  -59.1580 C.2   179  ASN179      0.2292
     77  O        -49.3700  -53.4840  -59.7190 O.2   179  ASN179     -0.2864
     78  CB       -50.3010  -53.8860  -57.0640 C.3   179  ASN179      0.1181
     79  CG       -51.2420  -54.2840  -55.9540 C.2   179  ASN179      0.2629
     80  OD1      -51.3110  -53.6130  -54.9220 O.2   179  ASN179     -0.2716
     81  ND2      -52.0040  -55.3610  -56.1760 N.am  179  ASN179     -0.0877
     82  N        -50.7480  -48.6650  -55.3660 N.3   196  GLU196     -0.1245
     83  CA       -51.9820  -49.4310  -55.4900 C.3   196  GLU196      0.1567
     84  C        -53.1200  -48.5420  -55.9770 C.2   196  GLU196      0.2260
     85  O        -53.3690  -47.4750  -55.4170 O.2   196  GLU196     -0.2867
     86  CB       -52.3390  -50.0790  -54.1500 C.3   196  GLU196      0.0388
     87  CG       -53.6310  -50.8620  -54.1590 C.3   196  GLU196      0.1160
     88  CD       -53.7390  -51.8000  -52.9790 C.2   196  GLU196      0.3649
     89  OE1      -54.8710  -52.0450  -52.5140 O.co2 196  GLU196     -0.2457
     90  OE2      -52.6900  -52.2940  -52.5180 O.co2 196  GLU196     -0.2457
@<TRIPOS>BOND
     1    48    49    1
     2    48    45    1
     3    44    45    1
     4    49    50    1
     5    51    50    1
     6    51    52    1
     7    45    46    1
     8    47    46    2
     9    46    53   am
    10    62    63    1
    11    53    54    1
    12    65    64    2
    13    57    54    1
    14    57    58    1
    15    55    56    2
    16    55    54    1
    17    58    59    1
    18    63    64    1
    19    63    66    1
    20    64    70   am
    21    77    76    2
    22    66    67    1
    23    66    68    1
    24    67    69    1
    25    76    75    1
    26    70    71    1
    27    71    72    1
    28    59    61   ar
    29    59    60   ar
    30    74    72   am
    31    74    75    1
    32    72    73    2
    33    75    78    1
    34    78    79    1
    35    81    79   am
    36    84    83    1
    37    84    85    2
    38    79    80    2
    39    26    24   ar
    40    26    27   ar
    41    24    22   ar
    42    83    82    1
    43    83    86    1
    44    16    14    1
    45    11    10    1
    46    11    12    2
    47    10    13    1
    48    10     9    1
    49    17    18    1
    50    28    27    1
    51    27    25   ar
    52    13    14    1
    53    22    21    1
    54    22    23   ar
    55    21    18    1
    56    14    15    1
    57    87    86    1
    58    87    88    1
    59    18    19    1
    60    25    23   ar
    61    88    90   ar
    62    88    89   ar
    63    19    20    2
    64    43    42    1
    65    41    42    1
    66    41    40    1
    67    39    40    1
    68    39    36    1
    69     4     3    2
    70    36    37    1
    71    36    35    1
    72    37    38    2
    73     3     2    1
    74     1     2    1
    75     2     5    1
    76     5     6    1
    77    34    33    1
    78    29    30    1
    79    30    33    1
    80    30    31    1
    81     7     6   ar
    82     6     8   ar
    83    32    31    2
