@<TRIPOS>MOLECULE
tmp/4yhbB00.pdb
 234 231 0 0 0
SMALL
GASTEIGER

@<TRIPOS>ATOM
      1  N         29.3790   38.5750   44.1720 N.3    46  ALA46      -0.1245
      2  CA        30.5420   39.4560   44.1290 C.3    46  ALA46       0.1562
      3  C         31.4260   39.3370   45.3770 C.2    46  ALA46       0.2260
      4  O         32.3300   40.1520   45.5700 O.2    46  ALA46      -0.2867
      5  CB        30.1100   40.8970   43.9410 C.3    46  ALA46       0.0290
      6  N         34.4020   38.5780   47.6120 N.3    48  HIS48      -0.1241
      7  CA        35.8050   38.5690   47.2330 C.3    48  HIS48       0.1621
      8  C         36.7120   38.4050   48.4430 C.2    48  HIS48       0.2264
      9  O         36.3220   38.7160   49.5700 O.2    48  HIS48      -0.2867
     10  CB        36.1710   39.8450   46.4790 C.3    48  HIS48       0.0745
     11  CG        35.7280   41.1050   47.1570 C.ar   48  HIS48       0.0817
     12  ND1       34.4280   41.5640   47.0940 N.ar   48  HIS48      -0.2268
     13  CD2       36.4160   42.0200   47.8830 C.ar   48  HIS48       0.1154
     14  CE1       34.3320   42.6980   47.7630 C.ar   48  HIS48       0.1986
     15  NE2       35.5220   42.9940   48.2570 N.ar   48  HIS48      -0.2212
     16  N         45.9350   41.3770   47.1140 N.3    82  ARG82      -0.1231
     17  CA        45.0800   41.8540   46.0320 C.3    82  ARG82       0.1694
     18  C         43.6810   41.2650   46.1880 C.2    82  ARG82       0.2592
     19  O         43.5300   40.1680   46.7230 O.2    82  ARG82      -0.2718
     20  CB        45.6450   41.4490   44.6660 C.3    82  ARG82       0.0321
     21  CG        47.0760   41.8850   44.3790 C.3    82  ARG82       0.0489
     22  CD        47.1860   43.3850   44.1670 C.3    82  ARG82       0.2205
     23  NE        48.5070   43.7460   43.6610 N.pl3  82  ARG82      -0.0865
     24  CZ        49.5060   44.2040   44.4120 C.cat  82  ARG82       0.5346
     25  NH1       49.3370   44.3850   45.7190 N.pl3  82  ARG82       0.1354
     26  NH2       50.6740   44.5000   43.8440 N.pl3  82  ARG82       0.1354
     27  N         42.6680   41.9780   45.7010 N.am   83  ASP83      -0.1960
     28  CA        41.3000   41.4810   45.6920 C.3    83  ASP83       0.1840
     29  C         41.0550   40.5250   44.5310 C.2    83  ASP83       0.2622
     30  O         41.3400   40.8630   43.3840 O.2    83  ASP83      -0.2715
     31  CB        40.2990   42.6310   45.5800 C.3    83  ASP83       0.1450
     32  CG        40.1020   43.3660   46.8870 C.2    83  ASP83       0.3671
     33  OD1       40.8680   43.1200   47.8410 O.co2  83  ASP83      -0.2456
     34  OD2       39.1770   44.1990   46.9490 O.co2  83  ASP83      -0.2456
     35  N         40.4820   39.3650   44.8400 N.am   84  TYR84      -0.1960
     36  CA        40.0120   38.4190   43.8280 C.3    84  TYR84       0.1771
     37  C         38.6550   37.8800   44.2330 C.2    84  TYR84       0.2620
     38  O         38.3450   37.7520   45.4230 O.2    84  TYR84      -0.2715
     39  CB        41.0070   37.2750   43.6350 C.3    84  TYR84       0.0574
     40  CG        42.2080   37.6920   42.8190 C.ar   84  TYR84      -0.0198
     41  CD1       42.1900   37.6010   41.4190 C.ar   84  TYR84      -0.0009
     42  CD2       43.3440   38.2060   43.4340 C.ar   84  TYR84      -0.0009
     43  CE1       43.2810   37.9950   40.6670 C.ar   84  TYR84       0.0417
     44  CE2       44.4480   38.6090   42.6830 C.ar   84  TYR84       0.0417
     45  CZ        44.4060   38.5040   41.3050 C.ar   84  TYR84       0.1957
     46  OH        45.5010   38.8950   40.5730 O.3    84  TYR84      -0.2866
     47  N         37.8330   37.5790   43.2370 N.am   85  THR85      -0.1951
     48  CA        36.4670   37.1330   43.4590 C.3    85  THR85       0.1897
     49  C         36.4050   35.6670   43.8580 C.2    85  THR85       0.2313
     50  O         37.1830   34.8560   43.3630 O.2    85  THR85      -0.2863
     51  CB        35.6180   37.3610   42.1660 C.3    85  THR85       0.1794
     52  OG1       35.5210   38.7680   41.9280 O.3    85  THR85      -0.2208
     53  CG2       34.2250   36.7720   42.2970 C.3    85  THR85       0.0378
     54  N         39.2570   32.6890   39.6730 N.3    99  ASP99      -0.1239
     55  CA        39.6170   32.9280   38.2660 C.3    99  ASP99       0.1674
     56  C         40.5460   34.1390   38.1580 C.2    99  ASP99       0.2266
     57  O         40.1520   35.2530   38.4990 O.2    99  ASP99      -0.2867
     58  CB        38.3790   33.1660   37.4080 C.3    99  ASP99       0.1410
     59  CG        37.6190   31.8940   37.0930 C.2    99  ASP99       0.3668
     60  OD1       38.0700   30.7990   37.4920 O.co2  99  ASP99      -0.2456
     61  OD2       36.5720   31.9960   36.4150 O.co2  99  ASP99      -0.2456
     62  N         42.8720   36.8040   35.9430 N.3   101  VAL101     -0.1245
     63  CA        43.3130   37.3470   34.6500 C.3   101  VAL101      0.1561
     64  C         44.8260   37.1910   34.5590 C.2   101  VAL101      0.2260
     65  O         45.5500   37.6510   35.4420 O.2   101  VAL101     -0.2867
     66  CB        42.9490   38.8440   34.4670 C.3   101  VAL101      0.0252
     67  CG1       43.5660   39.4000   33.1690 C.3   101  VAL101      0.0019
     68  CG2       41.4520   39.0270   34.4690 C.3   101  VAL101      0.0019
     69  N         47.9790   38.4410   33.2690 N.3   103  HIS103     -0.1241
     70  CA        48.5830   39.6200   32.6620 C.3   103  HIS103      0.1621
     71  C         49.9640   39.8300   33.2850 C.2   103  HIS103      0.2264
     72  O         50.2770   39.2630   34.3380 O.2   103  HIS103     -0.2867
     73  CB        47.6850   40.8510   32.8440 C.3   103  HIS103      0.0745
     74  CG        47.6220   41.3420   34.2580 C.ar  103  HIS103      0.0817
     75  ND1       48.3860   42.3930   34.7190 N.ar  103  HIS103     -0.2268
     76  CD2       46.9090   40.9000   35.3220 C.ar  103  HIS103      0.1154
     77  CE1       48.1370   42.5860   36.0030 C.ar  103  HIS103      0.1986
     78  NE2       47.2420   41.6950   36.3920 N.ar  103  HIS103     -0.2212
     79  N         51.5180   42.7380   34.1180 N.3   105  ASN105     -0.1225
     80  CA        51.7040   44.0760   34.6560 C.3   105  ASN105      0.1785
     81  C         51.8790   44.1680   36.1760 C.2   105  ASN105      0.2598
     82  O         52.3280   45.1970   36.6860 O.2   105  ASN105     -0.2718
     83  CB        50.5200   44.9430   34.2250 C.3   105  ASN105      0.1169
     84  CG        50.3700   45.0130   32.7190 C.2   105  ASN105      0.2627
     85  OD1       51.3260   45.3190   32.0120 O.2   105  ASN105     -0.2716
     86  ND2       49.1710   44.7300   32.2220 N.am  105  ASN105     -0.0877
     87  N         51.5070   43.1110   36.8950 N.am  106  GLY106     -0.1943
     88  CA        51.5990   43.0960   38.3500 C.3   106  GLY106      0.1998
     89  C         51.8410   41.6940   38.8810 C.2   106  GLY106      0.2481
     90  O         51.6700   40.7140   38.1550 O.2   106  GLY106     -0.2729
     91  N         52.2280   41.5830   40.1630 N.am  107  PRO107     -0.2715
     92  CA        52.6130   40.2940   40.7530 C.3   107  PRO107      0.1536
     93  C         51.4810   39.2630   40.8010 C.2   107  PRO107      0.2599
     94  O         51.7450   38.0720   40.6980 O.2   107  PRO107     -0.2715
     95  CB        53.0460   40.6780   42.1770 C.3   107  PRO107      0.0310
     96  CG        52.3070   41.9300   42.4690 C.3   107  PRO107      0.0237
     97  CD        52.2560   42.6700   41.1550 C.3   107  PRO107      0.0939
     98  N         50.2410   39.7080   40.9550 N.am  108  GLY108     -0.1941
     99  CA        49.1210   38.7780   40.9950 C.3   108  GLY108      0.2014
    100  C         48.9040   38.1040   39.6490 C.2   108  GLY108      0.2639
    101  O         48.8030   36.8830   39.5600 O.2   108  GLY108     -0.2714
    102  N         48.8220   38.9060   38.5930 N.am  109  GLY109     -0.1954
    103  CA        48.7000   38.3640   37.2540 C.3   109  GLY109      0.1869
    104  C         49.8700   37.4740   36.8750 C.2   109  GLY109      0.2309
    105  O         49.7050   36.4720   36.1790 O.2   109  GLY109     -0.2863
    106  N         37.3900   41.6550   31.8780 N.3   144  GLU144     -0.1231
    107  CA        37.8060   40.3340   32.3340 C.3   144  GLU144      0.1699
    108  C         38.0470   40.2500   33.8450 C.2   144  GLU144      0.2592
    109  O         37.9690   39.1650   34.4060 O.2   144  GLU144     -0.2718
    110  CB        39.0600   39.8740   31.5890 C.3   144  GLU144      0.0402
    111  CG        40.2160   40.8550   31.6340 C.3   144  GLU144      0.1161
    112  CD        40.3010   41.6870   30.3790 C.2   144  GLU144      0.3649
    113  OE1       39.2410   42.1690   29.9170 O.co2 144  GLU144     -0.2457
    114  OE2       41.4250   41.8410   29.8480 O.co2 144  GLU144     -0.2457
    115  N         38.3200   41.3710   34.5070 N.am  145  THR145     -0.1953
    116  CA        38.5260   41.3170   35.9620 C.3   145  THR145      0.1897
    117  C         37.2160   41.0970   36.7110 C.2   145  THR145      0.2313
    118  O         37.2120   40.5690   37.8200 O.2   145  THR145     -0.2863
    119  CB        39.1820   42.5970   36.5270 C.3   145  THR145      0.1794
    120  OG1       38.2870   43.7110   36.3630 O.3   145  THR145     -0.2208
    121  CG2       40.5270   42.8690   35.8500 C.3   145  THR145      0.0378
    122  N         34.6300   37.0020   36.4240 N.3   148  PRO148     -0.2116
    123  CA        34.3130   35.9300   37.3800 C.3   148  PRO148      0.1372
    124  C         33.0660   36.2030   38.2260 C.2   148  PRO148      0.2244
    125  O         32.2730   35.2830   38.4410 O.2   148  PRO148     -0.2868
    126  CB        35.5660   35.8630   38.2650 C.3   148  PRO148      0.0268
    127  CG        36.6850   36.3500   37.3420 C.3   148  PRO148      0.0207
    128  CD        36.0420   37.4340   36.5240 C.3   148  PRO148      0.0892
    129  N         43.8980   46.6940   27.6170 N.3   196  PRO196     -0.2116
    130  CA        42.8840   46.6390   28.6730 C.3   196  PRO196      0.1372
    131  C         42.5970   48.0250   29.2470 C.2   196  PRO196      0.2244
    132  O         43.5300   48.7980   29.4660 O.2   196  PRO196     -0.2868
    133  CB        43.5290   45.7400   29.7340 C.3   196  PRO196      0.0268
    134  CG        44.4620   44.8820   28.9800 C.3   196  PRO196      0.0207
    135  CD        44.9580   45.6900   27.8130 C.3   196  PRO196      0.0892
    136  N         31.2080   49.2420   39.9150 N.3   248  ASP248     -0.1239
    137  CA        32.3330   49.0030   40.8170 C.3   248  ASP248      0.1674
    138  C         33.6530   48.9440   40.0620 C.2   248  ASP248      0.2266
    139  O         33.8400   48.0930   39.1820 O.2   248  ASP248     -0.2867
    140  CB        32.0930   47.7080   41.6070 C.3   248  ASP248      0.1410
    141  CG        32.9180   47.6280   42.8890 C.2   248  ASP248      0.3668
    142  OD1       33.6720   48.5760   43.1900 O.co2 248  ASP248     -0.2456
    143  OD2       32.7870   46.6160   43.6150 O.co2 248  ASP248     -0.2456
    144  N         37.2080   47.8790   39.6220 N.3   250  TYR250     -0.1227
    145  CA        37.9990   46.7610   40.1370 C.3   250  TYR250      0.1736
    146  C         39.4890   47.0250   40.0330 C.2   250  TYR250      0.2595
    147  O         40.2980   46.4420   40.7570 O.2   250  TYR250     -0.2718
    148  CB        37.6380   45.4730   39.3890 C.3   250  TYR250      0.0548
    149  CG        36.4560   44.7600   39.9840 C.ar  250  TYR250     -0.0200
    150  CD1       35.5740   45.4260   40.8240 C.ar  250  TYR250     -0.0009
    151  CD2       36.2460   43.4130   39.7540 C.ar  250  TYR250     -0.0009
    152  CE1       34.5060   44.7750   41.4000 C.ar  250  TYR250      0.0417
    153  CE2       35.1730   42.7530   40.3280 C.ar  250  TYR250      0.0417
    154  CZ        34.3150   43.4390   41.1490 C.ar  250  TYR250      0.1957
    155  OH        33.2580   42.7820   41.7280 O.3   250  TYR250     -0.2866
    156  N         39.8480   47.9170   39.1240 N.am  251  TRP251     -0.1962
    157  CA        41.2310   48.2900   38.9240 C.3   251  TRP251      0.1771
    158  C         41.2810   49.6260   38.1850 C.2   251  TRP251      0.2619
    159  O         40.2460   50.1600   37.7900 O.2   251  TRP251     -0.2715
    160  CB        41.9840   47.1990   38.1540 C.3   251  TRP251      0.0590
    161  CG        41.5570   47.0160   36.6950 C.ar  251  TRP251      0.0006
    162  CD1       40.3890   46.4800   36.2300 C.ar  251  TRP251      0.0946
    163  CD2       42.3290   47.3570   35.5410 C.ar  251  TRP251      0.0152
    164  NE1       40.3840   46.4760   34.8450 N.ar  251  TRP251     -0.2442
    165  CE2       41.5680   47.0070   34.4020 C.ar  251  TRP251      0.0810
    166  CE3       43.5960   47.9210   35.3590 C.ar  251  TRP251      0.0012
    167  CZ2       42.0300   47.2140   33.0990 C.ar  251  TRP251      0.0191
    168  CZ3       44.0550   48.1260   34.0650 C.ar  251  TRP251      0.0001
    169  CH2       43.2720   47.7730   32.9520 C.ar  251  TRP251      0.0015
    170  N         42.4810   50.1700   38.0310 N.am  252  ARG252     -0.1963
    171  CA        42.6710   51.4310   37.3200 C.3   252  ARG252      0.1729
    172  C         44.0570   51.4630   36.7110 C.2   252  ARG252      0.2616
    173  O         45.0430   51.2430   37.4160 O.2   252  ARG252     -0.2715
    174  CB        42.4690   52.6310   38.2560 C.3   252  ARG252      0.0348
    175  CG        42.9320   53.9520   37.6490 C.3   252  ARG252      0.0492
    176  CD        42.6680   55.1400   38.5590 C.3   252  ARG252      0.2205
    177  NE        41.3380   55.7060   38.3490 N.pl3 252  ARG252     -0.0865
    178  CZ        40.3950   55.7650   39.2830 C.cat 252  ARG252      0.5346
    179  NH1       40.6380   55.3010   40.5020 N.pl3 252  ARG252      0.1354
    180  NH2       39.2110   56.2950   39.0020 N.pl3 252  ARG252      0.1354
    181  N         44.1340   51.7140   35.3990 N.am  253  ARG253     -0.1963
    182  CA        45.4220   51.7830   34.7090 C.3   253  ARG253      0.1729
    183  C         46.3840   52.7040   35.4420 C.2   253  ARG253      0.2617
    184  O         46.0250   53.8240   35.7910 O.2   253  ARG253     -0.2715
    185  CB        45.2570   52.2790   33.2680 C.3   253  ARG253      0.0348
    186  CG        44.4070   51.3970   32.3770 C.3   253  ARG253      0.0492
    187  CD        44.2680   52.0200   30.9860 C.3   253  ARG253      0.2205
    188  NE        45.5380   52.0170   30.2630 N.pl3 253  ARG253     -0.0865
    189  CZ        46.2080   53.1080   29.9030 C.cat 253  ARG253      0.5346
    190  NH1       45.7280   54.3120   30.1860 N.pl3 253  ARG253      0.1354
    191  NH2       47.3560   52.9900   29.2460 N.pl3 253  ARG253      0.1354
    192  N         47.6000   52.2220   35.6820 N.am  254  GLY254     -0.1940
    193  CA        48.6240   53.0170   36.3320 C.3   254  GLY254      0.2014
    194  C         48.6520   52.8700   37.8430 C.2   254  GLY254      0.2639
    195  O         49.6470   53.2120   38.4790 O.2   254  GLY254     -0.2714
    196  N         47.5640   52.3620   38.4160 N.am  255  VAL255     -0.1963
    197  CA        47.4600   52.1900   39.8680 C.3   255  VAL255      0.1727
    198  C         47.6480   50.7310   40.2750 C.2   255  VAL255      0.2617
    199  O         47.0770   49.8220   39.6670 O.2   255  VAL255     -0.2715
    200  CB        46.1000   52.6820   40.3920 C.3   255  VAL255      0.0290
    201  CG1       45.9700   52.4450   41.9070 C.3   255  VAL255      0.0023
    202  CG2       45.8940   54.1530   40.0470 C.3   255  VAL255      0.0023
    203  N         48.4570   50.5080   41.3040 N.am  256  SER256     -0.1936
    204  CA        48.6670   49.1650   41.8250 C.3   256  SER256      0.2055
    205  C         47.7500   48.9360   43.0160 C.2   256  SER256      0.2643
    206  O         47.6650   49.7920   43.8960 O.2   256  SER256     -0.2714
    207  CB        50.1270   48.9620   42.2240 C.3   256  SER256      0.2130
    208  OG        50.3250   47.6590   42.7390 O.3   256  SER256     -0.2179
    209  N         47.0480   47.8000   43.0170 N.am  257  ASN257     -0.1957
    210  CA        46.1730   47.4010   44.1220 C.3   257  ASN257      0.1819
    211  C         45.1620   48.4730   44.5040 C.2   257  ASN257      0.2621
    212  O         45.1420   48.9340   45.6450 O.2   257  ASN257     -0.2715
    213  CB        47.0150   47.0250   45.3520 C.3   257  ASN257      0.1195
    214  CG        46.1890   46.4080   46.4600 C.2   257  ASN257      0.2630
    215  OD1       45.1300   45.8230   46.2120 O.2   257  ASN257     -0.2716
    216  ND2       46.6590   46.5550   47.7050 N.am  257  ASN257     -0.0877
    217  N         44.3340   48.8800   43.5480 N.am  258  LEU258     -0.1977
    218  CA        43.2670   49.8430   43.8090 C.3   258  LEU258      0.1596
    219  C         42.3460   49.3870   44.9420 C.2   258  LEU258      0.2287
    220  O         41.9090   48.2290   44.9880 O.2   258  LEU258     -0.2864
    221  CB        42.4390   50.0810   42.5390 C.3   258  LEU258      0.0297
    222  CG        41.2730   51.0700   42.6460 C.3   258  LEU258      0.0022
    223  CD1       41.8000   52.4860   42.8330 C.3   258  LEU258      0.0001
    224  CD2       40.3580   50.9870   41.4220 C.3   258  LEU258      0.0001
    225  N         38.8150   49.6260   46.4010 N.3   260  HIS260     -0.1241
    226  CA        37.5950   49.7990   45.6610 C.3   260  HIS260      0.1621
    227  C         36.5200   50.2550   46.6380 C.2   260  HIS260      0.2264
    228  O         35.3680   50.5030   46.2590 O.2   260  HIS260     -0.2867
    229  CB        37.3430   48.4420   44.9410 C.3   260  HIS260      0.0745
    230  CG        36.4910   47.4480   45.6870 C.ar  260  HIS260      0.0817
    231  ND1       35.2980   47.7920   46.2770 N.ar  260  HIS260     -0.2268
    232  CD2       36.8510   46.2630   46.2450 C.ar  260  HIS260      0.1154
    233  CE1       34.8450   46.7400   46.9640 C.ar  260  HIS260      0.1986
    234  NE2       35.7730   45.8190   46.9750 N.ar  260  HIS260     -0.2212
@<TRIPOS>BOND
     1   129   135    1
     2   129   130    1
     3   135   134    1
     4   130   131    1
     5   130   133    1
     6   134   133    1
     7   191   189    1
     8   131   132    2
     9   114   112   ar
    10   189   190    1
    11   189   188    2
    12   113   112   ar
    13   188   187    1
    14   112   111    1
    15   187   186    1
    16   110   111    1
    17   110   107    1
    18   106   107    1
    19    85    84    2
    20    86    84   am
    21   107   108    1
    22   186   185    1
    23    70    73    1
    24    70    69    1
    25    70    71    1
    26    84    83    1
    27    73    74    1
    28   169   167   ar
    29   169   168   ar
    30   167   165   ar
    31    67    66    1
    32   185   182    1
    33    71    72    2
    34   108   109    2
    35   108   115   am
    36   168   166   ar
    37    79    80    1
    38    83    80    1
    39    74    75   ar
    40    74    76   ar
    41   165   164   ar
    42   165   163   ar
    43    66    68    1
    44    66    63    1
    45   115   116    1
    46    64    63    1
    47    64    65    2
    48    63    62    1
    49    80    81    1
    50   182   181    1
    51   182   183    1
    52    75    77   ar
    53   164   162   ar
    54    76    78   ar
    55   166   163   ar
    56   181   172   am
    57   183   192   am
    58   183   184    2
    59   163   161   ar
    60   192   193    1
    61   121   119    1
    62   116   119    1
    63   116   117    1
    64    77    78   ar
    65    81    82    2
    66    81    87   am
    67   105   104    2
    68   162   161   ar
    69   193   194    1
    70   120   119    1
    71    61    59   ar
    72   122   128    1
    73   122   123    1
    74   128   127    1
    75   161   160    1
    76   172   171    1
    77   172   173    2
    78   117   118    2
    79   104   103    1
    80    87    88    1
    81    59    58    1
    82    59    60   ar
    83   103   102    1
    84   171   170    1
    85   171   174    1
    86   127   126    1
    87   123   124    1
    88   123   126    1
    89    58    55    1
    90   175   174    1
    91   175   176    1
    92   159   158    2
    93   194   196   am
    94   194   195    2
    95   170   158   am
    96   160   157    1
    97    90    89    2
    98    56    55    1
    99    56    57    2
   100   158   157    1
   101   124   125    2
   102    55    54    1
   103   177   176    1
   104   177   178    2
   105    88    89    1
   106   196   197    1
   107   102   100   am
   108    89    91   am
   109   157   156    1
   110   180   178    1
   111   156   146   am
   112   139   138    2
   113   178   179    1
   114   148   149    1
   115   148   145    1
   116   101   100    2
   117   144   145    1
   118   100    99    1
   119   199   198    2
   120   151   149   ar
   121   151   153   ar
   122   197   198    1
   123   197   200    1
   124   136   137    1
   125   149   150   ar
   126   146   145    1
   127   146   147    2
   128   202   200    1
   129   138   137    1
   130    91    92    1
   131    91    97    1
   132   198   203   am
   133   153   154   ar
   134   200   201    1
   135    46    45    1
   136    43    45   ar
   137    43    41   ar
   138    94    93    2
   139    92    93    1
   140    92    95    1
   141    93    98   am
   142   137   140    1
   143   150   152   ar
   144    98    99    1
   145   154   152   ar
   146   154   155    1
   147    97    96    1
   148   203   204    1
   149    45    44   ar
   150    41    40   ar
   151   224   222    1
   152   140   141    1
   153   204   207    1
   154   204   205    1
   155    52    51    1
   156    51    53    1
   157    51    48    1
   158    95    96    1
   159   207   208    1
   160   221   222    1
   161   221   218    1
   162   222   223    1
   163    44    42   ar
   164    40    42   ar
   165    40    39    1
   166   141   142   ar
   167   141   143   ar
   168   205   209   am
   169   205   206    2
   170   209   210    1
   171    47    48    1
   172    47    37   am
   173    50    49    2
   174    30    29    2
   175    48    49    1
   176   217   218    1
   177   217   211   am
   178    39    36    1
   179    23    22    1
   180    23    24    2
   181   218   219    1
   182    36    37    1
   183    36    35    1
   184    26    24    1
   185     5     2    1
   186   210   211    1
   187   210   213    1
   188     2     1    1
   189     2     3    1
   190    22    21    1
   191    37    38    2
   192    21    20    1
   193    24    25    1
   194   211   212    2
   195    29    35   am
   196    29    28    1
   197    20    17    1
   198   229   226    1
   199   229   230    1
   200   219   220    2
   201   213   214    1
   202     3     4    2
   203    31    28    1
   204    31    32    1
   205   226   225    1
   206   226   227    1
   207   230   232   ar
   208   230   231   ar
   209    28    27    1
   210    27    18   am
   211    17    18    1
   212    17    16    1
   213    18    19    2
   214   215   214    2
   215   232   234   ar
   216   228   227    2
   217   231   233   ar
   218   214   216   am
   219    10    11    1
   220    10     7    1
   221    32    34   ar
   222    32    33   ar
   223   233   234   ar
   224    12    11   ar
   225    12    14   ar
   226    11    13   ar
   227     7     6    1
   228     7     8    1
   229    14    15   ar
   230    13    15   ar
   231     8     9    2
