@<TRIPOS>MOLECULE
tmp/4yhcA01.pdb
 80 74 0 0 0
SMALL
GASTEIGER

@<TRIPOS>ATOM
      1  N        -20.7960   37.6600   96.5620 N.3   184  THR184     -0.1203
      2  CA       -21.1510   38.2110   95.2590 C.3   184  THR184      0.1994
      3  C        -20.9260   37.1640   94.1850 C.2   184  THR184      0.2617
      4  O        -21.7140   37.0620   93.2530 O.2   184  THR184     -0.2717
      5  CB       -20.3910   39.5360   95.0290 C.3   184  THR184      0.1784
      6  OG1      -20.8770   40.5160   95.9630 O.3   184  THR184     -0.2211
      7  CG2      -20.5640   40.0670   93.6100 C.3   184  THR184      0.0376
      8  N        -19.8700   36.3770   94.2950 N.am  185  ALA185     -0.1979
      9  CA       -19.5200   35.4260   93.2230 C.3   185  ALA185      0.1597
     10  C        -18.5630   34.3390   93.6820 C.2   185  ALA185      0.2287
     11  O        -17.8880   34.4800   94.7230 O.2   185  ALA185     -0.2864
     12  CB       -18.9140   36.1650   92.0610 C.3   185  ALA185      0.0319
     13  N        -15.1210   32.6970   92.7900 N.3   187  ARG187     -0.1245
     14  CA       -13.9350   33.2100   92.1210 C.3   187  ARG187      0.1563
     15  C        -12.7890   32.2630   92.2780 C.2   187  ARG187      0.2260
     16  O        -12.6890   31.5740   93.2830 O.2   187  ARG187     -0.2867
     17  CB       -13.5590   34.5430   92.7060 C.3   187  ARG187      0.0307
     18  CG       -14.6310   35.5790   92.7530 C.3   187  ARG187      0.0489
     19  CD       -14.0390   36.9430   93.0930 C.3   187  ARG187      0.2205
     20  NE       -15.0070   37.8790   93.6930 N.pl3 187  ARG187     -0.0865
     21  CZ       -15.8540   38.6730   93.0090 C.cat 187  ARG187      0.5346
     22  NH1      -16.7210   39.4560   93.6360 N.pl3 187  ARG187      0.1354
     23  NH2      -15.8780   38.6460   91.7060 N.pl3 187  ARG187      0.1354
     24  N        -14.0380   34.9250   87.5930 N.3   201  SER201     -0.1217
     25  CA       -15.2600   35.0880   88.3880 C.3   201  SER201      0.1889
     26  C        -16.5170   34.6980   87.6320 C.2   201  SER201      0.2288
     27  O        -16.6700   35.0120   86.4400 O.2   201  SER201     -0.2866
     28  CB       -15.4140   36.5010   88.8410 C.3   201  SER201      0.2089
     29  OG       -14.2650   36.8720   89.5540 O.3   201  SER201     -0.2183
     30  N        -20.3240   35.1070   86.9810 N.3   203  LYS203     -0.1245
     31  CA       -21.6090   35.8200   87.0840 C.3   203  LYS203      0.1561
     32  C        -22.6770   35.1240   86.2440 C.2   203  LYS203      0.2260
     33  O        -22.5360   34.9710   85.0160 O.2   203  LYS203     -0.2867
     34  CB       -21.4880   37.3160   86.7360 C.3   203  LYS203      0.0271
     35  CG       -21.3240   38.2350   87.9550 C.3   203  LYS203      0.0035
     36  CD       -22.5440   38.2120   88.8770 C.3   203  LYS203      0.0206
     37  CE       -22.2610   38.8120   90.2430 C.3   203  LYS203      0.1093
     38  NZ       -22.7920   40.1950   90.3990 N.3   203  LYS203     -0.1314
     39  N        -10.2060   38.4840   84.9420 N.3   210  LYS210     -0.1245
     40  CA        -9.6300   39.7860   85.0200 C.3   210  LYS210      0.1561
     41  C         -8.2340   39.6480   85.5440 C.2   210  LYS210      0.2260
     42  O         -7.9450   38.7180   86.2910 O.2   210  LYS210     -0.2867
     43  CB       -10.4250   40.6650   85.9370 C.3   210  LYS210      0.0271
     44  CG       -11.4450   41.4900   85.1880 C.3   210  LYS210      0.0035
     45  CD       -11.5980   42.8660   85.8190 C.3   210  LYS210      0.0206
     46  CE       -12.5850   42.8320   86.9680 C.3   210  LYS210      0.1093
     47  NZ       -13.9890   42.7340   86.4700 N.3   210  LYS210     -0.1314
     48  N        -12.3600   42.6940   95.8310 N.3   248  LEU248     -0.1231
     49  CA       -12.6090   42.0620   94.5410 C.3   248  LEU248      0.1693
     50  C        -14.0280   42.3880   94.0060 C.2   248  LEU248      0.2592
     51  O        -14.3370   42.1060   92.8830 O.2   248  LEU248     -0.2718
     52  CB       -12.4850   40.5500   94.7220 C.3   248  LEU248      0.0284
     53  CG       -11.2440   39.7020   94.5600 C.3   248  LEU248      0.0019
     54  CD1       -9.9950   40.4300   94.1630 C.3   248  LEU248      0.0001
     55  CD2      -11.0490   38.7310   95.6900 C.3   248  LEU248      0.0001
     56  N        -14.9130   42.8640   94.8680 N.am  249  LYS249     -0.1966
     57  CA       -16.2900   43.1510   94.4280 C.3   249  LYS249      0.1728
     58  C        -16.2900   44.4160   93.5710 C.2   249  LYS249      0.2616
     59  O        -16.6640   44.3930   92.3870 O.2   249  LYS249     -0.2715
     60  CB       -17.1860   43.3060   95.6190 C.3   249  LYS249      0.0311
     61  CG       -18.6390   43.6730   95.2810 C.3   249  LYS249      0.0038
     62  CD       -19.4190   43.9310   96.5630 C.3   249  LYS249      0.0206
     63  CE       -20.8910   44.1750   96.2680 C.3   249  LYS249      0.1093
     64  NZ       -21.0470   45.4170   95.4370 N.3   249  LYS249     -0.1314
     65  N        -15.7930   45.4960   94.1570 N.am  250  ASN250     -0.1958
     66  CA       -15.7120   46.7940   93.4590 C.3   250  ASN250      0.1819
     67  C        -14.3370   47.0790   92.8070 C.2   250  ASN250      0.2621
     68  O        -14.1150   48.1500   92.3490 O.2   250  ASN250     -0.2715
     69  CB       -16.0580   47.8820   94.4730 C.3   250  ASN250      0.1195
     70  CG       -17.4020   47.6420   95.1300 C.2   250  ASN250      0.2630
     71  OD1      -18.3790   47.4540   94.4310 O.2   250  ASN250     -0.2716
     72  ND2      -17.4550   47.5950   96.4690 N.am  250  ASN250     -0.0877
     73  N        -13.4720   46.0680   92.7060 N.am  251  ASP251     -0.1971
     74  CA       -12.0840   46.1800   92.1640 C.3   251  ASP251      0.1709
     75  C        -11.3580   47.4650   92.6130 C.2   251  ASP251      0.2293
     76  O        -11.2410   48.4240   91.8510 O.2   251  ASP251     -0.2864
     77  CB       -12.0300   46.0270   90.6290 C.3   251  ASP251      0.1436
     78  CG       -10.7320   45.3270   90.1480 C.2   251  ASP251      0.3671
     79  OD1       -9.8450   45.0620   90.9820 O.co2 251  ASP251     -0.2456
     80  OD2      -10.5860   45.0320   88.9380 O.co2 251  ASP251     -0.2456
@<TRIPOS>BOND
     1    39    40    1
     2    33    32    2
     3    40    41    1
     4    40    43    1
     5    44    45    1
     6    44    43    1
     7    41    42    2
     8    45    46    1
     9    32    31    1
    10    27    26    2
    11    47    46    1
    12    34    31    1
    13    34    35    1
    14    30    31    1
    15    24    25    1
    16    26    25    1
    17    35    36    1
    18    25    28    1
    19    28    29    1
    20    36    37    1
    21    80    78   ar
    22    78    77    1
    23    78    79   ar
    24    37    38    1
    25    77    74    1
    26    23    21    1
    27    76    75    2
    28    12     9    1
    29    14    15    1
    30    14    17    1
    31    14    13    1
    32    74    75    1
    33    74    73    1
    34    15    16    2
    35    68    67    2
    36    59    58    2
    37    17    18    1
    38    73    67   am
    39    18    19    1
    40    67    66    1
    41    51    50    2
    42    21    22    1
    43    21    20    2
    44    19    20    1
    45     9    10    1
    46     9     8    1
    47     4     3    2
    48    66    65    1
    49    66    69    1
    50    58    65   am
    51    58    57    1
    52     7     5    1
    53    10    11    2
    54    50    49    1
    55    50    56   am
    56    54    53    1
    57     3     8   am
    58     3     2    1
    59    57    56    1
    60    57    60    1
    61    71    70    2
    62    69    70    1
    63    49    52    1
    64    49    48    1
    65    53    52    1
    66    53    55    1
    67     5     2    1
    68     5     6    1
    69    70    72   am
    70     2     1    1
    71    61    60    1
    72    61    62    1
    73    64    63    1
    74    63    62    1
