@<TRIPOS>MOLECULE
tmp/4yhfA00.pdb
 209 195 0 0 0
SMALL
GASTEIGER

@<TRIPOS>ATOM
      1  N         -5.6680   -9.4450   -4.6130 N.3    18  LEU18      -0.1231
      2  CA        -5.7410  -10.4910   -5.6360 C.3    18  LEU18       0.1693
      3  C         -6.9370  -10.3390   -6.5810 C.2    18  LEU18       0.2593
      4  O         -6.9030  -10.8250   -7.7120 O.2    18  LEU18      -0.2718
      5  CB        -5.7810  -11.8740   -4.9760 C.3    18  LEU18       0.0284
      6  CG        -4.5160  -12.3410   -4.2490 C.3    18  LEU18       0.0019
      7  CD1       -4.7600  -13.6930   -3.5940 C.3    18  LEU18       0.0001
      8  CD2       -3.3270  -12.4200   -5.1970 C.3    18  LEU18       0.0001
      9  N         -7.9890   -9.6660   -6.1230 N.am   19  GLY19      -0.1942
     10  CA        -9.1910   -9.4980   -6.9240 C.3    19  GLY19       0.2014
     11  C        -10.4440   -9.4070   -6.0750 C.2    19  GLY19       0.2640
     12  O        -10.4380   -9.8020   -4.9110 O.2    19  GLY19      -0.2714
     13  N        -11.5250   -8.8940   -6.6570 N.am   20  THR20      -0.1936
     14  CA       -12.7500   -8.6490   -5.8990 C.3    20  THR20       0.2028
     15  C        -14.0130   -9.0270   -6.6680 C.2    20  THR20       0.2643
     16  O        -14.7460   -8.1550   -7.1370 O.2    20  THR20      -0.2714
     17  CB       -12.8580   -7.1700   -5.4820 C.3    20  THR20       0.1808
     18  OG1      -12.8700   -6.3740   -6.6570 O.3    20  THR20      -0.2208
     19  CG2      -11.7240   -6.7530   -4.5650 C.3    20  THR20       0.0379
     20  N        -14.2750  -10.3270   -6.7770 N.am   21  GLY21      -0.1939
     21  CA       -15.4070  -10.8050   -7.5510 C.3    21  GLY21       0.2014
     22  C        -16.3100  -11.8100   -6.8580 C.2    21  GLY21       0.2638
     23  O        -17.2910  -11.4380   -6.2130 O.2    21  GLY21      -0.2714
     24  N        -15.9780  -13.0900   -6.9980 N.am   22  GLN22      -0.1977
     25  CA       -16.8560  -14.1740   -6.5610 C.3    22  GLN22       0.1601
     26  C        -17.1080  -14.2060   -5.0550 C.2    22  GLN22       0.2287
     27  O        -16.3190  -14.7720   -4.2960 O.2    22  GLN22      -0.2864
     28  CB       -16.3080  -15.5240   -7.0300 C.3    22  GLN22       0.0394
     29  CG       -16.2650  -15.7420   -8.5410 C.3    22  GLN22       0.0908
     30  CD       -17.6210  -15.6000   -9.1810 C.2    22  GLN22       0.2608
     31  OE1      -18.5790  -16.2540   -8.7250 O.2    22  GLN22      -0.2717
     32  NE2      -17.7680  -14.7060  -10.1080 N.am   22  GLN22      -0.0878
     33  N        -10.5540  -10.7580   -2.2350 N.3    26  VAL26      -0.1245
     34  CA        -9.5510  -11.7870   -1.9570 C.3    26  VAL26       0.1561
     35  C         -8.1490  -11.1890   -1.8020 C.2    26  VAL26       0.2260
     36  O         -7.7100  -10.3900   -2.6310 O.2    26  VAL26      -0.2867
     37  CB        -9.5320  -12.8510   -3.0720 C.3    26  VAL26       0.0252
     38  CG1       -8.5590  -13.9710   -2.7340 C.3    26  VAL26       0.0019
     39  CG2      -10.9300  -13.4160   -3.2850 C.3    26  VAL26       0.0019
     40  N         -4.4520  -17.5090    0.6850 N.3    38  ALA38      -0.1245
     41  CA        -5.3730  -16.5540    0.0960 C.3    38  ALA38       0.1562
     42  C         -6.5400  -16.4070    1.0570 C.2    38  ALA38       0.2260
     43  O         -7.0630  -17.4010    1.5620 O.2    38  ALA38      -0.2867
     44  CB        -5.8540  -17.0360   -1.2550 C.3    38  ALA38       0.0290
     45  N        -10.2800  -14.9010    1.4900 N.3    40  LYS40      -0.1245
     46  CA       -11.4720  -14.3670    0.8450 C.3    40  LYS40       0.1561
     47  C        -12.3870  -13.7220    1.8740 C.2    40  LYS40       0.2260
     48  O        -12.8830  -14.3840    2.7870 O.2    40  LYS40      -0.2867
     49  CB       -12.2230  -15.4640    0.0880 C.3    40  LYS40       0.0271
     50  CG       -13.6140  -15.0400   -0.3710 C.3    40  LYS40       0.0035
     51  CD       -14.2050  -16.0040   -1.3850 C.3    40  LYS40       0.0206
     52  CE       -13.5420  -15.8650   -2.7460 C.3    40  LYS40       0.1093
     53  NZ       -14.2660  -16.6270   -3.8020 N.3    40  LYS40      -0.1314
     54  N        -18.7730  -28.3950    4.6210 N.3    59  MET59      -0.1245
     55  CA       -17.8940  -27.9190    3.5620 C.3    59  MET59       0.1570
     56  C        -16.4250  -28.0150    3.9710 C.2    59  MET59       0.2261
     57  O        -15.5890  -28.4880    3.2010 O.2    59  MET59      -0.2867
     58  CB       -18.2360  -26.4660    3.2300 C.3    59  MET59       0.0387
     59  CG       -17.4670  -25.8850    2.0590 C.3    59  MET59       0.0595
     60  SD       -17.3190  -24.0970    2.2080 S.3    59  MET59      -0.1393
     61  CE       -18.2280  -23.5730    0.7700 C.3    59  MET59       0.0692
     62  N         -9.3490  -27.1640   -3.7600 N.3    68  VAL68      -0.1245
     63  CA        -8.4730  -26.1640   -3.1630 C.3    68  VAL68       0.1561
     64  C         -8.5120  -26.3580   -1.6480 C.2    68  VAL68       0.2260
     65  O         -9.5830  -26.5050   -1.0590 O.2    68  VAL68      -0.2867
     66  CB        -8.8720  -24.7210   -3.5610 C.3    68  VAL68       0.0252
     67  CG1      -10.2820  -24.3710   -3.0860 C.3    68  VAL68       0.0019
     68  CG2       -7.8540  -23.7200   -3.0280 C.3    68  VAL68       0.0019
     69  N         -8.8300  -25.8730    2.0150 N.3    70  LEU70      -0.1245
     70  CA        -9.3250  -24.9340    3.0120 C.3    70  LEU70       0.1561
     71  C         -8.5480  -25.0960    4.3170 C.2    70  LEU70       0.2260
     72  O         -8.4790  -26.1950    4.8720 O.2    70  LEU70      -0.2867
     73  CB       -10.8170  -25.1680    3.2590 C.3    70  LEU70       0.0270
     74  CG       -11.7590  -24.7560    2.1240 C.3    70  LEU70       0.0019
     75  CD1      -13.0330  -25.5790    2.1450 C.3    70  LEU70       0.0001
     76  CD2      -12.0950  -23.2760    2.2190 C.3    70  LEU70       0.0001
     77  N        -12.4830  -16.5710    4.7480 N.3    82  ILE82      -0.1245
     78  CA       -12.2370  -17.9510    4.3490 C.3    82  ILE82       0.1561
     79  C        -10.8020  -18.0480    3.8450 C.2    82  ILE82       0.2260
     80  O        -10.4220  -17.3660    2.8920 O.2    82  ILE82      -0.2867
     81  CB       -13.2230  -18.4280    3.2650 C.3    82  ILE82       0.0252
     82  CG1      -14.6610  -18.3060    3.7870 C.3    82  ILE82       0.0019
     83  CG2      -12.8960  -19.8650    2.8490 C.3    82  ILE82       0.0019
     84  CD1      -15.7260  -18.9320    2.9020 C.3    82  ILE82       0.0001
     85  N         -7.6320  -20.2140    2.3580 N.3    84  THR84      -0.1203
     86  CA        -7.2200  -21.3750    1.5760 C.3    84  THR84       0.1994
     87  C         -5.7290  -21.3230    1.2830 C.2    84  THR84       0.2618
     88  O         -5.0710  -20.3120    1.5340 O.2    84  THR84      -0.2717
     89  CB        -7.9450  -21.4280    0.2150 C.3    84  THR84       0.1784
     90  OG1       -7.6610  -20.2380   -0.5320 O.3    84  THR84      -0.2211
     91  CG2       -9.4420  -21.5630    0.4000 C.3    84  THR84       0.0376
     92  N         -5.2000  -22.4160    0.7420 N.am   85  GLU85      -0.1965
     93  CA        -3.8510  -22.4120    0.1960 C.3    85  GLU85       0.1733
     94  C         -3.7950  -21.3820   -0.9210 C.2    85  GLU85       0.2616
     95  O         -4.8120  -21.0870   -1.5490 O.2    85  GLU85      -0.2715
     96  CB        -3.4840  -23.7890   -0.3620 C.3    85  GLU85       0.0429
     97  CG        -4.4340  -24.2910   -1.4470 C.3    85  GLU85       0.1163
     98  CD        -3.9520  -25.5630   -2.1190 C.2    85  GLU85       0.3649
     99  OE1       -4.8070  -26.3770   -2.5310 O.co2  85  GLU85      -0.2457
    100  OE2       -2.7220  -25.7450   -2.2450 O.co2  85  GLU85      -0.2457
    101  N         -2.6120  -20.8340   -1.1670 N.am   86  TYR86      -0.1960
    102  CA        -2.4260  -19.9110   -2.2760 C.3    86  TYR86       0.1771
    103  C         -2.2070  -20.6960   -3.5650 C.2    86  TYR86       0.2619
    104  O         -1.3710  -21.5970   -3.6180 O.2    86  TYR86      -0.2715
    105  CB        -1.2460  -18.9760   -2.0070 C.3    86  TYR86       0.0574
    106  CG        -0.9090  -18.0650   -3.1660 C.ar   86  TYR86      -0.0198
    107  CD1       -1.8210  -17.1220   -3.6220 C.ar   86  TYR86      -0.0009
    108  CD2        0.3240  -18.1410   -3.7950 C.ar   86  TYR86      -0.0009
    109  CE1       -1.5150  -16.2860   -4.6810 C.ar   86  TYR86       0.0417
    110  CE2        0.6400  -17.3100   -4.8500 C.ar   86  TYR86       0.0417
    111  CZ        -0.2820  -16.3840   -5.2910 C.ar   86  TYR86       0.1957
    112  OH         0.0320  -15.5560   -6.3440 O.3    86  TYR86      -0.2866
    113  N         -2.9810  -20.3520   -4.5900 N.am   87  MET87      -0.1977
    114  CA        -2.9040  -20.9970   -5.8970 C.3    87  MET87       0.1605
    115  C         -2.2360  -20.0270   -6.8650 C.2    87  MET87       0.2287
    116  O         -2.8620  -19.0870   -7.3550 O.2    87  MET87      -0.2864
    117  CB        -4.3020  -21.3790   -6.3880 C.3    87  MET87       0.0413
    118  CG        -5.0250  -22.3740   -5.4850 C.3    87  MET87       0.0598
    119  SD        -4.2420  -24.0030   -5.4060 S.3    87  MET87      -0.1393
    120  CE        -4.8110  -24.7300   -6.9420 C.3    87  MET87       0.0692
    121  N         -3.6620  -18.7460  -10.3610 N.3    90  GLY90      -0.1210
    122  CA        -4.9380  -18.0510  -10.4160 C.3    90  GLY90       0.1956
    123  C         -6.0970  -18.8560  -10.9740 C.2    90  GLY90       0.2612
    124  O         -6.0670  -20.0880  -10.9800 O.2    90  GLY90      -0.2717
    125  N         -7.1220  -18.1470  -11.4450 N.am   91  CYS91      -0.1970
    126  CA        -8.3320  -18.7750  -11.9680 C.3    91  CYS91       0.1712
    127  C         -8.0560  -19.4600  -13.3030 C.2    91  CYS91       0.2296
    128  O         -7.2980  -18.9510  -14.1250 O.2    91  CYS91      -0.2864
    129  CB        -9.4670  -17.7460  -12.1150 C.3    91  CYS91       0.0983
    130  SG        -9.1820  -16.3460  -13.2550 S.3    91  CYS91      -0.0798
    131  N         -9.8090  -19.8210  -15.9190 N.3    93  LEU93      -0.1231
    132  CA       -10.2720  -19.0880  -17.0920 C.3    93  LEU93       0.1693
    133  C         -9.1720  -18.1930  -17.6530 C.2    93  LEU93       0.2592
    134  O         -8.9110  -18.1970  -18.8560 O.2    93  LEU93      -0.2718
    135  CB       -11.5060  -18.2520  -16.7420 C.3    93  LEU93       0.0284
    136  CG       -12.1110  -17.4260  -17.8830 C.3    93  LEU93       0.0019
    137  CD1      -12.5180  -18.3140  -19.0510 C.3    93  LEU93       0.0001
    138  CD2      -13.3040  -16.6260  -17.3880 C.3    93  LEU93       0.0001
    139  N         -8.5340  -17.4250  -16.7770 N.am   94  ASN94      -0.1974
    140  CA        -7.4230  -16.5690  -17.1710 C.3    94  ASN94       0.1688
    141  C         -6.2330  -17.4040  -17.6250 C.2    94  ASN94       0.2292
    142  O         -5.5440  -17.0570  -18.5830 O.2    94  ASN94      -0.2864
    143  CB        -7.0180  -15.6680  -16.0040 C.3    94  ASN94       0.1181
    144  CG        -5.9200  -14.6900  -16.3710 C.2    94  ASN94       0.2629
    145  OD1       -6.1770  -13.6550  -16.9840 O.2    94  ASN94      -0.2716
    146  ND2       -4.6890  -15.0060  -15.9830 N.am   94  ASN94      -0.0877
    147  N         -6.8400  -18.5710  -21.1360 N.3    97  ARG97      -0.1245
    148  CA        -6.8570  -17.4990  -22.1280 C.3    97  ARG97       0.1563
    149  C         -5.4690  -16.9270  -22.4220 C.2    97  ARG97       0.2260
    150  O         -5.2430  -16.3640  -23.4930 O.2    97  ARG97      -0.2867
    151  CB        -7.8020  -16.3830  -21.6750 C.3    97  ARG97       0.0307
    152  CG        -9.2740  -16.7480  -21.8120 C.3    97  ARG97       0.0489
    153  CD       -10.1900  -15.6950  -21.2080 C.3    97  ARG97       0.2205
    154  NE       -11.5910  -15.9610  -21.5200 N.pl3  97  ARG97      -0.0865
    155  CZ       -12.6190  -15.2770  -21.0240 C.cat  97  ARG97       0.5346
    156  NH1      -12.4150  -14.2780  -20.1750 N.pl3  97  ARG97       0.1354
    157  NH2      -13.8580  -15.5980  -21.3740 N.pl3  97  ARG97       0.1354
    158  N        -14.0900  -20.0510  -14.3750 N.3   135  ARG135     -0.1245
    159  CA       -13.8470  -18.8150  -13.6360 C.3   135  ARG135      0.1563
    160  C        -13.5730  -19.0670  -12.1540 C.2   135  ARG135      0.2260
    161  O        -12.9340  -18.2450  -11.4960 O.2   135  ARG135     -0.2867
    162  CB       -15.0350  -17.8590  -13.7770 C.3   135  ARG135      0.0307
    163  CG       -16.2900  -18.3390  -13.0720 C.3   135  ARG135      0.0489
    164  CD       -17.4120  -17.3200  -13.1260 C.3   135  ARG135      0.2205
    165  NE       -18.6920  -17.9540  -12.8290 N.pl3 135  ARG135     -0.0865
    166  CZ       -19.4710  -18.5360  -13.7360 C.cat 135  ARG135      0.5346
    167  NH1      -19.1150  -18.5570  -15.0110 N.pl3 135  ARG135      0.1354
    168  NH2      -20.6120  -19.0970  -13.3720 N.pl3 135  ARG135      0.1354
    169  N         -9.2050  -23.2060   -9.8110 N.3   138  LEU138     -0.1245
    170  CA        -7.9190  -22.5740   -9.5380 C.3   138  LEU138      0.1561
    171  C         -6.7790  -23.4710   -9.9950 C.2   138  LEU138      0.2260
    172  O         -6.9270  -24.6910  -10.0680 O.2   138  LEU138     -0.2867
    173  CB        -7.7790  -22.2730   -8.0450 C.3   138  LEU138      0.0270
    174  CG        -8.7590  -21.2470   -7.4720 C.3   138  LEU138      0.0019
    175  CD1       -8.7100  -21.2640   -5.9510 C.3   138  LEU138      0.0001
    176  CD2       -8.4510  -19.8540   -8.0000 C.3   138  LEU138      0.0001
    177  N        -12.9490  -24.9170   -6.7160 N.3   148  SER148     -0.1202
    178  CA       -13.0580  -23.8980   -5.6760 C.3   148  SER148      0.2020
    179  C        -14.4710  -23.3060   -5.6250 C.2   148  SER148      0.2619
    180  O        -15.2740  -23.5170   -6.5340 O.2   148  SER148     -0.2717
    181  CB       -12.0260  -22.7950   -5.9270 C.3   148  SER148      0.2103
    182  OG       -12.1030  -21.7780   -4.9450 O.3   148  SER148     -0.2182
    183  N        -14.7620  -22.5740   -4.5500 N.am  149  ASP149     -0.1959
    184  CA       -16.0730  -21.9470   -4.3370 C.3   149  ASP149      0.1840
    185  C        -17.2340  -22.9480   -4.3520 C.2   149  ASP149      0.2622
    186  O        -18.3730  -22.5880   -4.6530 O.2   149  ASP149     -0.2715
    187  CB       -16.3280  -20.8450   -5.3790 C.3   149  ASP149      0.1450
    188  CG       -15.5250  -19.5850   -5.1150 C.2   149  ASP149      0.3671
    189  OD1      -15.2190  -19.3040   -3.9380 O.co2 149  ASP149     -0.2456
    190  OD2      -15.2110  -18.8640   -6.0870 O.co2 149  ASP149     -0.2456
    191  N        -16.9540  -24.1990   -4.0050 N.am  150  PHE150     -0.1974
    192  CA       -17.9760  -25.2450   -4.0690 C.3   150  PHE150      0.1639
    193  C        -19.0640  -25.0890   -3.0050 C.2   150  PHE150      0.2290
    194  O        -18.7800  -25.0650   -1.8110 O.2   150  PHE150     -0.2864
    195  CB       -17.3580  -26.6530   -3.9910 C.3   150  PHE150      0.0560
    196  CG       -16.1840  -26.7710   -3.0530 C.ar  150  PHE150     -0.0200
    197  CD1      -14.8980  -26.5150   -3.5020 C.ar  150  PHE150     -0.0042
    198  CD2      -16.3600  -27.1660   -1.7350 C.ar  150  PHE150     -0.0042
    199  CE1      -13.8140  -26.6270   -2.6510 C.ar  150  PHE150     -0.0003
    200  CE2      -15.2760  -27.2840   -0.8800 C.ar  150  PHE150     -0.0003
    201  CZ       -14.0030  -27.0150   -1.3410 C.ar  150  PHE150     -0.0000
    202  N        -21.0470  -22.5500   -2.3750 N.3   152  LEU152     -0.1245
    203  CA       -21.2860  -21.1990   -1.8680 C.3   152  LEU152      0.1561
    204  C        -22.5670  -20.5710   -2.4130 C.2   152  LEU152      0.2260
    205  O        -23.1400  -19.6790   -1.7870 O.2   152  LEU152     -0.2867
    206  CB       -20.1070  -20.2820   -2.2000 C.3   152  LEU152      0.0270
    207  CG       -18.8120  -20.4510   -1.4040 C.3   152  LEU152      0.0019
    208  CD1      -17.7610  -19.4970   -1.9440 C.3   152  LEU152      0.0001
    209  CD2      -19.0350  -20.2100    0.0820 C.3   152  LEU152      0.0001
@<TRIPOS>BOND
     1   150   149    2
     2   149   148    1
     3   148   151    1
     4   148   147    1
     5   152   151    1
     6   152   153    1
     7   154   153    1
     8   154   155    2
     9   157   155    1
    10   155   156    1
    11   137   136    1
    12   134   133    2
    13   142   141    2
    14   136   138    1
    15   136   135    1
    16   133   132    1
    17   133   139   am
    18   141   140    1
    19   140   139    1
    20   140   143    1
    21   132   135    1
    22   132   131    1
    23   145   144    2
    24   144   143    1
    25   144   146   am
    26   167   166    1
    27   158   159    1
    28   128   127    2
    29   162   159    1
    30   162   163    1
    31   166   168    1
    32   166   165    2
    33   159   160    1
    34   127   126    1
    35   130   129    1
    36   164   163    1
    37   164   165    1
    38   160   161    2
    39   129   126    1
    40   126   125    1
    41   125   123   am
    42   124   123    2
    43   123   122    1
    44   122   121    1
    45    32    30   am
    46   172   171    2
    47   171   170    1
    48   169   170    1
    49   170   173    1
    50    30    31    2
    51    30    29    1
    52    29    28    1
    53   173   174    1
    54   176   174    1
    55     4     3    2
    56    21    22    1
    57    21    20    1
    58   174   175    1
    59   116   115    2
    60    16    15    2
    61    28    25    1
    62    24    22   am
    63    24    25    1
    64   120   119    1
    65    10     9    1
    66    10    11    1
    67   115   114    1
    68    22    23    2
    69    20    15   am
    70   177   178    1
    71    15    14    1
    72    18    17    1
    73    13    11   am
    74    13    14    1
    75     3     9   am
    76     3     2    1
    77    25    26    1
    78   180   179    2
    79   117   114    1
    80   117   118    1
    81   112   111    1
    82   190   188   ar
    83    11    12    2
    84   181   178    1
    85   181   182    1
    86    14    17    1
    87   114   113    1
    88   178   179    1
    89     2     5    1
    90     2     1    1
    91   179   183   am
    92   118   119    1
    93    17    19    1
    94   187   188    1
    95   187   184    1
    96   111   110   ar
    97   111   109   ar
    98     8     6    1
    99   188   189   ar
   100    26    27    2
   101     5     6    1
   102   110   108   ar
   103   109   107   ar
   104   186   185    2
   105   113   103   am
   106   183   184    1
   107   185   184    1
   108   185   191   am
   109     6     7    1
   110   192   191    1
   111   192   195    1
   112   192   193    1
   113   195   196    1
   114    53    52    1
   115   108   106   ar
   116    62    63    1
   117   107   106   ar
   118   104   103    2
   119   103   102    1
   120    66    63    1
   121    66    67    1
   122    66    68    1
   123   197   196   ar
   124   197   199   ar
   125    39    37    1
   126   106   105    1
   127    63    64    1
   128    37    38    1
   129    37    34    1
   130   196   198   ar
   131   193   194    2
   132    52    51    1
   133   199   201   ar
   134    36    35    2
   135    99    98   ar
   136   204   203    1
   137   204   205    2
   138   202   203    1
   139   102   105    1
   140   102   101    1
   141   100    98   ar
   142    33    34    1
   143   206   203    1
   144   206   207    1
   145    98    97    1
   146    34    35    1
   147   208   207    1
   148   198   200   ar
   149    64    65    2
   150    95    94    2
   151    97    96    1
   152   207   209    1
   153    51    50    1
   154   201   200   ar
   155    44    41    1
   156   101    94   am
   157    94    93    1
   158    90    89    1
   159    50    49    1
   160    96    93    1
   161    49    46    1
   162    41    40    1
   163    41    42    1
   164    93    92    1
   165    89    91    1
   166    89    86    1
   167    92    87   am
   168    61    60    1
   169    46    45    1
   170    46    47    1
   171    42    43    2
   172    87    88    2
   173    87    86    1
   174    86    85    1
   175    47    48    2
   176    69    70    1
   177    59    60    1
   178    59    58    1
   179    74    75    1
   180    74    76    1
   181    74    73    1
   182    83    81    1
   183    80    79    2
   184    84    82    1
   185    70    73    1
   186    70    71    1
   187    57    56    2
   188    58    55    1
   189    81    82    1
   190    81    78    1
   191    55    56    1
   192    55    54    1
   193    79    78    1
   194    71    72    2
   195    78    77    1
