@<TRIPOS>MOLECULE
tmp/4yhgA00.pdb
 206 203 0 0 0
SMALL
GASTEIGER

@<TRIPOS>ATOM
      1  N          5.8580   21.0830   -3.0540 N.3    22  ASN22      -0.1240
      2  CA         4.7710   20.9590   -2.0820 C.3    22  ASN22       0.1653
      3  C          4.0350   19.6360   -2.2050 C.2    22  ASN22       0.2266
      4  O          2.8060   19.5840   -2.1790 O.2    22  ASN22      -0.2867
      5  CB         3.7890   22.1300   -2.2020 C.3    22  ASN22       0.1155
      6  CG         4.3370   23.4430   -1.6150 C.2    22  ASN22       0.2627
      7  OD1        5.5450   23.6140   -1.3580 O.2    22  ASN22      -0.2716
      8  ND2        3.4340   24.3740   -1.3860 N.am   22  ASN22      -0.0877
      9  N          4.5170   18.9110    4.7760 N.3    27  HIS27      -0.1241
     10  CA         4.6000   18.3480    6.1190 C.3    27  HIS27       0.1621
     11  C          3.8080   19.2200    7.0770 C.2    27  HIS27       0.2264
     12  O          3.5910   20.3770    6.7990 O.2    27  HIS27      -0.2867
     13  CB         6.0810   18.2910    6.5690 C.3    27  HIS27       0.0745
     14  CG         6.7040   19.6450    6.7670 C.ar   27  HIS27       0.0817
     15  ND1        6.5810   20.3590    7.9450 N.ar   27  HIS27      -0.2268
     16  CD2        7.4190   20.4320    5.9250 C.ar   27  HIS27       0.1154
     17  CE1        7.2060   21.5180    7.8230 C.ar   27  HIS27       0.1986
     18  NE2        7.7100   21.5930    6.6010 N.ar   27  HIS27      -0.2212
     19  N         -0.3840   19.4520    1.6840 N.3    37  TRP37      -0.1241
     20  CA        -0.4820   20.8770    1.3170 C.3    37  TRP37       0.1605
     21  C         -1.3620   21.1490    0.0770 C.2    37  TRP37       0.2264
     22  O         -1.1680   22.1330   -0.6060 O.2    37  TRP37      -0.2867
     23  CB         0.9150   21.4740    1.1040 C.3    37  TRP37       0.0550
     24  CG         1.7350   21.6600    2.3760 C.ar   37  TRP37       0.0003
     25  CD1        1.3030   21.5480    3.6720 C.ar   37  TRP37       0.0946
     26  CD2        3.1140   22.0530    2.4500 C.ar   37  TRP37       0.0152
     27  NE1        2.3340   21.8170    4.5360 N.ar   37  TRP37      -0.2442
     28  CE2        3.4550   22.1310    3.8110 C.ar   37  TRP37       0.0810
     29  CE3        4.0910   22.3400    1.4900 C.ar   37  TRP37       0.0012
     30  CZ2        4.7350   22.4790    4.2430 C.ar   37  TRP37       0.0191
     31  CZ3        5.3680   22.6800    1.9080 C.ar   37  TRP37       0.0001
     32  CH2        5.6770   22.7520    3.2850 C.ar   37  TRP37       0.0015
     33  N         14.8030   17.3730    2.1370 N.3   103  HIS103     -0.1226
     34  CA        14.2330   18.7080    1.8950 C.3   103  HIS103      0.1752
     35  C         13.8560   19.4330    3.2010 C.2   103  HIS103      0.2596
     36  O         14.7540   19.9500    3.8700 O.2   103  HIS103     -0.2718
     37  CB        13.0730   18.6150    0.9030 C.3   103  HIS103      0.0759
     38  CG        12.7470   19.9150    0.2310 C.ar  103  HIS103      0.0818
     39  ND1       13.4740   20.4130   -0.8320 N.ar  103  HIS103     -0.2268
     40  CD2       11.7590   20.8120    0.4620 C.ar  103  HIS103      0.1154
     41  CE1       12.9570   21.5630   -1.2140 C.ar  103  HIS103      0.1986
     42  NE2       11.9200   21.8310   -0.4400 N.ar  103  HIS103     -0.2212
     43  N         12.5840   19.4600    3.6020 N.am  104  HIS104     -0.1975
     44  CA        12.2280   20.3160    4.7530 C.3   104  HIS104      0.1656
     45  C         12.7530   19.8950    6.1110 C.2   104  HIS104      0.2291
     46  O         12.7060   20.6760    7.0510 O.2   104  HIS104     -0.2864
     47  CB        10.7300   20.6770    4.8050 C.3   104  HIS104      0.0771
     48  CG        10.3490   21.6770    3.7630 C.ar  104  HIS104      0.0820
     49  ND1       11.0950   22.8100    3.5250 N.ar  104  HIS104     -0.2267
     50  CD2        9.3390   21.6960    2.8670 C.ar  104  HIS104      0.1154
     51  CE1       10.5550   23.4930    2.5360 C.ar  104  HIS104      0.1986
     52  NE2        9.4830   22.8430    2.1230 N.ar  104  HIS104     -0.2212
     53  N         14.7470   22.7100    7.0280 N.3   107  PHE107     -0.1241
     54  CA        14.1130   24.0420    6.9810 C.3   107  PHE107      0.1605
     55  C         14.5740   24.8140    8.1930 C.2   107  PHE107      0.2264
     56  O         14.3500   24.3840    9.3360 O.2   107  PHE107     -0.2867
     57  CB        12.5750   23.9590    6.9650 C.3   107  PHE107      0.0534
     58  CG        11.8890   25.2990    6.8540 C.ar  107  PHE107     -0.0203
     59  CD1       11.7970   25.9520    5.6250 C.ar  107  PHE107     -0.0042
     60  CD2       11.3240   25.9020    7.9690 C.ar  107  PHE107     -0.0042
     61  CE1       11.1660   27.1870    5.5170 C.ar  107  PHE107     -0.0003
     62  CE2       10.6860   27.1290    7.8690 C.ar  107  PHE107     -0.0003
     63  CZ        10.6030   27.7720    6.6440 C.ar  107  PHE107     -0.0000
     64  N          8.9770   30.1190   10.5650 N.3   111  ASP111     -0.1239
     65  CA         7.6460   29.9220    9.9700 C.3   111  ASP111      0.1674
     66  C          7.4570   28.4980    9.4090 C.2   111  ASP111      0.2266
     67  O          7.4290   28.2870    8.1890 O.2   111  ASP111     -0.2867
     68  CB         7.3870   30.9580    8.8680 C.3   111  ASP111      0.1410
     69  CG         5.9730   30.8640    8.3000 C.2   111  ASP111      0.3668
     70  OD1        5.0250   30.7060    9.0980 O.co2 111  ASP111     -0.2456
     71  OD2        5.8170   30.9300    7.0570 O.co2 111  ASP111     -0.2456
     72  N          5.1080   24.7310    9.9550 N.3   113  PRO113     -0.2116
     73  CA         4.0000   24.0350   10.6100 C.3   113  PRO113      0.1372
     74  C          4.4300   22.7830   11.4120 C.2   113  PRO113      0.2244
     75  O          3.5670   22.0840   11.9620 O.2   113  PRO113     -0.2868
     76  CB         3.0760   23.6750    9.4440 C.3   113  PRO113      0.0268
     77  CG         3.9660   23.6220    8.2310 C.3   113  PRO113      0.0207
     78  CD         5.1820   24.4540    8.5080 C.3   113  PRO113      0.0892
     79  N         18.9800   20.3870    1.2110 N.3   163  ASN163     -0.1225
     80  CA        18.3170   21.4790    0.5150 C.3   163  ASN163      0.1785
     81  C         18.8960   22.8670    0.8340 C.2   163  ASN163      0.2597
     82  O         19.9530   23.2100    0.3420 O.2   163  ASN163     -0.2718
     83  CB        16.8100   21.4300    0.7570 C.3   163  ASN163      0.1169
     84  CG        16.0630   22.4720   -0.0520 C.2   163  ASN163      0.2627
     85  OD1       16.3940   22.7310   -1.2080 O.2   163  ASN163     -0.2716
     86  ND2       15.0630   23.0650    0.5460 N.am  163  ASN163     -0.0877
     87  N         18.2150   23.6520    1.6550 N.am  164  ALA164     -0.1979
     88  CA        18.5780   25.0570    1.8990 C.3   164  ALA164      0.1597
     89  C         18.7680   25.2190    3.4020 C.2   164  ALA164      0.2287
     90  O         17.8200   25.4730    4.1510 O.2   164  ALA164     -0.2864
     91  CB        17.4940   25.9960    1.3740 C.3   164  ALA164      0.0319
     92  N         18.2040   33.8090    6.6620 N.3   170  TRP170     -0.1241
     93  CA        18.3260   33.7880    5.1910 C.3   170  TRP170      0.1605
     94  C         19.6820   34.2280    4.6380 C.2   170  TRP170      0.2264
     95  O         19.7720   34.7180    3.5150 O.2   170  TRP170     -0.2867
     96  CB        17.1650   34.5790    4.5280 C.3   170  TRP170      0.0550
     97  CG        15.8470   33.9570    4.8370 C.ar  170  TRP170      0.0003
     98  CD1       15.0650   34.1880    5.9350 C.ar  170  TRP170      0.0946
     99  CD2       15.1830   32.9510    4.0750 C.ar  170  TRP170      0.0152
    100  NE1       13.9380   33.3980    5.8930 N.ar  170  TRP170     -0.2442
    101  CE2       13.9810   32.6300    4.7620 C.ar  170  TRP170      0.0810
    102  CE3       15.4710   32.3010    2.8650 C.ar  170  TRP170      0.0012
    103  CZ2       13.0720   31.6690    4.2890 C.ar  170  TRP170      0.0191
    104  CZ3       14.5520   31.3520    2.3770 C.ar  170  TRP170      0.0001
    105  CH2       13.3670   31.0480    3.0970 C.ar  170  TRP170      0.0015
    106  N         22.0010   28.4280    2.5350 N.3   215  VAL215     -0.1245
    107  CA        20.6550   28.7830    2.0410 C.3   215  VAL215      0.1561
    108  C         20.5190   28.7670    0.5060 C.2   215  VAL215      0.2260
    109  O         19.6620   29.4220   -0.0590 O.2   215  VAL215     -0.2867
    110  CB        20.1370   30.1130    2.6910 C.3   215  VAL215      0.0252
    111  CG1       20.6380   31.3610    1.9550 C.3   215  VAL215      0.0019
    112  CG2       18.6150   30.1110    2.7630 C.3   215  VAL215      0.0019
    113  N         19.9250   27.9100   -5.8300 N.3   241  HIS241     -0.1241
    114  CA        18.5610   28.3570   -6.1000 C.3   241  HIS241      0.1621
    115  C         18.6010   29.8350   -6.4340 C.2   241  HIS241      0.2264
    116  O         19.4680   30.5370   -5.9460 O.2   241  HIS241     -0.2867
    117  CB        17.6520   28.2740   -4.8690 C.3   241  HIS241      0.0745
    118  CG        17.3770   26.8940   -4.3880 C.ar  241  HIS241      0.0817
    119  ND1       16.6150   26.6510   -3.2650 N.ar  241  HIS241     -0.2268
    120  CD2       17.7400   25.6870   -4.8670 C.ar  241  HIS241      0.1154
    121  CE1       16.5420   25.3500   -3.0600 C.ar  241  HIS241      0.1986
    122  NE2       17.2070   24.7430   -4.0240 N.ar  241  HIS241     -0.2212
    123  N         15.5000   32.9820   -6.8560 N.3   243  TYR243     -0.1241
    124  CA        14.2280   33.6450   -7.1270 C.3   243  TYR243      0.1605
    125  C         14.4890   35.1630   -7.1880 C.2   243  TYR243      0.2264
    126  O         13.7160   35.9470   -6.6510 O.2   243  TYR243     -0.2867
    127  CB        13.2330   33.3120   -6.0090 C.3   243  TYR243      0.0534
    128  CG        12.8930   31.8420   -5.8760 C.ar  243  TYR243     -0.0201
    129  CD1       11.8410   31.2820   -6.6030 C.ar  243  TYR243     -0.0009
    130  CD2       13.6010   31.0100   -5.0170 C.ar  243  TYR243     -0.0009
    131  CE1       11.5120   29.9370   -6.4770 C.ar  243  TYR243      0.0417
    132  CE2       13.2810   29.6670   -4.8890 C.ar  243  TYR243      0.0417
    133  CZ        12.2290   29.1290   -5.6230 C.ar  243  TYR243      0.1957
    134  OH        11.8960   27.7840   -5.5090 O.3   243  TYR243     -0.2866
    135  N         13.7940   38.8260   -5.3270 N.3   246  TRP246     -0.1241
    136  CA        12.7070   38.2300   -4.6260 C.3   246  TRP246      0.1605
    137  C         11.4040   39.0710   -4.7110 C.2   246  TRP246      0.2264
    138  O         10.3080   38.5440   -4.9400 O.2   246  TRP246     -0.2867
    139  CB        13.0920   38.0050   -3.1880 C.3   246  TRP246      0.0550
    140  CG        11.9390   37.4750   -2.4160 C.ar  246  TRP246      0.0003
    141  CD1       11.1560   38.1600   -1.5390 C.ar  246  TRP246      0.0946
    142  CD2       11.3770   36.1760   -2.5260 C.ar  246  TRP246      0.0152
    143  NE1       10.1520   37.3500   -1.0680 N.ar  246  TRP246     -0.2442
    144  CE2       10.2630   36.1280   -1.6660 C.ar  246  TRP246      0.0810
    145  CE3       11.7090   35.0440   -3.2630 C.ar  246  TRP246      0.0012
    146  CZ2        9.4960   34.9810   -1.5070 C.ar  246  TRP246      0.0191
    147  CZ3       10.9560   33.9190   -3.1160 C.ar  246  TRP246      0.0001
    148  CH2        9.8540   33.8860   -2.2380 C.ar  246  TRP246      0.0015
    149  N         16.2320   25.0530   -7.8670 N.3   295  GLU295     -0.1245
    150  CA        14.9990   25.8210   -7.8930 C.3   295  GLU295      0.1567
    151  C         15.2610   27.2120   -8.4720 C.2   295  GLU295      0.2260
    152  O         16.2400   27.8690   -8.1090 O.2   295  GLU295     -0.2867
    153  CB        14.4260   25.9960   -6.4950 C.3   295  GLU295      0.0388
    154  CG        14.0520   24.7160   -5.7610 C.3   295  GLU295      0.1160
    155  CD        13.5160   24.9950   -4.3680 C.2   295  GLU295      0.3649
    156  OE1       13.1230   26.1630   -4.0970 O.co2 295  GLU295     -0.2457
    157  OE2       13.4600   24.0590   -3.5440 O.co2 295  GLU295     -0.2457
    158  N         10.4110   25.8710  -10.0060 N.3   331  TRP331     -0.1241
    159  CA         9.6850   25.5200   -8.8170 C.3   331  TRP331      0.1605
    160  C          8.1650   25.5600   -9.0640 C.2   331  TRP331      0.2264
    161  O          7.5980   26.6250   -9.3250 O.2   331  TRP331     -0.2867
    162  CB        10.0540   26.4660   -7.6670 C.3   331  TRP331      0.0550
    163  CG         9.2990   26.1530   -6.4050 C.ar  331  TRP331      0.0003
    164  CD1        8.2590   26.8730   -5.8640 C.ar  331  TRP331      0.0946
    165  CD2        9.4820   25.0180   -5.5630 C.ar  331  TRP331      0.0152
    166  NE1        7.8090   26.2650   -4.7290 N.ar  331  TRP331     -0.2442
    167  CE2        8.5290   25.1160   -4.5210 C.ar  331  TRP331      0.0810
    168  CE3       10.3620   23.9290   -5.5800 C.ar  331  TRP331      0.0012
    169  CZ2        8.4220   24.1750   -3.5270 C.ar  331  TRP331      0.0191
    170  CZ3       10.2710   23.0040   -4.5800 C.ar  331  TRP331      0.0001
    171  CH2        9.3070   23.1270   -3.5570 C.ar  331  TRP331      0.0015
    172  N          4.6970   24.5920   -7.1730 N.3   333  ASN333     -0.1240
    173  CA         4.0180   24.1260   -5.9590 C.3   333  ASN333      0.1653
    174  C          2.5510   23.7820   -6.1610 C.2   333  ASN333      0.2266
    175  O          1.8650   23.4980   -5.1930 O.2   333  ASN333     -0.2867
    176  CB         4.1570   25.1590   -4.8430 C.3   333  ASN333      0.1155
    177  CG         3.4850   26.4870   -5.1790 C.2   333  ASN333      0.2627
    178  OD1        2.7360   26.6100   -6.1590 O.2   333  ASN333     -0.2716
    179  ND2        3.7460   27.4770   -4.3620 N.am  333  ASN333     -0.0877
    180  N          0.0790   25.6670   -7.0260 N.3   335  ASN335     -0.1240
    181  CA        -0.8240   26.7690   -6.6920 C.3   335  ASN335      0.1653
    182  C         -1.1050   27.6450   -7.9120 C.2   335  ASN335      0.2266
    183  O         -0.2060   28.2350   -8.4670 O.2   335  ASN335     -0.2867
    184  CB        -0.2040   27.6120   -5.5710 C.3   335  ASN335      0.1155
    185  CG        -1.1860   28.5970   -4.9530 C.2   335  ASN335      0.2627
    186  OD1       -2.2330   28.9170   -5.5140 O.2   335  ASN335     -0.2716
    187  ND2       -0.8630   29.0460   -3.7560 N.am  335  ASN335     -0.0877
    188  N          3.4080   33.3520   -4.0800 N.3   341  ASP341     -0.1239
    189  CA         3.3780   31.9100   -3.9880 C.3   341  ASP341      0.1674
    190  C          2.6560   31.2200   -5.1570 C.2   341  ASP341      0.2266
    191  O          2.4050   30.0070   -5.1150 O.2   341  ASP341     -0.2867
    192  CB         2.7880   31.4740   -2.6360 C.3   341  ASP341      0.1410
    193  CG         3.5060   30.2640   -2.0600 C.2   341  ASP341      0.3668
    194  OD1        4.7460   30.1520   -2.2500 O.co2 341  ASP341     -0.2456
    195  OD2        2.8330   29.4200   -1.4390 O.co2 341  ASP341     -0.2456
    196  N          3.0410   29.6590   -8.0810 N.3   343  PHE343     -0.1241
    197  CA         4.0600   29.0130   -8.9200 C.3   343  PHE343      0.1605
    198  C          3.5110   27.8690   -9.7800 C.2   343  PHE343      0.2264
    199  O          4.1850   27.3960  -10.6850 O.2   343  PHE343     -0.2867
    200  CB         5.1830   28.4670   -8.0370 C.3   343  PHE343      0.0534
    201  CG         6.1260   29.5010   -7.5200 C.ar  343  PHE343     -0.0203
    202  CD1        7.0910   30.0310   -8.3340 C.ar  343  PHE343     -0.0042
    203  CD2        6.1130   29.8640   -6.1720 C.ar  343  PHE343     -0.0042
    204  CE1        8.0010   30.9580   -7.8530 C.ar  343  PHE343     -0.0003
    205  CE2        7.0280   30.7910   -5.6690 C.ar  343  PHE343     -0.0003
    206  CZ         7.9700   31.3450   -6.5160 C.ar  343  PHE343     -0.0000
@<TRIPOS>BOND
     1   199   198    2
     2   158   159    1
     3   198   197    1
     4   161   160    2
     5   160   159    1
     6   197   196    1
     7   197   200    1
     8   159   162    1
     9   151   152    2
    10   151   150    1
    11   183   182    2
    12   202   204   ar
    13   202   201   ar
    14   200   201    1
    15   182   181    1
    16   150   149    1
    17   150   153    1
    18   204   206   ar
    19   162   163    1
    20   201   203   ar
    21   125   124    1
    22   125   126    2
    23   172   173    1
    24   124   123    1
    25   124   127    1
    26   180   181    1
    27   181   184    1
    28   129   131   ar
    29   129   128   ar
    30   206   205   ar
    31   153   154    1
    32   131   133   ar
    33   115   114    1
    34   115   116    2
    35   163   164   ar
    36   163   165   ar
    37   203   205   ar
    38   174   173    1
    39   174   175    2
    40   178   177    2
    41   114   113    1
    42   114   117    1
    43   127   128    1
    44   173   176    1
    45   128   130   ar
    46   164   166   ar
    47   154   155    1
    48   133   134    1
    49   133   132   ar
    50   168   165   ar
    51   168   170   ar
    52   184   185    1
    53   165   167   ar
    54   186   185    2
    55   135   136    1
    56   177   176    1
    57   177   179   am
    58   190   191    2
    59   190   189    1
    60   130   132   ar
    61   185   187   am
    62   138   137    2
    63   117   118    1
    64   120   118   ar
    65   120   122   ar
    66   166   167   ar
    67   137   136    1
    68   136   139    1
    69   170   171   ar
    70   167   169   ar
    71   118   119   ar
    72   155   156   ar
    73   155   157   ar
    74   188   189    1
    75   122   121   ar
    76   189   192    1
    77   171   169   ar
    78   119   121   ar
    79   145   147   ar
    80   145   142   ar
    81   139   140    1
    82   147   148   ar
    83     1     2    1
    84   192   193    1
    85   142   140   ar
    86   142   144   ar
    87   140   141   ar
    88   194   193   ar
    89   148   146   ar
    90     3     4    2
    91     3     2    1
    92     5     2    1
    93     5     6    1
    94   193   195   ar
    95   144   146   ar
    96   144   143   ar
    97     6     8   am
    98     6     7    2
    99   141   143   ar
   100    41    39   ar
   101    41    42   ar
   102    85    84    2
   103    39    38   ar
   104    22    21    2
   105    42    40   ar
   106   109   108    2
   107    84    86   am
   108    84    83    1
   109    21    20    1
   110    38    40   ar
   111    38    37    1
   112    82    81    2
   113   108   107    1
   114    80    83    1
   115    80    81    1
   116    80    79    1
   117    81    87   am
   118    37    34    1
   119    23    20    1
   120    23    24    1
   121    20    19    1
   122    91    88    1
   123    29    31   ar
   124    29    26   ar
   125    87    88    1
   126    34    33    1
   127    34    35    1
   128    88    89    1
   129    31    32   ar
   130   111   110    1
   131   107   106    1
   132   107   110    1
   133    52    51   ar
   134    52    50   ar
   135    24    26   ar
   136    24    25   ar
   137   104   102   ar
   138   104   105   ar
   139    26    28   ar
   140    51    49   ar
   141   110   112    1
   142   102    99   ar
   143    50    48   ar
   144   105   103   ar
   145    35    43   am
   146    35    36    2
   147    32    30   ar
   148    89    90    2
   149    95    94    2
   150    49    48   ar
   151    43    44    1
   152    25    27   ar
   153    48    47    1
   154    28    30   ar
   155    28    27   ar
   156    99   101   ar
   157    99    97   ar
   158   103   101   ar
   159    96    97    1
   160    96    93    1
   161    94    93    1
   162    44    47    1
   163    44    45    1
   164   101   100   ar
   165     9    10    1
   166    97    98   ar
   167    93    92    1
   168    61    59   ar
   169    61    63   ar
   170    59    58   ar
   171   100    98   ar
   172    16    18   ar
   173    16    14   ar
   174    45    46    2
   175    10    13    1
   176    10    11    1
   177    13    14    1
   178    18    17   ar
   179    63    62   ar
   180    14    15   ar
   181    12    11    2
   182    58    57    1
   183    58    60   ar
   184    57    54    1
   185    54    53    1
   186    54    55    1
   187    71    69   ar
   188    17    15   ar
   189    62    60   ar
   190    67    66    2
   191    55    56    2
   192    77    78    1
   193    77    76    1
   194    69    68    1
   195    69    70   ar
   196    78    72    1
   197    68    65    1
   198    66    65    1
   199    76    73    1
   200    72    73    1
   201    65    64    1
   202    73    74    1
   203    74    75    2
