@<TRIPOS>MOLECULE
tmp/4yhiC00.pdb
 135 136 0 0 0
SMALL
GASTEIGER

@<TRIPOS>ATOM
      1  N         15.5620  -23.4100   19.3500 N.3    30  THR30      -0.1203
      2  CA        16.3040  -24.3940   20.1260 C.3    30  THR30       0.1994
      3  C         17.8310  -24.2560   20.0720 C.2    30  THR30       0.2618
      4  O         18.5220  -24.9710   20.8050 O.2    30  THR30      -0.2717
      5  CB        15.8330  -25.8120   19.7740 C.3    30  THR30       0.1784
      6  OG1       16.0340  -26.0240   18.3700 O.3    30  THR30      -0.2211
      7  CG2       14.3680  -26.0700   20.1670 C.3    30  THR30       0.0376
      8  N         18.3580  -23.3450   19.2380 N.am   31  ASP31      -0.1959
      9  CA        19.8100  -23.1460   19.0810 C.3    31  ASP31       0.1840
     10  C         20.5170  -22.4440   20.2360 C.2    31  ASP31       0.2622
     11  O         21.7150  -22.6780   20.4470 O.2    31  ASP31      -0.2715
     12  CB        20.1100  -22.3520   17.7930 C.3    31  ASP31       0.1450
     13  CG        20.0530  -23.1250   16.4860 C.2    31  ASP31       0.3671
     14  OD1       19.5970  -24.3010   16.5000 O.co2  31  ASP31      -0.2456
     15  OD2       20.4480  -22.5530   15.4460 O.co2  31  ASP31      -0.2456
     16  N         19.8310  -21.5240   20.9220 N.am   32  TYR32      -0.1960
     17  CA        20.4870  -20.6950   21.9450 C.3    32  TYR32       0.1771
     18  C         19.7380  -20.6150   23.2550 C.2    32  TYR32       0.2619
     19  O         18.5060  -20.5650   23.2610 O.2    32  TYR32      -0.2715
     20  CB        20.7290  -19.2580   21.4000 C.3    32  TYR32       0.0574
     21  CG        21.3070  -19.2000   19.9940 C.ar   32  TYR32      -0.0198
     22  CD1       22.5690  -19.7210   19.7130 C.ar   32  TYR32      -0.0009
     23  CD2       20.5940  -18.6250   18.9510 C.ar   32  TYR32      -0.0009
     24  CE1       23.0850  -19.7100   18.4180 C.ar   32  TYR32       0.0417
     25  CE2       21.1180  -18.5730   17.6580 C.ar   32  TYR32       0.0417
     26  CZ        22.3680  -19.1080   17.4000 C.ar   32  TYR32       0.1957
     27  OH        22.8900  -19.0560   16.1330 O.3    32  TYR32      -0.2866
     28  N         20.4800  -20.5750   24.3610 N.am   33  TYR33      -0.1974
     29  CA        19.8970  -20.3950   25.6940 C.3    33  TYR33       0.1639
     30  C         19.2170  -19.0310   25.7630 C.2    33  TYR33       0.2290
     31  O         19.6950  -18.0720   25.1380 O.2    33  TYR33      -0.2864
     32  CB        20.9840  -20.4450   26.7890 C.3    33  TYR33       0.0560
     33  CG        21.2950  -21.8380   27.2920 C.ar   33  TYR33      -0.0198
     34  CD1       21.0720  -22.1880   28.6210 C.ar   33  TYR33      -0.0009
     35  CD2       21.7910  -22.8170   26.4320 C.ar   33  TYR33      -0.0009
     36  CE1       21.3650  -23.4670   29.0890 C.ar   33  TYR33       0.0417
     37  CE2       22.0810  -24.0980   26.8870 C.ar   33  TYR33       0.0417
     38  CZ        21.8690  -24.4190   28.2170 C.ar   33  TYR33       0.1957
     39  OH        22.1380  -25.6970   28.6410 O.3    33  TYR33      -0.2866
     40  N         18.0040  -15.9040   28.1640 N.3    35  HIS35      -0.1241
     41  CA        18.3520  -15.3160   29.4680 C.3    35  HIS35       0.1621
     42  C         17.3890  -14.2100   29.8720 C.2    35  HIS35       0.2264
     43  O         16.7960  -13.5620   29.0180 O.2    35  HIS35      -0.2867
     44  CB        19.7750  -14.7610   29.4650 C.3    35  HIS35       0.0745
     45  CG        20.8310  -15.7430   29.0770 C.ar   35  HIS35       0.0817
     46  ND1       21.8120  -16.1320   29.9690 N.ar   35  HIS35      -0.2268
     47  CD2       21.0680  -16.3330   27.8810 C.ar   35  HIS35       0.1154
     48  CE1       22.5730  -16.9820   29.3100 C.ar   35  HIS35       0.1986
     49  NE2       22.1720  -17.1250   28.0440 N.ar   35  HIS35      -0.2212
     50  N         19.0770  -18.5940   33.0890 N.3    50  GLU50      -0.1245
     51  CA        19.1850  -18.9930   31.6810 C.3    50  GLU50       0.1567
     52  C         18.4030  -20.2840   31.4320 C.2    50  GLU50       0.2260
     53  O         18.5560  -21.2490   32.1820 O.2    50  GLU50      -0.2867
     54  CB        20.6770  -19.1730   31.2930 C.3    50  GLU50       0.0388
     55  CG        21.3540  -20.3750   31.9360 C.3    50  GLU50       0.1160
     56  CD        22.8580  -20.3920   31.8410 C.2    50  GLU50       0.3649
     57  OE1       23.4380  -19.3180   31.5710 O.co2  50  GLU50      -0.2457
     58  OE2       23.4600  -21.4520   32.1240 O.co2  50  GLU50      -0.2457
     59  N         17.4500  -23.5050   28.9210 N.3    52  ASN52      -0.1226
     60  CA        17.8250  -24.3270   27.7890 C.3    52  ASN52       0.1770
     61  C         16.5280  -24.4850   26.9730 C.2    52  ASN52       0.2439
     62  O         15.5350  -24.9870   27.5100 O.2    52  ASN52      -0.2733
     63  CB        18.3680  -25.6860   28.2380 C.3    52  ASN52       0.1168
     64  CG        18.9600  -26.5240   27.1110 C.2    52  ASN52       0.2627
     65  OD1       18.5770  -26.4300   25.9420 O.2    52  ASN52      -0.2716
     66  ND2       19.9070  -27.3770   27.4350 N.am   52  ASN52      -0.0877
     67  N         16.4880  -24.0270   25.6960 N.am   53  PRO53      -0.2718
     68  CA        15.2420  -24.1610   24.9150 C.3    53  PRO53       0.1535
     69  C         14.9370  -25.6170   24.5160 C.2    53  PRO53       0.2598
     70  O         13.8050  -25.9280   24.1560 O.2    53  PRO53      -0.2715
     71  CB        15.4930  -23.2610   23.7000 C.3    53  PRO53       0.0310
     72  CG        16.9800  -23.3370   23.5050 C.3    53  PRO53       0.0237
     73  CD        17.5510  -23.3700   24.9050 C.3    53  PRO53       0.0939
     74  N         15.9360  -26.5020   24.5820 N.am   54  ARG54      -0.1978
     75  CA        15.7570  -27.9200   24.2140 C.3    54  ARG54       0.1597
     76  C         14.9830  -28.7180   25.2670 C.2    54  ARG54       0.2287
     77  O         13.9010  -29.2340   24.9710 O.2    54  ARG54      -0.2864
     78  CB        17.0920  -28.5790   23.8200 C.3    54  ARG54       0.0334
     79  CG        17.6080  -28.0930   22.4780 C.3    54  ARG54       0.0492
     80  CD        19.0950  -28.3040   22.2890 C.3    54  ARG54       0.2205
     81  NE        19.5930  -27.5700   21.1160 N.pl3  54  ARG54      -0.0865
     82  CZ        20.8000  -27.7320   20.5760 C.cat  54  ARG54       0.5346
     83  NH1       21.6420  -28.6280   21.0730 N.pl3  54  ARG54       0.1354
     84  NH2       21.1630  -27.0140   19.5170 N.pl3  54  ARG54       0.1354
     85  N         22.6630  -15.2360   23.3540 N.3    99  GLY99      -0.1225
     86  CA        24.0370  -15.2560   22.8770 C.3    99  GLY99       0.1811
     87  C         24.1500  -16.2140   21.7050 C.2    99  GLY99       0.2280
     88  O         23.7950  -17.3930   21.8450 O.2    99  GLY99      -0.2866
     89  N         28.2340  -19.4330   21.2680 N.3   102  GLY102     -0.1210
     90  CA        28.4230  -20.2280   22.4800 C.3   102  GLY102      0.1956
     91  C         28.0010  -19.4460   23.7170 C.2   102  GLY102      0.2612
     92  O         26.9060  -18.8830   23.7610 O.2   102  GLY102     -0.2717
     93  N         28.8950  -19.3480   24.6980 N.am  103  TYR103     -0.1962
     94  CA        28.6310  -18.5690   25.9020 C.3   103  TYR103      0.1771
     95  C         29.6000  -17.3760   26.0430 C.2   103  TYR103      0.2620
     96  O         29.9700  -16.9770   27.1510 O.2   103  TYR103     -0.2715
     97  CB        28.5060  -19.4630   27.1570 C.3   103  TYR103      0.0574
     98  CG        29.6090  -20.4680   27.3430 C.ar  103  TYR103     -0.0198
     99  CD1       29.4510  -21.7860   26.9320 C.ar  103  TYR103     -0.0009
    100  CD2       30.8060  -20.1110   27.9510 C.ar  103  TYR103     -0.0009
    101  CE1       30.4690  -22.7230   27.1020 C.ar  103  TYR103      0.0417
    102  CE2       31.8270  -21.0410   28.1390 C.ar  103  TYR103      0.0417
    103  CZ        31.6570  -22.3460   27.7070 C.ar  103  TYR103      0.1957
    104  OH        32.6720  -23.2590   27.8850 O.3   103  TYR103     -0.2866
    105  N         29.9630  -16.7740   24.8870 N.am  104  ASP104     -0.1957
    106  CA        30.9050  -15.6480   24.7760 C.3   104  ASP104      0.1840
    107  C         30.3240  -14.2700   25.0760 C.2   104  ASP104      0.2622
    108  O         31.0460  -13.4280   25.6090 O.2   104  ASP104     -0.2715
    109  CB        31.5240  -15.6010   23.3610 C.3   104  ASP104      0.1450
    110  CG        32.3960  -16.7790   22.9630 C.2   104  ASP104      0.3671
    111  OD1       32.5820  -16.9920   21.7420 O.co2 104  ASP104     -0.2456
    112  OD2       32.9100  -17.4750   23.8690 O.co2 104  ASP104     -0.2456
    113  N         29.0480  -14.0100   24.6690 N.am  105  TYR105     -0.1960
    114  CA        28.4380  -12.6940   24.7980 C.3   105  TYR105      0.1771
    115  C         26.9200  -12.6930   24.5970 C.2   105  TYR105      0.2619
    116  O         26.3770  -13.6810   24.1270 O.2   105  TYR105     -0.2715
    117  CB        29.0700  -11.7430   23.7630 C.3   105  TYR105      0.0574
    118  CG        29.1590  -12.2590   22.3310 C.ar  105  TYR105     -0.0198
    119  CD1       28.0120  -12.4560   21.5640 C.ar  105  TYR105     -0.0009
    120  CD2       30.3900  -12.4160   21.7030 C.ar  105  TYR105     -0.0009
    121  CE1       28.0890  -12.8480   20.2290 C.ar  105  TYR105      0.0417
    122  CE2       30.4800  -12.7770   20.3600 C.ar  105  TYR105      0.0417
    123  CZ        29.3260  -12.9850   19.6240 C.ar  105  TYR105      0.1957
    124  OH        29.4160  -13.3770   18.3120 O.3   105  TYR105     -0.2866
    125  N         26.2550  -11.5560   24.8950 N.am  106  PHE106     -0.1974
    126  CA        24.8250  -11.3750   24.6430 C.3   106  PHE106      0.1639
    127  C         24.7260  -10.3700   23.4920 C.2   106  PHE106      0.2290
    128  O         24.9270   -9.1660   23.7010 O.2   106  PHE106     -0.2864
    129  CB        24.0980  -10.8300   25.8810 C.3   106  PHE106      0.0560
    130  CG        24.0370  -11.6930   27.1230 C.ar  106  PHE106     -0.0200
    131  CD1       23.7110  -13.0470   27.0390 C.ar  106  PHE106     -0.0042
    132  CD2       24.2070  -11.1330   28.3850 C.ar  106  PHE106     -0.0042
    133  CE1       23.6040  -13.8280   28.1970 C.ar  106  PHE106     -0.0003
    134  CE2       24.0980  -11.9130   29.5400 C.ar  106  PHE106     -0.0003
    135  CZ        23.7940  -13.2560   29.4410 C.ar  106  PHE106     -0.0000
@<TRIPOS>BOND
     1    15    13   ar
     2    27    26    1
     3    13    14   ar
     4    13    12    1
     5    26    25   ar
     6    26    24   ar
     7    25    23   ar
     8    12     9    1
     9   124   123    1
    10     6     5    1
    11    24    22   ar
    12    23    21   ar
    13     9     8    1
    14     9    10    1
    15     8     3   am
    16     1     2    1
    17    84    82    1
    18   123   121   ar
    19   123   122   ar
    20    22    21   ar
    21     5     2    1
    22     5     7    1
    23    21    20    1
    24     3     2    1
    25     3     4    2
    26   121   119   ar
    27    10    11    2
    28    10    16   am
    29   122   120   ar
    30    82    83    1
    31    82    81    2
    32    16    17    1
    33    81    80    1
    34    89    90    1
    35    20    17    1
    36   119   118   ar
    37   120   118   ar
    38    87    88    2
    39    87    86    1
    40   111   110   ar
    41    17    18    1
    42    80    79    1
    43   118   117    1
    44    79    78    1
    45    90    91    1
    46    86    85    1
    47   110   109    1
    48   110   112   ar
    49    18    19    2
    50    18    28   am
    51   109   106    1
    52   127   128    2
    53   127   126    1
    54    72    71    1
    55    72    73    1
    56    71    68    1
    57    91    92    2
    58    91    93   am
    59   117   114    1
    60    78    75    1
    61   116   115    2
    62    70    69    2
    63    75    74    1
    64    75    76    1
    65    28    29    1
    66    69    74   am
    67    69    68    1
    68   115   114    1
    69   115   125   am
    70   126   125    1
    71   126   129    1
    72   113   114    1
    73   113   107   am
    74    93    94    1
    75   106   105    1
    76   106   107    1
    77   105    95   am
    78    73    67    1
    79    68    67    1
    80    77    76    2
    81   107   108    2
    82    31    30    2
    83    29    30    1
    84    29    32    1
    85    67    61   am
    86   129   130    1
    87    94    95    1
    88    94    97    1
    89    65    64    2
    90    95    96    2
    91    35    37   ar
    92    35    33   ar
    93    32    33    1
    94    37    38   ar
    95    99   101   ar
    96    99    98   ar
    97    61    62    2
    98    61    60    1
    99   131   130   ar
   100   131   133   ar
   101   101   103   ar
   102    64    66   am
   103    64    63    1
   104   130   132   ar
   105    97    98    1
   106    33    34   ar
   107    98   100   ar
   108   103   104    1
   109   103   102   ar
   110    60    63    1
   111    60    59    1
   112    47    49   ar
   113    47    45   ar
   114   100   102   ar
   115    49    48   ar
   116    40    41    1
   117   133   135   ar
   118    38    39    1
   119    38    36   ar
   120   132   134   ar
   121    34    36   ar
   122    43    42    2
   123    45    44    1
   124    45    46   ar
   125    48    46   ar
   126   135   134   ar
   127    44    41    1
   128    41    42    1
   129    54    51    1
   130    54    55    1
   131    52    51    1
   132    52    53    2
   133    57    56   ar
   134    51    50    1
   135    56    55    1
   136    56    58   ar
