@<TRIPOS>MOLECULE
tmp/4yhjA00.pdb
 161 151 0 0 0
SMALL
GASTEIGER

@<TRIPOS>ATOM
      1  N         32.9450   21.1510   31.8230 N.3   169  LEU169     -0.1231
      2  CA        32.9920   22.4950   31.2510 C.3   169  LEU169      0.1693
      3  C         34.1490   23.3320   31.8130 C.2   169  LEU169      0.2593
      4  O         34.7850   24.0840   31.0670 O.2   169  LEU169     -0.2718
      5  CB        31.6420   23.2100   31.4760 C.3   169  LEU169      0.0284
      6  CG        30.4010   22.5840   30.8290 C.3   169  LEU169      0.0019
      7  CD1       29.1500   23.2540   31.3280 C.3   169  LEU169      0.0001
      8  CD2       30.4600   22.6550   29.2940 C.3   169  LEU169      0.0001
      9  N         34.4080   23.1810   33.1080 N.am  170  GLY170     -0.1942
     10  CA        35.4520   23.9160   33.8130 C.3   170  GLY170      0.2014
     11  C         35.7450   23.3970   35.2030 C.2   170  GLY170      0.2639
     12  O         34.9930   22.5930   35.7550 O.2   170  GLY170     -0.2714
     13  N         36.8630   23.8490   35.7610 N.am  171  LYS171     -0.1963
     14  CA        37.3280   23.4770   37.0920 C.3   171  LYS171      0.1728
     15  C         36.9660   24.5530   38.0990 C.2   171  LYS171      0.2617
     16  O         37.5610   25.6260   38.1170 O.2   171  LYS171     -0.2715
     17  CB        38.8500   23.2060   37.0920 C.3   171  LYS171      0.0311
     18  CG        39.2300   21.7090   37.0770 C.3   171  LYS171      0.0038
     19  CD        40.4850   21.3820   36.2070 C.3   171  LYS171      0.0206
     20  CE        41.8420   21.7350   36.8030 C.3   171  LYS171      0.1093
     21  NZ        42.2420   20.8210   37.9080 N.3   171  LYS171     -0.1314
     22  N         35.9720   24.2510   38.9220 N.am  172  GLY172     -0.1940
     23  CA        35.5110   25.1430   39.9780 C.3   172  GLY172      0.2014
     24  C         36.3680   24.9800   41.2090 C.2   172  GLY172      0.2639
     25  O         37.1620   24.0410   41.2920 O.2   172  GLY172     -0.2714
     26  N         36.1950   25.8830   42.1620 N.am  173  GLY173     -0.1939
     27  CA        36.9330   25.8770   43.4210 C.3   173  GLY173      0.2014
     28  C         36.4800   24.8250   44.4120 C.2   173  GLY173      0.2638
     29  O         37.2070   24.5420   45.3690 O.2   173  GLY173     -0.2714
     30  N         35.2770   24.2500   44.2160 N.am  174  PHE174     -0.1973
     31  CA        34.7570   23.2050   45.1020 C.3   174  PHE174      0.1639
     32  C         34.5000   21.8950   44.3540 C.2   174  PHE174      0.2290
     33  O         34.1830   20.8770   44.9790 O.2   174  PHE174     -0.2864
     34  CB        33.5090   23.6620   45.8910 C.3   174  PHE174      0.0560
     35  CG        33.7460   24.7460   46.9140 C.ar  174  PHE174     -0.0200
     36  CD1       34.0670   24.4300   48.2220 C.ar  174  PHE174     -0.0042
     37  CD2       33.6300   26.0860   46.5710 C.ar  174  PHE174     -0.0042
     38  CE1       34.2780   25.4330   49.1750 C.ar  174  PHE174     -0.0003
     39  CE2       33.8360   27.0900   47.5270 C.ar  174  PHE174     -0.0003
     40  CZ        34.1510   26.7540   48.8270 C.ar  174  PHE174     -0.0000
     41  N         32.4240   21.4910   36.9870 N.3   177  VAL177     -0.1245
     42  CA        31.2520   22.1190   36.3840 C.3   177  VAL177      0.1561
     43  C         31.1410   21.3270   35.0770 C.2   177  VAL177      0.2260
     44  O         32.1150   21.2460   34.3280 O.2   177  VAL177     -0.2867
     45  CB        31.3820   23.6380   36.1220 C.3   177  VAL177      0.0252
     46  CG1       30.0760   24.1960   35.5460 C.3   177  VAL177      0.0019
     47  CG2       31.7820   24.3880   37.3870 C.3   177  VAL177      0.0019
     48  N         24.1440   23.3090   33.2150 N.3   190  ALA190     -0.1245
     49  CA        25.5180   23.2290   33.6820 C.3   190  ALA190      0.1562
     50  C         25.3700   22.7080   35.1210 C.2   190  ALA190      0.2260
     51  O         24.6570   23.3210   35.9130 O.2   190  ALA190     -0.2867
     52  CB        26.1570   24.6200   33.6710 C.3   190  ALA190      0.0290
     53  N         27.0370   22.2500   38.5400 N.3   192  LYS192     -0.1245
     54  CA        28.1190   22.6450   39.4260 C.3   192  LYS192      0.1561
     55  C         28.0880   21.6540   40.5760 C.2   192  LYS192      0.2260
     56  O         27.1190   21.6200   41.3280 O.2   192  LYS192     -0.2867
     57  CB        27.9200   24.0950   39.9130 C.3   192  LYS192      0.0271
     58  CG        29.0310   24.6430   40.8110 C.3   192  LYS192      0.0035
     59  CD        29.1890   26.1710   40.6760 C.3   192  LYS192      0.0206
     60  CE        30.0750   26.7840   41.7520 C.3   192  LYS192      0.1093
     61  NZ        29.7800   28.2320   41.9890 N.3   192  LYS192     -0.1314
     62  N         22.6770   34.0580   36.5790 N.3   224  VAL224     -0.1245
     63  CA        22.6210   32.6020   36.3890 C.3   224  VAL224      0.1561
     64  C         21.5000   32.1110   37.2910 C.2   224  VAL224      0.2260
     65  O         21.3840   32.5410   38.4390 O.2   224  VAL224     -0.2867
     66  CB        23.9880   31.9260   36.6850 C.3   224  VAL224      0.0252
     67  CG1       23.8510   30.4260   36.8890 C.3   224  VAL224      0.0019
     68  CG2       24.9830   32.2210   35.5720 C.3   224  VAL224      0.0019
     69  N         22.4480   24.6160   36.8820 N.3   240  LEU240     -0.1231
     70  CA        22.3760   25.9960   36.4400 C.3   240  LEU240      0.1693
     71  C         22.2610   26.2390   34.9570 C.2   240  LEU240      0.2593
     72  O         22.4780   25.3400   34.1490 O.2   240  LEU240     -0.2718
     73  CB        23.6250   26.7520   36.9650 C.3   240  LEU240      0.0284
     74  CG        23.9190   26.6630   38.4600 C.3   240  LEU240      0.0019
     75  CD1       25.3480   26.9060   38.7390 C.3   240  LEU240      0.0001
     76  CD2       23.0530   27.5980   39.2670 C.3   240  LEU240      0.0001
     77  N         21.9340   27.4950   34.6080 N.am  241  THR241     -0.1939
     78  CA        21.8050   27.9780   33.2350 C.3   241  THR241      0.2028
     79  C         23.1320   27.6900   32.5480 C.2   241  THR241      0.2642
     80  O         24.1830   28.0760   33.0730 O.2   241  THR241     -0.2714
     81  CB        21.5570   29.5020   33.2400 C.3   241  THR241      0.1808
     82  OG1       20.5050   29.8170   34.1500 O.3   241  THR241     -0.2208
     83  CG2       21.2480   30.0650   31.8480 C.3   241  THR241      0.0379
     84  N         23.0910   26.9910   31.3930 N.am  242  ILE242     -0.1963
     85  CA        24.3190   26.6940   30.6490 C.3   242  ILE242      0.1727
     86  C         24.7260   27.9500   29.8790 C.2   242  ILE242      0.2616
     87  O         23.8910   28.5390   29.2020 O.2   242  ILE242     -0.2715
     88  CB        24.2300   25.3870   29.8210 C.3   242  ILE242      0.0290
     89  CG1       25.6520   24.9200   29.3810 C.3   242  ILE242      0.0022
     90  CG2       23.2210   25.4720   28.6730 C.3   242  ILE242      0.0023
     91  CD1       25.8200   23.4120   29.1010 C.3   242  ILE242      0.0001
     92  N         25.9840   28.3940   30.0490 N.am  243  MET243     -0.1963
     93  CA        26.5530   29.6070   29.4250 C.3   243  MET243      0.1736
     94  C         27.7630   29.2440   28.5400 C.2   243  MET243      0.2616
     95  O         28.9170   29.3330   28.9780 O.2   243  MET243     -0.2715
     96  CB        26.9230   30.6430   30.5030 C.3   243  MET243      0.0427
     97  CG        25.7450   31.0810   31.3920 C.3   243  MET243      0.0599
     98  SD        24.4430   31.9960   30.5280 S.3   243  MET243     -0.1393
     99  CE        25.2260   33.5420   30.3160 C.3   243  MET243      0.0692
    100  N         27.4780   28.8180   27.2930 N.am  244  ASN244     -0.1972
    101  CA        28.4790   28.3640   26.3170 C.3   244  ASN244      0.1688
    102  C         29.4440   29.4210   25.7640 C.2   244  ASN244      0.2292
    103  O         30.5710   29.0620   25.4200 O.2   244  ASN244     -0.2864
    104  CB        27.8020   27.6510   25.1510 C.3   244  ASN244      0.1181
    105  CG        27.0520   26.4090   25.5660 C.2   244  ASN244      0.2629
    106  OD1       27.4970   25.6240   26.4240 O.2   244  ASN244     -0.2716
    107  ND2       25.8910   26.2100   24.9590 N.am  244  ASN244     -0.0877
    108  N         33.4700   33.4790   29.3950 N.3   247  ASP247     -0.1239
    109  CA        33.3440   34.5890   30.3290 C.3   247  ASP247      0.1674
    110  C         33.9050   35.8770   29.7300 C.2   247  ASP247      0.2266
    111  O         34.4660   35.8310   28.6450 O.2   247  ASP247     -0.2867
    112  CB        33.9060   34.2570   31.7120 C.3   247  ASP247      0.1410
    113  CG        35.3760   33.9550   31.7820 C.2   247  ASP247      0.3668
    114  OD1       36.1710   34.9060   31.7550 O.co2 247  ASP247     -0.2456
    115  OD2       35.7320   32.7610   31.8960 O.co2 247  ASP247     -0.2456
    116  N         35.8390   37.8850   34.8450 N.3   292  GLU292     -0.1245
    117  CA        35.7150   36.4320   34.8990 C.3   292  GLU292      0.1567
    118  C         34.3610   35.9790   35.4820 C.2   292  GLU292      0.2260
    119  O         33.9400   34.8560   35.2000 O.2   292  GLU292     -0.2867
    120  CB        36.9170   35.7670   35.6210 C.3   292  GLU292      0.0388
    121  CG        37.2950   36.3650   36.9670 C.3   292  GLU292      0.1160
    122  CD        38.3670   37.4420   36.9290 C.2   292  GLU292      0.3649
    123  OE1       39.4700   37.1830   37.4640 O.co2 292  GLU292     -0.2457
    124  OE2       38.1100   38.5390   36.3750 O.co2 292  GLU292     -0.2457
    125  N         29.4010   35.8140   32.4700 N.3   295  LEU295     -0.1245
    126  CA        29.4020   34.7970   31.4220 C.3   295  LEU295      0.1561
    127  C         28.4860   35.1830   30.2710 C.2   295  LEU295      0.2260
    128  O         27.5250   35.9280   30.4640 O.2   295  LEU295     -0.2867
    129  CB        28.9460   33.4240   31.9640 C.3   295  LEU295      0.0270
    130  CG        29.5130   32.8890   33.2930 C.3   295  LEU295      0.0019
    131  CD1       28.9610   31.5030   33.6030 C.3   295  LEU295      0.0001
    132  CD2       31.0180   32.8260   33.2980 C.3   295  LEU295      0.0001
    133  N         27.3030   35.7020   37.2540 N.3   305  SER305     -0.1202
    134  CA        27.5250   34.3470   37.8000 C.3   305  SER305      0.2020
    135  C         28.2950   34.4710   39.1030 C.2   305  SER305      0.2618
    136  O         28.5690   35.5880   39.5090 O.2   305  SER305     -0.2717
    137  CB        28.3320   33.5130   36.8060 C.3   305  SER305      0.2103
    138  OG        28.1540   32.1210   37.0150 O.3   305  SER305     -0.2182
    139  N         28.6610   33.3470   39.7400 N.am  306  ASP306     -0.1973
    140  CA        29.4410   33.2580   40.9880 C.3   306  ASP306      0.1709
    141  C         28.8630   34.1690   42.0900 C.2   306  ASP306      0.2293
    142  O         29.4600   35.1800   42.4880 O.2   306  ASP306     -0.2864
    143  CB        30.9500   33.4920   40.7170 C.3   306  ASP306      0.1436
    144  CG        31.9230   33.0750   41.8190 C.2   306  ASP306      0.3671
    145  OD1       31.4570   32.7840   42.9680 O.co2 306  ASP306     -0.2456
    146  OD2       33.1550   33.0470   41.5450 O.co2 306  ASP306     -0.2456
    147  N         36.7360   29.2480   26.1990 N.3   451  CYS451     -0.1221
    148  CA        37.2320   29.0290   27.5650 C.3   451  CYS451      0.1808
    149  C         38.4940   28.1690   27.5760 C.2   451  CYS451      0.2601
    150  O         38.8310   27.5490   26.5630 O.2   451  CYS451     -0.2717
    151  CB        36.1440   28.4040   28.4340 C.3   451  CYS451      0.0970
    152  SG        35.5330   26.8130   27.8220 S.3   451  CYS451     -0.0800
    153  N         39.1760   28.0960   28.7250 N.am  452  LYS452     -0.1979
    154  CA        40.3400   27.2330   28.8320 C.3   452  LYS452      0.1596
    155  C         39.8410   25.8150   29.0430 C.2   452  LYS452      0.2287
    156  O         38.9460   25.6080   29.8830 O.2   452  LYS452     -0.2864
    157  CB        41.2290   27.6350   30.0280 C.3   452  LYS452      0.0298
    158  CG        42.3970   26.6640   30.3390 C.3   452  LYS452      0.0038
    159  CD        43.6680   26.8300   29.4560 C.3   452  LYS452      0.0206
    160  CE        43.6830   26.0510   28.1430 C.3   452  LYS452      0.1093
    161  NZ        45.0160   26.0620   27.4780 N.3   452  LYS452     -0.1314
@<TRIPOS>BOND
     1   107   105   am
     2   104   105    1
     3   104   101    1
     4   103   102    2
     5   105   106    2
     6   102   101    1
     7   147   148    1
     8   101   100    1
     9   150   149    2
    10   100    94   am
    11   161   160    1
    12   148   149    1
    13   148   151    1
    14   149   153   am
    15   152   151    1
    16   160   159    1
    17    94    95    2
    18    94    93    1
    19   111   110    2
    20    90    88    1
    21   153   154    1
    22   154   155    1
    23   154   157    1
    24   155   156    2
    25    91    89    1
    26    87    86    2
    27     8     6    1
    28    89    88    1
    29   108   109    1
    30    93    92    1
    31    93    96    1
    32   159   158    1
    33   110   109    1
    34    88    85    1
    35    86    92   am
    36    86    85    1
    37   157   158    1
    38   127   128    2
    39   127   126    1
    40    99    98    1
    41   109   112    1
    42    96    97    1
    43    98    97    1
    44    85    84    1
    45     6     7    1
    46     6     5    1
    47     4     3    2
    48     2     5    1
    49     2     3    1
    50     2     1    1
    51    84    79   am
    52   126   129    1
    53   126   125    1
    54   112   113    1
    55   114   113   ar
    56   113   115   ar
    57     3     9   am
    58    83    81    1
    59   129   130    1
    60    79    80    2
    61    79    78    1
    62     9    10    1
    63    48    49    1
    64    78    81    1
    65    78    77    1
    66    81    82    1
    67   130   132    1
    68   130   131    1
    69    52    49    1
    70    49    50    1
    71    10    11    1
    72    72    71    2
    73    44    43    2
    74    77    71   am
    75   116   117    1
    76   117   118    1
    77   117   120    1
    78    71    70    1
    79    43    42    1
    80    50    51    2
    81   119   118    2
    82    11    12    2
    83    11    13   am
    84    46    45    1
    85    68    66    1
    86   120   121    1
    87    13    14    1
    88    45    42    1
    89    45    47    1
    90    19    20    1
    91    19    18    1
    92   124   122   ar
    93    42    41    1
    94    63    62    1
    95    63    66    1
    96    63    64    1
    97    70    69    1
    98    70    73    1
    99    66    67    1
   100    20    21    1
   101   137   138    1
   102   137   134    1
   103   122   121    1
   104   122   123   ar
   105    73    74    1
   106    18    17    1
   107    14    17    1
   108    14    15    1
   109   133   134    1
   110    64    65    2
   111   134   135    1
   112    15    16    2
   113    15    22   am
   114    74    75    1
   115    74    76    1
   116    53    54    1
   117    22    23    1
   118   135   136    2
   119   135   139   am
   120    54    57    1
   121    54    55    1
   122   139   140    1
   123    57    58    1
   124    23    24    1
   125    55    56    2
   126    59    58    1
   127    59    60    1
   128   143   140    1
   129   143   144    1
   130   140   141    1
   131    24    25    2
   132    24    26   am
   133   146   144   ar
   134    60    61    1
   135   144   145   ar
   136   141   142    2
   137    26    27    1
   138    27    28    1
   139    30    28   am
   140    30    31    1
   141    32    33    2
   142    32    31    1
   143    28    29    2
   144    31    34    1
   145    34    35    1
   146    37    35   ar
   147    37    39   ar
   148    35    36   ar
   149    39    40   ar
   150    36    38   ar
   151    40    38   ar
