@<TRIPOS>MOLECULE
tmp/4yhqA00.pdb
 111 105 0 0 0
SMALL
GASTEIGER

@<TRIPOS>ATOM
      1  N        -23.3420    8.8510    4.1540 N.3    23  LEU23      -0.1301
      2  CA       -23.8700    7.8850    3.2110 C.3    23  LEU23       0.1247
      3  C        -24.6940    6.7850    3.9640 C.3    23  LEU23       0.2009
      4  O        -24.0170    6.1090    4.7730 O.3    23  LEU23      -0.2188
      5  CB       -22.6120    7.2970    2.5230 C.3    23  LEU23       0.0217
      6  CG       -22.9320    6.3240    1.3880 C.3    23  LEU23       0.0015
      7  CD1      -23.6940    7.1150    0.3730 C.3    23  LEU23       0.0000
      8  CD2      -21.6530    5.7580    0.8280 C.3    23  LEU23       0.0000
      9  N        -25.5030    3.4010    4.3540 N.3    25  ASP25      -0.1239
     10  CA       -24.6630    2.3570    3.7570 C.3    25  ASP25       0.1674
     11  C        -24.9690    0.9850    4.3200 C.2    25  ASP25       0.2266
     12  O        -24.4640    0.5690    5.3840 O.2    25  ASP25      -0.2867
     13  CB       -23.2400    2.7480    3.9930 C.3    25  ASP25       0.1410
     14  CG       -22.3410    1.9180    3.2900 C.2    25  ASP25       0.3668
     15  OD1      -22.7960    0.8990    2.6980 O.co2  25  ASP25      -0.2456
     16  OD2      -21.1240    2.1780    3.2780 O.co2  25  ASP25      -0.2456
     17  N        -23.9940   -1.7630    3.3510 N.3    27  GLY27      -0.1210
     18  CA       -22.8230   -2.6360    3.4180 C.3    27  GLY27       0.1956
     19  C        -21.8560   -2.3180    4.5510 C.2    27  GLY27       0.2612
     20  O        -20.8280   -2.9830    4.6750 O.2    27  GLY27      -0.2717
     21  N        -22.1750   -1.3010    5.3900 N.am   28  ALA28      -0.1965
     22  CA       -21.3170   -0.9290    6.5250 C.3    28  ALA28       0.1728
     23  C        -21.9250   -1.4920    7.7850 C.2    28  ALA28       0.2616
     24  O        -23.0450   -1.1450    8.1590 O.2    28  ALA28      -0.2715
     25  CB       -21.1940    0.5870    6.6090 C.3    28  ALA28       0.0334
     26  N        -21.1180   -2.2510    8.5400 N.am   29  ASP29      -0.1957
     27  CA       -21.5960   -2.7440    9.8470 C.3    29  ASP29       0.1840
     28  C        -21.7370   -1.5890   10.8230 C.2    29  ASP29       0.2622
     29  O        -22.6460   -1.5990   11.6640 O.2    29  ASP29      -0.2715
     30  CB       -20.6380   -3.7520   10.4580 C.3    29  ASP29       0.1450
     31  CG       -20.4850   -5.0120    9.6230 C.2    29  ASP29       0.3671
     32  OD1      -21.3690   -5.3950    8.8400 O.co2  29  ASP29      -0.2456
     33  OD2      -19.4490   -5.6910    9.8340 O.co2  29  ASP29      -0.2456
     34  N        -20.7540   -0.6580   10.7020 N.am   30  ASN30      -0.1972
     35  CA       -20.3570    0.3020   11.7270 C.3    30  ASN30       0.1688
     36  C        -20.4420    1.8200   11.2190 C.2    30  ASN30       0.2292
     37  O        -19.7810    2.0910   10.2930 O.2    30  ASN30      -0.2864
     38  CB       -18.8460    0.0760   12.1780 C.3    30  ASN30       0.1181
     39  CG       -18.4750   -1.3830   12.5100 C.2    30  ASN30       0.2629
     40  OD1      -17.4670   -2.0240   11.9840 O.2    30  ASN30      -0.2716
     41  ND2      -19.2770   -1.9020   13.3480 N.am   30  ASN30      -0.0877
     42  N        -19.2090    5.5230   10.7650 N.3    32  ILE32      -0.1245
     43  CA       -17.8890    6.1340   10.8180 C.3    32  ILE32       0.1561
     44  C        -17.9590    7.5420   10.3260 C.2    32  ILE32       0.2260
     45  O        -18.5640    7.8130    9.2690 O.2    32  ILE32      -0.2867
     46  CB       -16.8450    5.4460    9.9160 C.3    32  ILE32       0.0252
     47  CG1      -16.8310    3.9400   10.0900 C.3    32  ILE32       0.0019
     48  CG2      -15.4170    6.0380   10.1420 C.3    32  ILE32       0.0019
     49  CD1      -15.8990    3.1940    9.2140 C.3    32  ILE32       0.0001
     50  N        -11.2020   -1.0150   10.7670 N.3    47  VAL47      -0.1231
     51  CA       -12.2700   -1.4200    9.8220 C.3    47  VAL47       0.1692
     52  C        -11.7140   -1.7640    8.4410 C.2    47  VAL47       0.2593
     53  O        -10.7690   -1.1520    7.9520 O.2    47  VAL47      -0.2718
     54  CB       -13.3510   -0.3080    9.7640 C.3    47  VAL47       0.0266
     55  CG1      -14.4420   -0.6910   10.6860 C.3    47  VAL47       0.0020
     56  CG2      -12.6740    1.0740   10.2970 C.3    47  VAL47       0.0020
     57  N        -12.2840   -2.7820    7.8260 N.am   48  GLY48      -0.1942
     58  CA       -11.7640   -3.2930    6.5770 C.3    48  GLY48       0.2014
     59  C        -12.6910   -3.0890    5.4200 C.2    48  GLY48       0.2639
     60  O        -13.8930   -3.2450    5.5550 O.2    48  GLY48      -0.2714
     61  N        -12.1450   -2.6780    4.2730 N.am   49  GLY49      -0.1939
     62  CA       -12.9930   -2.6030    3.1110 C.3    49  GLY49       0.2014
     63  C        -12.2180   -2.9070    1.8700 C.2    49  GLY49       0.2638
     64  O        -11.1700   -3.5430    1.8630 O.2    49  GLY49      -0.2714
     65  N        -12.7760   -2.4620    0.7700 N.am   50  ILE50      -0.1977
     66  CA       -12.1550   -2.5120   -0.5210 C.3    50  ILE50       0.1596
     67  C        -10.8980   -1.6990   -0.4030 C.2    50  ILE50       0.2287
     68  O        -10.8960   -0.4890    0.0220 O.2    50  ILE50      -0.2864
     69  CB       -13.0870   -2.0020   -1.6400 C.3    50  ILE50       0.0276
     70  CG1      -14.0900   -3.1000   -1.9850 C.3    50  ILE50       0.0022
     71  CG2      -12.3780   -1.6500   -2.9030 C.3    50  ILE50       0.0022
     72  CD1      -15.3280   -2.5570   -2.6080 C.3    50  ILE50       0.0001
     73  N         -7.5420   -1.9220    5.5520 N.3    53  PHE53      -0.1241
     74  CA        -8.0740   -1.6260    6.9310 C.3    53  PHE53       0.1605
     75  C         -7.6530   -0.1880    7.3420 C.2    53  PHE53       0.2264
     76  O         -6.6280    0.3910    6.8910 O.2    53  PHE53      -0.2867
     77  CB        -7.7160   -2.6430    8.0810 C.3    53  PHE53       0.0534
     78  CG        -8.6750   -3.9690    8.2640 C.ar   53  PHE53      -0.0203
     79  CD1       -8.6370   -5.1010    7.3550 C.ar   53  PHE53      -0.0042
     80  CD2       -9.4780   -4.1360    9.4470 C.ar   53  PHE53      -0.0042
     81  CE1       -9.5280   -6.2460    7.6020 C.ar   53  PHE53      -0.0003
     82  CE2      -10.3730   -5.2940    9.6930 C.ar   53  PHE53      -0.0003
     83  CZ       -10.4220   -6.3100    8.7090 C.ar   53  PHE53      -0.0000
     84  N        -12.0050    8.2130    6.9430 N.3    80  THR80      -0.1204
     85  CA       -12.7670    7.5580    5.9220 C.3    80  THR80       0.1979
     86  C        -12.9520    8.5870    4.8150 C.2    80  THR80       0.2460
     87  O        -13.1180    9.7760    5.0890 O.2    80  THR80      -0.2732
     88  CB       -14.1630    7.0890    6.4920 C.3    80  THR80       0.1783
     89  OG1      -14.9310    6.5930    5.4160 O.3    80  THR80      -0.2211
     90  CG2      -14.8840    8.2590    7.2150 C.3    80  THR80       0.0376
     91  N        -13.0610    8.1090    3.5530 N.am   81  PRO81      -0.2717
     92  CA       -13.2280    9.0880    2.4690 C.3    81  PRO81       0.1535
     93  C        -14.5790    9.7630    2.4120 C.2    81  PRO81       0.2598
     94  O        -14.7500   10.8700    1.9170 O.2    81  PRO81      -0.2715
     95  CB       -13.0500    8.1990    1.1880 C.3    81  PRO81       0.0310
     96  CG       -12.4820    7.0730    1.5990 C.3    81  PRO81       0.0237
     97  CD       -12.7070    6.7840    3.0320 C.3    81  PRO81       0.0939
     98  N        -15.5790    9.0660    2.9380 N.am   82  VAL82      -0.1978
     99  CA       -16.8810    9.6600    3.1200 C.3    82  VAL82       0.1596
    100  C        -17.3600    9.1650    4.4690 C.2    82  VAL82       0.2287
    101  O        -16.9600    8.0920    4.9780 O.2    82  VAL82      -0.2864
    102  CB       -17.8690    9.2550    1.9490 C.3    82  VAL82       0.0276
    103  CG1      -18.1910    7.8350    2.0640 C.3    82  VAL82       0.0022
    104  CG2      -19.0860   10.0200    1.9650 C.3    82  VAL82       0.0022
    105  N        -20.0960    7.4370    6.7750 N.3    84  VAL84      -0.1245
    106  CA       -21.1750    6.4700    6.4490 C.3    84  VAL84       0.1561
    107  C        -21.9420    6.2260    7.7050 C.2    84  VAL84       0.2260
    108  O        -21.3910    6.2480    8.8050 O.2    84  VAL84      -0.2867
    109  CB       -20.6220    5.0980    5.8960 C.3    84  VAL84       0.0252
    110  CG1      -19.9890    5.3160    4.5440 C.3    84  VAL84       0.0019
    111  CG2      -19.6280    4.4960    6.8750 C.3    84  VAL84       0.0019
@<TRIPOS>BOND
     1    71    69    1
     2    72    70    1
     3    70    69    1
     4    69    66    1
     5    66    67    1
     6    66    65    1
     7    67    68    2
     8     7     6    1
     9    65    63   am
    10     8     6    1
    11    95    96    1
    12    95    92    1
    13     6     5    1
    14    96    97    1
    15    64    63    2
    16    63    62    1
    17    94    93    2
    18   102   104    1
    19   102   103    1
    20   102    99    1
    21    93    92    1
    22    93    98   am
    23    92    91    1
    24     5     2    1
    25    15    14   ar
    26    98    99    1
    27    97    91    1
    28    62    61    1
    29    99   100    1
    30     2     3    1
    31     2     1    1
    32    16    14   ar
    33    14    13    1
    34    17    18    1
    35    18    19    1
    36    91    86   am
    37    10    13    1
    38    10    11    1
    39    10     9    1
    40     3     4    1
    41    61    59   am
    42    11    12    2
    43   100   101    2
    44   110   109    1
    45    19    20    2
    46    19    21   am
    47    86    87    2
    48    86    85    1
    49    21    22    1
    50    89    88    1
    51    59    60    2
    52    59    58    1
    53    73    74    1
    54   109   106    1
    55   109   111    1
    56    85    88    1
    57    85    84    1
    58   106   105    1
    59   106   107    1
    60    88    90    1
    61    22    25    1
    62    22    23    1
    63    58    57    1
    64    76    75    2
    65    74    75    1
    66    74    77    1
    67    79    81   ar
    68    79    78   ar
    69    81    83   ar
    70   107   108    2
    71    23    24    2
    72    23    26   am
    73    57    52   am
    74    53    52    2
    75    77    78    1
    76    78    80   ar
    77    52    51    1
    78    26    27    1
    79    83    82   ar
    80    32    31   ar
    81    49    47    1
    82    45    44    2
    83    80    82   ar
    84    31    33   ar
    85    31    30    1
    86    54    51    1
    87    54    56    1
    88    54    55    1
    89    51    50    1
    90    27    30    1
    91    27    28    1
    92    46    47    1
    93    46    48    1
    94    46    43    1
    95    37    36    2
    96    44    43    1
    97    34    28   am
    98    34    35    1
    99    42    43    1
   100    28    29    2
   101    36    35    1
   102    35    38    1
   103    40    39    2
   104    38    39    1
   105    39    41   am
