@<TRIPOS>MOLECULE
tmp/4yhsA00.pdb
 137 134 0 0 0
SMALL
GASTEIGER

@<TRIPOS>ATOM
      1  N          0.0250   51.1090   -5.3770 N.3    45  HIS45      -0.1241
      2  CA         1.1160   51.8600   -5.9980 C.3    45  HIS45       0.1621
      3  C          2.2540   50.8740   -6.2780 C.2    45  HIS45       0.2264
      4  O          2.1630   49.6930   -5.9240 O.2    45  HIS45      -0.2867
      5  CB         1.5860   53.0070   -5.1000 C.3    45  HIS45       0.0745
      6  CG         2.2120   52.5690   -3.8050 C.ar   45  HIS45       0.0817
      7  ND1        3.4570   51.9800   -3.7320 N.ar   45  HIS45      -0.2268
      8  CD2        1.7570   52.6480   -2.5300 C.ar   45  HIS45       0.1154
      9  CE1        3.7450   51.7140   -2.4660 C.ar   45  HIS45       0.1986
     10  NE2        2.7320   52.1180   -1.7170 N.ar   45  HIS45      -0.2212
     11  N          7.6180   51.5360   -3.7610 N.3    47  ASP47      -0.1239
     12  CA         8.6690   51.1010   -2.8420 C.3    47  ASP47       0.1674
     13  C          9.0230   49.6400   -3.0310 C.2    47  ASP47       0.2266
     14  O          8.4040   48.9360   -3.8220 O.2    47  ASP47      -0.2867
     15  CB         8.2690   51.3660   -1.3670 C.3    47  ASP47       0.1410
     16  CG         6.9830   50.6550   -0.9300 C.2    47  ASP47       0.3668
     17  OD1        6.5120   49.7190   -1.6110 O.co2  47  ASP47      -0.2456
     18  OD2        6.4390   51.0170    0.1520 O.co2  47  ASP47      -0.2456
     19  N          8.7490   47.2060   -0.9520 N.3    49  TYR49      -0.1227
     20  CA         7.7540   46.3230   -0.3890 C.3    49  TYR49       0.1736
     21  C          6.7740   45.8750   -1.4770 C.2    49  TYR49       0.2595
     22  O          6.5990   44.6810   -1.6980 O.2    49  TYR49      -0.2718
     23  CB         6.9930   47.0010    0.7610 C.3    49  TYR49       0.0548
     24  CG         6.0710   46.0220    1.4730 C.ar   49  TYR49      -0.0200
     25  CD1        4.7760   45.7710    1.0140 C.ar   49  TYR49      -0.0009
     26  CD2        6.5110   45.3400    2.6010 C.ar   49  TYR49      -0.0009
     27  CE1        3.9500   44.8470    1.6560 C.ar   49  TYR49       0.0417
     28  CE2        5.6870   44.4420    3.2660 C.ar   49  TYR49       0.0417
     29  CZ         4.4010   44.2080    2.7900 C.ar   49  TYR49       0.1957
     30  OH         3.5730   43.3040    3.4260 O.3    49  TYR49      -0.2866
     31  N          6.1350   46.8150   -2.1620 N.am   50  TRP50      -0.1976
     32  CA         5.1710   46.4420   -3.1970 C.3    50  TRP50       0.1640
     33  C          5.8610   45.8790   -4.4380 C.2    50  TRP50       0.2290
     34  O          5.2750   45.0550   -5.1430 O.2    50  TRP50      -0.2864
     35  CB         4.2320   47.6400   -3.5030 C.3    50  TRP50       0.0576
     36  CG         3.3000   47.7570   -2.3280 C.ar   50  TRP50       0.0006
     37  CD1        3.4570   48.5380   -1.2130 C.ar   50  TRP50       0.0946
     38  CD2        2.1070   46.9900   -2.1040 C.ar   50  TRP50       0.0152
     39  NE1        2.4280   48.3180   -0.3310 N.ar   50  TRP50      -0.2442
     40  CE2        1.5830   47.3790   -0.8600 C.ar   50  TRP50       0.0810
     41  CE3        1.4320   46.0190   -2.8400 C.ar   50  TRP50       0.0012
     42  CZ2        0.4170   46.8230   -0.3330 C.ar   50  TRP50       0.0191
     43  CZ3        0.2480   45.4680   -2.3010 C.ar   50  TRP50       0.0001
     44  CH2       -0.2360   45.8820   -1.0830 C.ar   50  TRP50       0.0015
     45  N         -1.4010   55.9900   -2.1370 N.3    75  TYR75      -0.1241
     46  CA        -2.4790   55.8070   -1.1730 C.3    75  TYR75       0.1605
     47  C         -3.4640   56.9830   -1.1280 C.2    75  TYR75       0.2264
     48  O         -4.4930   56.9100   -0.4530 O.2    75  TYR75      -0.2867
     49  CB        -1.8900   55.5290    0.2130 C.3    75  TYR75       0.0534
     50  CG        -1.5330   54.0670    0.4350 C.ar   75  TYR75      -0.0201
     51  CD1       -2.5240   53.0970    0.5000 C.ar   75  TYR75      -0.0009
     52  CD2       -0.2140   53.6660    0.5810 C.ar   75  TYR75      -0.0009
     53  CE1       -2.2050   51.7590    0.6880 C.ar   75  TYR75       0.0417
     54  CE2        0.1250   52.3160    0.7830 C.ar   75  TYR75       0.0417
     55  CZ        -0.8870   51.3760    0.8300 C.ar   75  TYR75       0.1957
     56  OH        -0.6090   50.0540    1.0060 O.3    75  TYR75      -0.2866
     57  N         -2.4390   41.5000    1.4840 N.3   124  VAL124     -0.1231
     58  CA        -1.5560   42.3110    2.3290 C.3   124  VAL124      0.1692
     59  C         -2.2610   43.2580    3.3060 C.2   124  VAL124      0.2592
     60  O         -1.9710   43.2070    4.5130 O.2   124  VAL124     -0.2718
     61  CB        -0.5630   43.1470    1.4990 C.3   124  VAL124      0.0266
     62  CG1        0.2820   44.0200    2.4490 C.3   124  VAL124      0.0020
     63  CG2        0.4190   42.2320    0.7160 C.3   124  VAL124      0.0020
     64  N         -3.1420   44.1250    2.8120 N.am  125  ASN125     -0.1974
     65  CA        -3.5880   45.2710    3.6180 C.3   125  ASN125      0.1688
     66  C         -4.8070   45.0500    4.5040 C.2   125  ASN125      0.2292
     67  O         -4.8690   45.6080    5.6000 O.2   125  ASN125     -0.2864
     68  CB        -3.8850   46.4740    2.7230 C.3   125  ASN125      0.1181
     69  CG        -2.6480   47.1420    2.2450 C.2   125  ASN125      0.2629
     70  OD1       -1.5600   46.9030    2.7700 O.2   125  ASN125     -0.2716
     71  ND2       -2.7980   48.0300    1.2630 N.am  125  ASN125     -0.0877
     72  N          0.3500   43.3680   11.9800 N.3   140  PHE140     -0.1241
     73  CA         1.4530   44.1600   12.5200 C.3   140  PHE140      0.1605
     74  C          1.5550   43.9580   14.0370 C.2   140  PHE140      0.2264
     75  O          2.5950   44.2340   14.6020 O.2   140  PHE140     -0.2867
     76  CB         1.3090   45.6430   12.1620 C.3   140  PHE140      0.0534
     77  CG         2.1790   46.0590   10.9900 C.ar  140  PHE140     -0.0203
     78  CD1        3.5360   46.2270   11.1510 C.ar  140  PHE140     -0.0042
     79  CD2        1.6180   46.2540    9.7370 C.ar  140  PHE140     -0.0042
     80  CE1        4.3380   46.5860   10.0790 C.ar  140  PHE140     -0.0003
     81  CE2        2.4140   46.6270    8.6710 C.ar  140  PHE140     -0.0003
     82  CZ         3.7650   46.7890    8.8400 C.ar  140  PHE140     -0.0000
     83  N         -1.4070   50.4870   11.8930 N.3   174  TRP174     -0.1241
     84  CA        -0.2840   49.5500   11.8800 C.3   174  TRP174      0.1605
     85  C          0.7060   49.8210   13.0160 C.2   174  TRP174      0.2264
     86  O          1.2690   48.8990   13.6100 O.2   174  TRP174     -0.2867
     87  CB         0.4440   49.5880   10.5170 C.3   174  TRP174      0.0550
     88  CG         1.1520   50.8990   10.1290 C.ar  174  TRP174      0.0003
     89  CD1        0.5760   52.0360    9.6510 C.ar  174  TRP174      0.0946
     90  CD2        2.5630   51.1550   10.1710 C.ar  174  TRP174      0.0152
     91  NE1        1.5380   52.9910    9.4000 N.ar  174  TRP174     -0.2442
     92  CE2        2.7660   52.4680    9.7140 C.ar  174  TRP174      0.0810
     93  CE3        3.6720   50.3960   10.5540 C.ar  174  TRP174      0.0012
     94  CZ2        4.0230   53.0340    9.6300 C.ar  174  TRP174      0.0191
     95  CZ3        4.9100   50.9640   10.4750 C.ar  174  TRP174      0.0001
     96  CH2        5.0830   52.2640   10.0130 C.ar  174  TRP174      0.0015
     97  N          7.4100   58.6280    9.2110 N.3   200  THR200     -0.1218
     98  CA         8.4590   57.7350    8.7080 C.3   200  THR200      0.1862
     99  C          9.3900   58.4540    7.7280 C.2   200  THR200      0.2287
    100  O          9.6910   57.9400    6.6570 O.2   200  THR200     -0.2866
    101  CB         7.8610   56.5010    8.0140 C.3   200  THR200      0.1770
    102  OG1        6.8000   56.9220    7.1540 O.3   200  THR200     -0.2211
    103  CG2        7.3210   55.4950    9.0490 C.3   200  THR200      0.0375
    104  N         12.7220   52.7070    8.8610 N.3   227  VAL227     -0.1245
    105  CA        13.2880   54.0300    8.6200 C.3   227  VAL227      0.1561
    106  C         14.1970   54.4560    9.7890 C.2   227  VAL227      0.2260
    107  O         15.2820   55.0300    9.6010 O.2   227  VAL227     -0.2867
    108  CB        12.1690   55.0700    8.4090 C.3   227  VAL227      0.0252
    109  CG1       12.7490   56.4750    8.2760 C.3   227  VAL227      0.0019
    110  CG2       11.3710   54.6880    7.1690 C.3   227  VAL227      0.0019
    111  N          9.9960   45.7090   10.9840 N.3   251  TYR251     -0.1241
    112  CA         9.6120   45.2320    9.6500 C.3   251  TYR251      0.1605
    113  C         10.8220   45.3090    8.6870 C.2   251  TYR251      0.2264
    114  O         11.8950   45.8400    9.0300 O.2   251  TYR251     -0.2867
    115  CB         8.3620   46.0030    9.1260 C.3   251  TYR251      0.0534
    116  CG         8.5000   47.4810    8.8560 C.ar  251  TYR251     -0.0201
    117  CD1        8.8850   47.9480    7.5930 C.ar  251  TYR251     -0.0009
    118  CD2        8.2000   48.4190    9.8310 C.ar  251  TYR251     -0.0009
    119  CE1        9.0000   49.2850    7.3320 C.ar  251  TYR251      0.0417
    120  CE2        8.3320   49.7730    9.5820 C.ar  251  TYR251      0.0417
    121  CZ         8.7160   50.2040    8.3330 C.ar  251  TYR251      0.1957
    122  OH         8.8530   51.5470    8.0820 O.3   251  TYR251     -0.2866
    123  N         13.0040   45.8730    5.0470 N.3   252  THR252     -0.1218
    124  CA        13.2480   46.7170    3.8570 C.3   252  THR252      0.1862
    125  C         14.6080   46.3360    3.3040 C.2   252  THR252      0.2287
    126  O         15.3930   45.7190    4.0170 O.2   252  THR252     -0.2866
    127  CB        13.2960   48.1900    4.1640 C.3   252  THR252      0.1770
    128  OG1       14.4050   48.4360    5.0250 O.3   252  THR252     -0.2211
    129  CG2       11.9970   48.6880    4.8090 C.3   252  THR252      0.0375
    130  N          7.8950   39.4840    6.9600 N.3   269  ASP269     -0.1239
    131  CA         6.5190   38.9810    6.7160 C.3   269  ASP269      0.1674
    132  C          6.4140   38.2250    5.4050 C.2   269  ASP269      0.2266
    133  O          5.3240   37.7780    5.0200 O.2   269  ASP269     -0.2867
    134  CB         5.4780   40.1090    6.7540 C.3   269  ASP269      0.1410
    135  CG         5.5100   41.0270    5.5340 C.2   269  ASP269      0.3668
    136  OD1        6.5090   41.0560    4.8080 O.co2 269  ASP269     -0.2456
    137  OD2        4.5310   41.7650    5.3550 O.co2 269  ASP269     -0.2456
@<TRIPOS>BOND
     1     3     2    1
     2     3     4    2
     3     2     1    1
     4     2     5    1
     5    34    33    2
     6     5     6    1
     7    33    32    1
     8    14    13    2
     9     6     7   ar
    10     6     8   ar
    11    11    12    1
    12     7     9   ar
    13    35    32    1
    14    35    36    1
    15    32    31    1
    16    13    12    1
    17    12    15    1
    18    41    43   ar
    19    41    38   ar
    20     8    10   ar
    21     9    10   ar
    22    36    38   ar
    23    36    37   ar
    24    43    44   ar
    25    31    21   am
    26    45    46    1
    27    38    40   ar
    28    22    21    2
    29    17    16   ar
    30    21    20    1
    31    15    16    1
    32    37    39   ar
    33    46    47    1
    34    46    49    1
    35    47    48    2
    36    44    42   ar
    37    19    20    1
    38    16    18   ar
    39    40    42   ar
    40    40    39   ar
    41    20    23    1
    42    49    50    1
    43    50    51   ar
    44    50    52   ar
    45    51    53   ar
    46    52    54   ar
    47    53    55   ar
    48    63    61    1
    49    23    24    1
    50    54    55   ar
    51    55    56    1
    52    25    24   ar
    53    25    27   ar
    54    71    69   am
    55    24    26   ar
    56    57    58    1
    57    61    58    1
    58    61    62    1
    59    27    29   ar
    60    69    68    1
    61    69    70    2
    62    58    59    1
    63    26    28   ar
    64    68    65    1
    65    29    28   ar
    66    29    30    1
    67    64    59   am
    68    64    65    1
    69   125   124    1
    70   125   126    2
    71    59    60    2
    72    65    66    1
    73   124   127    1
    74   124   123    1
    75   127   129    1
    76   127   128    1
    77    66    67    2
    78   136   135   ar
    79   133   132    2
    80   137   135   ar
    81   132   131    1
    82   135   134    1
    83   100    99    2
    84   131   134    1
    85   131   130    1
    86   102   101    1
    87   110   108    1
    88   119   117   ar
    89   119   121   ar
    90   117   116   ar
    91    99    98    1
    92   101    98    1
    93   101   103    1
    94   122   121    1
    95   109   108    1
    96   121   120   ar
    97   108   105    1
    98   105   104    1
    99   105   106    1
   100    81    82   ar
   101    81    79   ar
   102   113   114    2
   103   113   112    1
   104    98    97    1
   105    82    80   ar
   106   116   115    1
   107   116   118   ar
   108   115   112    1
   109    91    89   ar
   110    91    92   ar
   111   120   118   ar
   112   107   106    2
   113    94    92   ar
   114    94    96   ar
   115   112   111    1
   116    89    88   ar
   117    92    90   ar
   118    79    77   ar
   119    96    95   ar
   120    80    78   ar
   121    88    90   ar
   122    88    87    1
   123    90    93   ar
   124    95    93   ar
   125    87    84    1
   126    77    78   ar
   127    77    76    1
   128    84    83    1
   129    84    85    1
   130    72    73    1
   131    76    73    1
   132    73    74    1
   133    85    86    2
   134    74    75    2
