@<TRIPOS>MOLECULE
tmp/4yhtA00.pdb
 185 177 0 0 0
SMALL
GASTEIGER

@<TRIPOS>ATOM
      1  N         -9.2480  -17.7510  -45.3550 N.3    15  ILE15      -0.1231
      2  CA       -10.0080  -17.3380  -44.1890 C.3    15  ILE15       0.1692
      3  C         -9.1190  -16.6470  -43.1660 C.2    15  ILE15       0.2593
      4  O         -9.5380  -15.6970  -42.5030 O.2    15  ILE15      -0.2718
      5  CB       -10.7820  -18.5370  -43.5960 C.3    15  ILE15       0.0266
      6  CG1      -12.0050  -18.8590  -44.4650 C.3    15  ILE15       0.0019
      7  CG2      -11.2170  -18.2930  -42.1570 C.3    15  ILE15       0.0020
      8  CD1      -12.6980  -17.6500  -45.0750 C.3    15  ILE15       0.0001
      9  N         -7.8820  -17.1120  -43.0620 N.am   16  GLY16      -0.1942
     10  CA        -6.9360  -16.5420  -42.1200 C.3    16  GLY16       0.2014
     11  C         -5.8170  -17.5070  -41.8230 C.2    16  GLY16       0.2640
     12  O         -5.5320  -18.4130  -42.6170 O.2    16  GLY16      -0.2714
     13  N         -5.1890  -17.3150  -40.6680 N.am   17  SER17      -0.1935
     14  CA        -4.0570  -18.1300  -40.2750 C.3    17  SER17       0.2055
     15  C         -4.3960  -19.0310  -39.0900 C.2    17  SER17       0.2643
     16  O         -5.1370  -18.6360  -38.1810 O.2    17  SER17      -0.2714
     17  CB        -2.8600  -17.2360  -39.9490 C.3    17  SER17       0.2130
     18  OG        -1.6470  -17.9550  -40.0820 O.3    17  SER17      -0.2179
     19  N         -3.8590  -20.2470  -39.1150 N.am   18  GLY18      -0.1954
     20  CA        -3.9780  -21.1630  -37.9890 C.3    18  GLY18       0.1869
     21  C         -2.6180  -21.4260  -37.3830 C.2    18  GLY18       0.2309
     22  O         -1.6610  -20.7150  -37.6750 O.2    18  GLY18      -0.2863
     23  N         -5.5220  -21.1070  -43.4060 N.3    23  VAL23      -0.1245
     24  CA        -6.8570  -21.6810  -43.4140 C.3    23  VAL23       0.1561
     25  C         -7.7090  -21.0650  -44.5130 C.2    23  VAL23       0.2260
     26  O         -7.7780  -19.8450  -44.6370 O.2    23  VAL23      -0.2867
     27  CB        -7.5370  -21.5390  -42.0360 C.3    23  VAL23       0.0252
     28  CG1       -8.9110  -22.1880  -42.0350 C.3    23  VAL23       0.0019
     29  CG2       -6.6670  -22.1710  -40.9630 C.3    23  VAL23       0.0019
     30  N        -13.4600  -26.6500  -44.0240 N.3    33  ALA33      -0.1231
     31  CA       -12.3300  -25.7700  -43.7550 C.3    33  ALA33       0.1694
     32  C        -11.0780  -26.5780  -44.0040 C.2    33  ALA33       0.2592
     33  O        -11.0180  -27.7770  -43.6750 O.2    33  ALA33      -0.2718
     34  CB       -12.3580  -25.2470  -42.3310 C.3    33  ALA33       0.0304
     35  N        -10.0910  -25.9270  -44.6110 N.am   34  VAL34      -0.1966
     36  CA        -8.8420  -26.5780  -44.9600 C.3    34  VAL34       0.1727
     37  C         -7.6910  -25.7540  -44.4240 C.2    34  VAL34       0.2616
     38  O         -7.5900  -24.5540  -44.6960 O.2    34  VAL34      -0.2715
     39  CB        -8.6690  -26.7350  -46.4880 C.3    34  VAL34       0.0290
     40  CG1       -7.5890  -27.7610  -46.7900 C.3    34  VAL34       0.0023
     41  CG2       -9.9780  -27.1300  -47.1520 C.3    34  VAL34       0.0023
     42  N         -6.8300  -26.3990  -43.6510 N.am   35  LYS35      -0.1977
     43  CA        -5.5900  -25.7800  -43.2220 C.3    35  LYS35       0.1596
     44  C         -4.4680  -26.4420  -43.9850 C.2    35  LYS35       0.2287
     45  O         -4.3810  -27.6670  -44.0120 O.2    35  LYS35      -0.2864
     46  CB        -5.3820  -25.9530  -41.7190 C.3    35  LYS35       0.0298
     47  CG        -4.1950  -25.1740  -41.1790 C.3    35  LYS35       0.0038
     48  CD        -4.2050  -25.0990  -39.6620 C.3    35  LYS35       0.0206
     49  CE        -3.6920  -26.3830  -39.0320 C.3    35  LYS35       0.1093
     50  NZ        -3.7120  -26.2800  -37.5480 N.3    35  LYS35      -0.1314
     51  N         -0.7220  -33.6840  -35.5060 N.3    53  GLU53      -0.1245
     52  CA        -2.0250  -33.0050  -35.4860 C.3    53  GLU53       0.1567
     53  C         -3.1630  -33.9060  -35.9620 C.2    53  GLU53       0.2260
     54  O         -4.2330  -33.9210  -35.3570 O.2    53  GLU53      -0.2867
     55  CB        -1.9850  -31.7240  -36.3100 C.3    53  GLU53       0.0388
     56  CG        -3.2390  -30.8800  -36.1840 C.3    53  GLU53       0.1160
     57  CD        -3.1690  -29.5750  -36.9640 C.2    53  GLU53       0.3649
     58  OE1       -2.0670  -29.1870  -37.4260 O.co2  53  GLU53      -0.2457
     59  OE2       -4.2280  -28.9270  -37.1200 O.co2  53  GLU53      -0.2457
     60  N         -6.4500  -35.2790  -33.9010 N.3    57  LEU57      -0.1245
     61  CA        -7.7770  -35.0750  -34.4930 C.3    57  LEU57       0.1561
     62  C         -8.5990  -36.3550  -34.6550 C.2    57  LEU57       0.2260
     63  O         -9.7570  -36.4060  -34.2510 O.2    57  LEU57      -0.2867
     64  CB        -7.6590  -34.3360  -35.8270 C.3    57  LEU57       0.0270
     65  CG        -7.4790  -32.8210  -35.6840 C.3    57  LEU57       0.0019
     66  CD1       -6.8620  -32.2170  -36.9340 C.3    57  LEU57       0.0001
     67  CD2       -8.7870  -32.1200  -35.3160 C.3    57  LEU57       0.0001
     68  N        -14.7060  -29.3400  -33.4330 N.3    66  LEU66      -0.1245
     69  CA       -14.7680  -29.1350  -34.8890 C.3    66  LEU66       0.1561
     70  C        -14.4190  -30.4430  -35.6240 C.2    66  LEU66       0.2260
     71  O        -13.3680  -31.0440  -35.3790 O.2    66  LEU66      -0.2867
     72  CB       -13.8360  -27.9930  -35.3120 C.3    66  LEU66       0.0270
     73  CG       -13.9160  -27.4770  -36.7480 C.3    66  LEU66       0.0019
     74  CD1      -15.2550  -26.8110  -37.0330 C.3    66  LEU66       0.0001
     75  CD2      -12.7690  -26.5090  -37.0110 C.3    66  LEU66       0.0001
     76  N         -5.1070  -30.2810  -43.7810 N.3    79  ILE79      -0.1245
     77  CA        -6.0730  -30.8480  -42.8480 C.3    79  ILE79       0.1561
     78  C         -7.4690  -30.3320  -43.1670 C.2    79  ILE79       0.2260
     79  O         -7.6750  -29.1260  -43.3100 O.2    79  ILE79      -0.2867
     80  CB        -5.6970  -30.5280  -41.3920 C.3    79  ILE79       0.0252
     81  CG1       -4.5090  -31.3850  -40.9790 C.3    79  ILE79       0.0019
     82  CG2       -6.8460  -30.8570  -40.4590 C.3    79  ILE79       0.0019
     83  CD1       -3.5190  -30.6590  -40.1090 C.3    79  ILE79       0.0001
     84  N        -11.4160  -30.0930  -42.0300 N.3    81  THR81      -0.1203
     85  CA       -12.4910  -30.1860  -41.0330 C.3    81  THR81       0.1994
     86  C        -13.7820  -29.6770  -41.6410 C.2    81  THR81       0.2618
     87  O        -13.7560  -29.0210  -42.6850 O.2    81  THR81      -0.2717
     88  CB       -12.1980  -29.3510  -39.7550 C.3    81  THR81       0.1784
     89  OG1      -12.2290  -27.9380  -40.0470 O.3    81  THR81      -0.2211
     90  CG2      -10.8430  -29.7480  -39.1240 C.3    81  THR81       0.0376
     91  N        -14.9030  -29.9650  -40.9920 N.am   82  GLN82      -0.1965
     92  CA       -16.1780  -29.3700  -41.3820 C.3    82  GLN82       0.1733
     93  C        -16.0570  -27.8370  -41.4580 C.2    82  GLN82       0.2616
     94  O        -15.2010  -27.2330  -40.8020 O.2    82  GLN82      -0.2715
     95  CB       -17.2940  -29.7840  -40.4060 C.3    82  GLN82       0.0408
     96  CG       -17.2480  -29.1040  -39.0320 C.3    82  GLN82       0.0908
     97  CD       -18.3620  -29.5400  -38.0890 C.2    82  GLN82       0.2608
     98  OE1      -18.1260  -29.7580  -36.9010 O.2    82  GLN82      -0.2717
     99  NE2      -19.5860  -29.6630  -38.6130 N.am   82  GLN82      -0.0878
    100  N        -16.8950  -27.2130  -42.2730 N.am   83  TRP83      -0.1960
    101  CA       -17.0110  -25.7700  -42.2300 C.3    83  TRP83       0.1771
    102  C        -18.0760  -25.3760  -41.2250 C.2    83  TRP83       0.2619
    103  O        -19.1900  -25.8970  -41.2560 O.2    83  TRP83      -0.2715
    104  CB       -17.3850  -25.1970  -43.5880 C.3    83  TRP83       0.0590
    105  CG       -17.6710  -23.7380  -43.5120 C.ar   83  TRP83       0.0006
    106  CD1      -18.8990  -23.1390  -43.5190 C.ar   83  TRP83       0.0946
    107  CD2      -16.7070  -22.6870  -43.3710 C.ar   83  TRP83       0.0152
    108  NE1      -18.7580  -21.7730  -43.4040 N.ar   83  TRP83      -0.2442
    109  CE2      -17.4240  -21.4680  -43.3130 C.ar   83  TRP83       0.0810
    110  CE3      -15.3060  -22.6560  -43.3010 C.ar   83  TRP83       0.0012
    111  CZ2      -16.7840  -20.2260  -43.1970 C.ar   83  TRP83       0.0191
    112  CZ3      -14.6710  -21.4220  -43.1860 C.ar   83  TRP83       0.0001
    113  CH2      -15.4120  -20.2240  -43.1370 C.ar   83  TRP83       0.0015
    114  N        -17.7410  -24.4370  -40.3520 N.am   84  CYS84      -0.1968
    115  CA       -18.6770  -23.9680  -39.3530 C.3    84  CYS84       0.1712
    116  C        -19.3540  -22.7050  -39.8490 C.2    84  CYS84       0.2296
    117  O        -18.7050  -21.6880  -40.0730 O.2    84  CYS84      -0.2864
    118  CB       -17.9670  -23.7420  -38.0100 C.3    84  CYS84       0.0983
    119  SG       -18.9540  -22.9040  -36.7380 S.3    84  CYS84      -0.0798
    120  N        -20.6220  -19.7520  -39.4090 N.3    86  GLY86      -0.1210
    121  CA       -20.6340  -18.6560  -38.4440 C.3    86  GLY86       0.1956
    122  C        -19.2490  -18.1050  -38.1740 C.2    86  GLY86       0.2613
    123  O        -18.3050  -18.4050  -38.9070 O.2    86  GLY86      -0.2717
    124  N        -19.1240  -17.3030  -37.1150 N.am   87  SER87      -0.1938
    125  CA       -17.8520  -16.6480  -36.7810 C.3    87  SER87       0.2055
    126  C        -17.2070  -17.2330  -35.5440 C.2    87  SER87       0.2643
    127  O        -17.8680  -17.9010  -34.7450 O.2    87  SER87      -0.2714
    128  CB       -18.0560  -15.1520  -36.5650 C.3    87  SER87       0.2130
    129  OG       -18.7640  -14.5990  -37.6530 O.3    87  SER87      -0.2179
    130  N        -15.9100  -16.9670  -35.3900 N.am   88  SER88      -0.1949
    131  CA       -15.2050  -17.3070  -34.1660 C.3    88  SER88       0.1924
    132  C        -15.7620  -16.4900  -33.0110 C.2    88  SER88       0.2314
    133  O        -16.2250  -15.3610  -33.2020 O.2    88  SER88      -0.2863
    134  CB       -13.7200  -17.0260  -34.3160 C.3    88  SER88       0.2116
    135  OG       -13.4840  -15.6440  -34.2180 O.3    88  SER88      -0.2180
    136  N        -10.4290  -17.4040  -30.4600 N.3   132  ASN132     -0.1225
    137  CA       -10.1310  -17.4780  -31.8870 C.3   132  ASN132      0.1785
    138  C        -10.3140  -18.8700  -32.4530 C.2   132  ASN132      0.2597
    139  O        -10.4520  -19.0430  -33.6670 O.2   132  ASN132     -0.2718
    140  CB        -8.6950  -17.0460  -32.1360 C.3   132  ASN132      0.1169
    141  CG        -8.5100  -15.5710  -31.9470 C.2   132  ASN132      0.2627
    142  OD1       -9.1870  -14.7750  -32.6020 O.2   132  ASN132     -0.2716
    143  ND2       -7.6020  -15.1870  -31.0460 N.am  132  ASN132     -0.0877
    144  N        -10.2870  -19.8580  -31.5630 N.am  133  ASN133     -0.1974
    145  CA       -10.3830  -21.2490  -31.9440 C.3   133  ASN133      0.1688
    146  C        -11.7160  -21.8530  -31.5410 C.2   133  ASN133      0.2292
    147  O        -11.9220  -23.0680  -31.6150 O.2   133  ASN133     -0.2864
    148  CB        -9.2160  -22.0080  -31.3420 C.3   133  ASN133      0.1181
    149  CG        -7.8830  -21.5070  -31.8630 C.2   133  ASN133      0.2629
    150  OD1       -7.8050  -20.9470  -32.9660 O.2   133  ASN133     -0.2716
    151  ND2       -6.8230  -21.6960  -31.0740 N.am  133  ASN133     -0.0877
    152  N        -15.6550  -21.6190  -32.5190 N.3   135  PHE135     -0.1241
    153  CA       -16.5080  -21.1860  -33.6110 C.3   135  PHE135      0.1605
    154  C        -17.9390  -21.5410  -33.3100 C.2   135  PHE135      0.2264
    155  O        -18.2310  -22.6410  -32.8360 O.2   135  PHE135     -0.2867
    156  CB       -16.0710  -21.8460  -34.9090 C.3   135  PHE135      0.0534
    157  CG       -14.5930  -21.7920  -35.1350 C.ar  135  PHE135     -0.0203
    158  CD1      -13.8020  -22.9100  -34.9040 C.ar  135  PHE135     -0.0042
    159  CD2      -13.9860  -20.6130  -35.5480 C.ar  135  PHE135     -0.0042
    160  CE1      -12.4300  -22.8630  -35.0960 C.ar  135  PHE135     -0.0003
    161  CE2      -12.6150  -20.5550  -35.7390 C.ar  135  PHE135     -0.0003
    162  CZ       -11.8340  -21.6830  -35.5070 C.ar  135  PHE135     -0.0000
    163  N        -11.6710  -25.6760  -32.2660 N.3   145  GLY145     -0.1210
    164  CA       -10.8280  -25.9950  -33.4090 C.3   145  GLY145      0.1956
    165  C         -9.3480  -25.7300  -33.2250 C.2   145  GLY145      0.2612
    166  O         -8.9030  -25.3620  -32.1490 O.2   145  GLY145     -0.2717
    167  N         -8.5980  -25.9390  -34.3000 N.am  146  ASP146     -0.1959
    168  CA        -7.1550  -25.7230  -34.3730 C.3   146  ASP146      0.1840
    169  C         -6.3550  -26.5600  -33.3860 C.2   146  ASP146      0.2622
    170  O         -6.0440  -26.1310  -32.2660 O.2   146  ASP146     -0.2715
    171  CB        -6.7930  -24.2430  -34.2690 C.3   146  ASP146      0.1450
    172  CG        -5.5550  -23.9000  -35.0670 C.2   146  ASP146      0.3671
    173  OD1       -4.7360  -24.8110  -35.3490 O.co2 146  ASP146     -0.2456
    174  OD2       -5.4090  -22.7110  -35.4210 O.co2 146  ASP146     -0.2456
    175  N         -5.9970  -27.7530  -33.8310 N.am  147  PHE147     -0.1974
    176  CA        -5.2870  -28.6870  -32.9870 C.3   147  PHE147      0.1639
    177  C         -3.7920  -28.7380  -33.2930 C.2   147  PHE147      0.2290
    178  O         -3.0900  -29.6540  -32.8670 O.2   147  PHE147     -0.2864
    179  CB        -5.9760  -30.0530  -33.0630 C.3   147  PHE147      0.0560
    180  CG        -7.2280  -30.1330  -32.2200 C.ar  147  PHE147     -0.0200
    181  CD1       -7.2420  -30.8540  -31.0260 C.ar  147  PHE147     -0.0042
    182  CD2       -8.3780  -29.4400  -32.5890 C.ar  147  PHE147     -0.0042
    183  CE1       -8.3780  -30.9050  -30.2410 C.ar  147  PHE147     -0.0003
    184  CE2       -9.5210  -29.4880  -31.8000 C.ar  147  PHE147     -0.0003
    185  CZ        -9.5170  -30.2250  -30.6300 C.ar  147  PHE147     -0.0000
@<TRIPOS>BOND
     1    41    39    1
     2    40    39    1
     3    39    36    1
     4     1     2    1
     5     8     6    1
     6    36    35    1
     7    36    37    1
     8    38    37    2
     9    26    25    2
    10    35    32   am
    11    25    24    1
    12     6     5    1
    13    37    42   am
    14     2     5    1
    15     2     3    1
    16    30    31    1
    17    45    44    2
    18    32    31    1
    19    32    33    2
    20    44    43    1
    21    76    77    1
    22    31    34    1
    23    42    43    1
    24     5     7    1
    25   104   105    1
    26   104   101    1
    27   106   105   ar
    28   106   108   ar
    29   105   107   ar
    30    24    23    1
    31    24    27    1
    32   108   109   ar
    33   107   109   ar
    34   107   110   ar
    35   109   111   ar
    36    79    78    2
    37   110   112   ar
    38    43    46    1
    39   111   113   ar
    40   112   113   ar
    41    78    77    1
    42     3     9   am
    43     3     4    2
    44     9    10    1
    45    77    80    1
    46    87    86    2
    47    12    11    2
    48   100   101    1
    49   100    93   am
    50   101   102    1
    51    10    11    1
    52    27    28    1
    53    27    29    1
    54    84    85    1
    55    11    13   am
    56    46    47    1
    57    86    85    1
    58    86    91   am
    59    93    92    1
    60    93    94    2
    61    80    81    1
    62    80    82    1
    63    92    91    1
    64    92    95    1
    65   103   102    2
    66   102   114   am
    67    47    48    1
    68    85    88    1
    69    81    83    1
    70    13    14    1
    71    95    96    1
    72   114   115    1
    73    14    17    1
    74    14    15    1
    75    18    17    1
    76   117   116    2
    77    89    88    1
    78   116   115    1
    79    88    90    1
    80    48    49    1
    81   120   121    1
    82   115   118    1
    83    19    15   am
    84    19    20    1
    85    15    16    2
    86    96    97    1
    87    49    50    1
    88   123   122    2
    89    99    97   am
    90   121   122    1
    91   122   124   am
    92    97    98    2
    93   118   119    1
    94    20    21    1
    95    22    21    2
    96   129   128    1
    97    58    57   ar
    98    59    57   ar
    99   124   125    1
   100    74    73    1
   101    75    73    1
   102    57    56    1
   103    66    65    1
   104   125   128    1
   105   125   126    1
   106    73    72    1
   107    55    56    1
   108    55    52    1
   109    53    52    1
   110    53    54    2
   111    64    65    1
   112    64    61    1
   113   161   159   ar
   114   161   162   ar
   115    65    67    1
   116    70    71    2
   117    70    69    1
   118   159   157   ar
   119   126   130   am
   120   126   127    2
   121   162   160   ar
   122    51    52    1
   123   174   172   ar
   124   130   131    1
   125   173   172   ar
   126    72    69    1
   127   157   156    1
   128   157   158   ar
   129   160   158   ar
   130   172   171    1
   131   156   153    1
   132    69    68    1
   133    62    61    1
   134    62    63    2
   135    61    60    1
   136   168   167    1
   137   168   171    1
   138   168   169    1
   139   134   135    1
   140   134   131    1
   141   167   165   am
   142   131   132    1
   143   175   169   am
   144   175   176    1
   145   139   138    2
   146   153   154    1
   147   153   152    1
   148   164   165    1
   149   164   163    1
   150   169   170    2
   151   154   155    2
   152   177   176    1
   153   177   178    2
   154   165   166    2
   155   133   132    2
   156   179   176    1
   157   179   180    1
   158   150   149    2
   159   142   141    2
   160   182   180   ar
   161   182   184   ar
   162   138   137    1
   163   138   144   am
   164   180   181   ar
   165   140   141    1
   166   140   137    1
   167   141   143   am
   168   145   144    1
   169   145   146    1
   170   145   148    1
   171   137   136    1
   172   149   148    1
   173   149   151   am
   174   184   185   ar
   175   147   146    2
   176   181   183   ar
   177   185   183   ar
