@<TRIPOS>MOLECULE
tmp/4yi3A02.pdb
 111 105 0 0 0
SMALL
GASTEIGER

@<TRIPOS>ATOM
      1  N         20.3920    1.2870   49.2630 N.3    57  ILE57      -0.1245
      2  CA        21.0420    0.3800   50.2200 C.3    57  ILE57       0.1561
      3  C         21.4150   -0.9480   49.5440 C.2    57  ILE57       0.2260
      4  O         22.5400   -1.4340   49.6980 O.2    57  ILE57      -0.2867
      5  CB        20.1830    0.1590   51.5070 C.3    57  ILE57       0.0252
      6  CG1       20.1100    1.4570   52.3250 C.3    57  ILE57       0.0019
      7  CG2       20.7580   -0.9630   52.3710 C.3    57  ILE57       0.0019
      8  CD1       18.9300    1.5560   53.2760 C.3    57  ILE57       0.0001
      9  N         24.3930   -0.5860   46.9060 N.3    60  GLN60      -0.1231
     10  CA        25.7150   -0.4510   47.5410 C.3    60  GLN60       0.1698
     11  C         26.1560   -1.7680   48.1960 C.2    60  GLN60       0.2592
     12  O         27.3300   -2.1320   48.1290 O.2    60  GLN60      -0.2718
     13  CB        25.7770    0.7540   48.5090 C.3    60  GLN60       0.0381
     14  CG        25.4590    2.1140   47.8670 C.3    60  GLN60       0.0905
     15  CD        26.3240    2.4560   46.6500 C.2    60  GLN60       0.2608
     16  OE1       27.5420    2.3570   46.6950 O.2    60  GLN60      -0.2717
     17  NE2       25.6820    2.8710   45.5560 N.am   60  GLN60      -0.0878
     18  N         25.1910   -2.4890   48.7700 N.am   61  GLN61      -0.1979
     19  CA        25.3760   -3.8420   49.3170 C.3    61  GLN61       0.1601
     20  C         25.8440   -4.8230   48.2370 C.2    61  GLN61       0.2287
     21  O         26.7630   -5.6070   48.4640 O.2    61  GLN61      -0.2864
     22  CB        24.0470   -4.3260   49.8920 C.3    61  GLN61       0.0394
     23  CG        24.1270   -5.1840   51.1360 C.3    61  GLN61       0.0908
     24  CD        22.7560   -5.3570   51.7680 C.2    61  GLN61       0.2608
     25  OE1       22.4370   -4.7080   52.7680 O.2    61  GLN61      -0.2717
     26  NE2       21.9230   -6.2080   51.1670 N.am   61  GLN61      -0.0878
     27  N         29.4600   -4.2640   47.3890 N.3    64  TYR64      -0.1241
     28  CA        30.2920   -4.8150   48.4610 C.3    64  TYR64       0.1605
     29  C         30.4670   -6.3360   48.3270 C.2    64  TYR64       0.2264
     30  O         31.5690   -6.8460   48.5230 O.2    64  TYR64      -0.2867
     31  CB        29.7460   -4.4310   49.8420 C.3    64  TYR64       0.0534
     32  CG        30.5710   -4.9590   50.9970 C.ar   64  TYR64      -0.0201
     33  CD1       31.8100   -4.3830   51.3260 C.ar   64  TYR64      -0.0009
     34  CD2       30.1190   -6.0450   51.7600 C.ar   64  TYR64      -0.0009
     35  CE1       32.5720   -4.8760   52.3840 C.ar   64  TYR64       0.0417
     36  CE2       30.8720   -6.5450   52.8180 C.ar   64  TYR64       0.0417
     37  CZ        32.0930   -5.9600   53.1270 C.ar   64  TYR64       0.1957
     38  OH        32.8290   -6.4570   54.1770 O.3    64  TYR64      -0.2866
     39  N         35.6520   -0.4760   40.4710 N.3    70  ARG70      -0.1245
     40  CA        34.9230    0.7520   40.7780 C.3    70  ARG70       0.1563
     41  C         35.4680    1.9230   39.9720 C.2    70  ARG70       0.2260
     42  O         36.6780    2.0440   39.7900 O.2    70  ARG70      -0.2867
     43  CB        34.9680    1.0310   42.2780 C.3    70  ARG70       0.0307
     44  CG        34.0800    0.0610   43.0640 C.3    70  ARG70       0.0489
     45  CD        34.2660    0.2240   44.5590 C.3    70  ARG70       0.2205
     46  NE        33.2980   -0.5400   45.3530 N.pl3  70  ARG70      -0.0865
     47  CZ        33.3870   -1.8380   45.6320 C.cat  70  ARG70       0.5346
     48  NH1       32.4580   -2.4050   46.3780 N.pl3  70  ARG70       0.1354
     49  NH2       34.3880   -2.5760   45.1650 N.pl3  70  ARG70       0.1354
     50  N         31.0220    6.2200   41.0940 N.3   144  TYR144     -0.1241
     51  CA        30.8840    7.1960   42.1730 C.3   144  TYR144      0.1605
     52  C         31.3110    8.5410   41.6230 C.2   144  TYR144      0.2264
     53  O         32.3830    8.6350   41.0420 O.2   144  TYR144     -0.2867
     54  CB        31.8190    6.8400   43.3220 C.3   144  TYR144      0.0534
     55  CG        31.6030    5.4800   43.9280 C.ar  144  TYR144     -0.0201
     56  CD1       32.1240    4.3290   43.3180 C.ar  144  TYR144     -0.0009
     57  CD2       30.9110    5.3410   45.1340 C.ar  144  TYR144     -0.0009
     58  CE1       31.9330    3.0730   43.8810 C.ar  144  TYR144      0.0417
     59  CE2       30.7220    4.0920   45.7100 C.ar  144  TYR144      0.0417
     60  CZ        31.2330    2.9660   45.0780 C.ar  144  TYR144      0.1957
     61  OH        31.0570    1.7220   45.6230 O.3   144  TYR144     -0.2866
     62  N         31.7740    9.6580   58.6000 N.3   185  PHE185     -0.1241
     63  CA        32.8140    9.2960   57.6240 C.3   185  PHE185      0.1605
     64  C         33.7430   10.4720   57.2750 C.2   185  PHE185      0.2264
     65  O         34.3790   10.4940   56.2140 O.2   185  PHE185     -0.2867
     66  CB        32.1850    8.6990   56.3560 C.3   185  PHE185      0.0534
     67  CG        31.3530    7.4690   56.6020 C.ar  185  PHE185     -0.0203
     68  CD1       31.7950    6.4570   57.4660 C.ar  185  PHE185     -0.0042
     69  CD2       30.1350    7.3020   55.9450 C.ar  185  PHE185     -0.0042
     70  CE1       31.0200    5.3200   57.6900 C.ar  185  PHE185     -0.0003
     71  CE2       29.3630    6.1600   56.1550 C.ar  185  PHE185     -0.0003
     72  CZ        29.8050    5.1720   57.0290 C.ar  185  PHE185     -0.0000
     73  N         29.1170   11.6810   46.0250 N.3   231  ARG231     -0.1245
     74  CA        29.6050   12.0790   47.3500 C.3   231  ARG231      0.1563
     75  C         30.2820   13.4480   47.2050 C.2   231  ARG231      0.2260
     76  O         31.2360   13.5790   46.4630 O.2   231  ARG231     -0.2867
     77  CB        30.5740   11.0250   47.8910 C.3   231  ARG231      0.0307
     78  CG        31.2240   11.4210   49.2120 C.3   231  ARG231      0.0489
     79  CD        31.7680   10.2230   49.9530 C.3   231  ARG231      0.2205
     80  NE        30.7120    9.4990   50.6550 N.pl3 231  ARG231     -0.0865
     81  CZ        30.9100    8.4330   51.4260 C.cat 231  ARG231      0.5346
     82  NH1       29.8730    7.8530   52.0240 N.pl3 231  ARG231      0.1354
     83  NH2       32.1320    7.9370   51.5970 N.pl3 231  ARG231      0.1354
     84  N         40.4660    3.1830   51.2820 N.3   289  ARG289     -0.1231
     85  CA        39.7080    2.4960   52.3400 C.3   289  ARG289      0.1694
     86  C         38.8410    1.3840   51.7480 C.2   289  ARG289      0.2591
     87  O         38.8810    0.2380   52.2150 O.2   289  ARG289     -0.2718
     88  CB        38.8470    3.4780   53.1570 C.3   289  ARG289      0.0321
     89  CG        37.9520    2.8000   54.2020 C.3   289  ARG289      0.0489
     90  CD        36.8620    3.6990   54.7810 C.3   289  ARG289      0.2205
     91  NE        36.0290    4.3770   53.7750 N.pl3 289  ARG289     -0.0865
     92  CZ        34.9930    3.8460   53.1230 C.cat 289  ARG289      0.5346
     93  NH1       34.3310    4.5910   52.2480 N.pl3 289  ARG289      0.1354
     94  NH2       34.6060    2.5860   53.3270 N.pl3 289  ARG289      0.1354
     95  N         38.0820    1.7420   50.7110 N.am  290  ARG290     -0.1980
     96  CA        37.1960    0.8250   50.0150 C.3   290  ARG290      0.1597
     97  C         37.9590   -0.3230   49.3430 C.2   290  ARG290      0.2287
     98  O         37.4850   -1.4670   49.3620 O.2   290  ARG290     -0.2864
     99  CB        36.3170    1.6000   49.0270 C.3   290  ARG290      0.0334
    100  CG        34.9040    1.0700   48.9070 C.3   290  ARG290      0.0492
    101  CD        34.0560    1.9040   47.9620 C.3   290  ARG290      0.2205
    102  NE        33.2730    2.9260   48.6620 N.pl3 290  ARG290     -0.0865
    103  CZ        33.3750    4.2430   48.4760 C.cat 290  ARG290      0.5346
    104  NH1       32.6080    5.0560   49.1820 N.pl3 290  ARG290      0.1354
    105  NH2       34.2300    4.7610   47.5930 N.pl3 290  ARG290      0.1354
    106  N         39.2720   -2.9200   52.0620 N.3   293  SER293     -0.1217
    107  CA        38.1670   -3.7650   52.5200 C.3   293  SER293      0.1889
    108  C         37.8210   -4.8370   51.4710 C.2   293  SER293      0.2288
    109  O         36.6510   -5.1750   51.2680 O.2   293  SER293     -0.2866
    110  CB        36.9480   -2.9020   52.8660 C.3   293  SER293      0.2089
    111  OG        37.2940   -1.8920   53.7990 O.3   293  SER293     -0.2183
@<TRIPOS>BOND
     1    42    41    2
     2    41    40    1
     3    39    40    1
     4    40    43    1
     5    53    52    2
     6    50    51    1
     7    52    51    1
     8    51    54    1
     9    43    44    1
    10    44    45    1
    11    56    58   ar
    12    56    55   ar
    13    54    55    1
    14    58    60   ar
    15    55    57   ar
    16    45    46    1
    17    60    61    1
    18    60    59   ar
    19    57    59   ar
    20    49    47    1
    21    46    47    2
    22    17    15   am
    23    47    48    1
    24    73    74    1
    25    76    75    2
    26    15    16    2
    27    15    14    1
    28     9    10    1
    29    75    74    1
    30    74    77    1
    31    27    28    1
    32    10    11    1
    33    10    13    1
    34   105   103    1
    35    14    13    1
    36    77    78    1
    37   101   102    1
    38   101   100    1
    39    12    11    2
    40    11    18   am
    41    20    21    2
    42    20    19    1
    43    29    28    1
    44    29    30    2
    45    28    31    1
    46   103   102    2
    47   103   104    1
    48    18    19    1
    49   100    99    1
    50    99    96    1
    51    78    79    1
    52     1     2    1
    53    19    22    1
    54    97    98    2
    55    97    96    1
    56     3     4    2
    57     3     2    1
    58    31    32    1
    59    22    23    1
    60    79    80    1
    61    96    95    1
    62     2     5    1
    63    80    81    2
    64    95    86   am
    65    32    33   ar
    66    32    34   ar
    67    23    24    1
    68    26    24   am
    69   109   108    2
    70    84    85    1
    71    33    35   ar
    72    81    83    1
    73    81    82    1
    74   108   107    1
    75     5     6    1
    76     5     7    1
    77    86    87    2
    78    86    85    1
    79    34    36   ar
    80    24    25    2
    81   106   107    1
    82    93    92    1
    83     6     8    1
    84    85    88    1
    85    35    37   ar
    86   107   110    1
    87    36    37   ar
    88   110   111    1
    89    92    94    1
    90    92    91    2
    91    37    38    1
    92    88    89    1
    93    91    90    1
    94    89    90    1
    95    69    71   ar
    96    69    67   ar
    97    71    72   ar
    98    65    64    2
    99    66    67    1
   100    66    63    1
   101    67    68   ar
   102    72    70   ar
   103    64    63    1
   104    68    70   ar
   105    63    62    1
