@<TRIPOS>MOLECULE
tmp/4yi5A01.pdb
 227 217 0 0 0
SMALL
GASTEIGER

@<TRIPOS>ATOM
      1  N         32.9360   20.1560   39.4160 N.3    77  GLU77      -0.1245
      2  CA        31.6030   20.6640   39.1040 C.3    77  GLU77       0.1567
      3  C         30.6550   19.5240   38.8000 C.2    77  GLU77       0.2260
      4  O         31.0260   18.5760   38.1060 O.2    77  GLU77      -0.2867
      5  CB        31.6380   21.5810   37.8910 C.3    77  GLU77       0.0388
      6  CG        32.6420   22.7100   37.9990 C.3    77  GLU77       0.1160
      7  CD        32.5140   23.7490   36.9340 C.2    77  GLU77       0.3649
      8  OE1       33.3160   24.7130   36.9310 O.co2  77  GLU77      -0.2457
      9  OE2       31.6120   23.6520   36.0990 O.co2  77  GLU77      -0.2457
     10  N         29.3780   25.5180   36.0760 N.3   122  ASN122     -0.1225
     11  CA        29.3870   26.7340   35.2800 C.3   122  ASN122      0.1785
     12  C         28.5970   26.5740   33.9850 C.2   122  ASN122      0.2598
     13  O         27.9000   27.4820   33.5730 O.2   122  ASN122     -0.2718
     14  CB        30.8380   27.1450   34.9560 C.3   122  ASN122      0.1169
     15  CG        31.4710   27.9610   36.0690 C.2   122  ASN122      0.2627
     16  OD1       31.0560   29.1110   36.3070 O.2   122  ASN122     -0.2716
     17  ND2       32.4350   27.3870   36.7700 N.am  122  ASN122     -0.0877
     18  N         28.7370   25.4260   33.3380 N.am  123  GLY123     -0.1942
     19  CA        28.1090   25.1990   32.0420 C.3   123  GLY123      0.2014
     20  C         28.3710   23.7980   31.5960 C.2   123  GLY123      0.2639
     21  O         28.0380   22.8720   32.3190 O.2   123  GLY123     -0.2714
     22  N         29.0120   23.6450   30.4370 N.am  124  GLY124     -0.1939
     23  CA        29.1230   22.3530   29.7300 C.3   124  GLY124      0.2014
     24  C         29.8540   21.2390   30.4670 C.2   124  GLY124      0.2638
     25  O         29.3760   20.1210   30.5340 O.2   124  GLY124     -0.2714
     26  N         31.0110   21.5680   31.0360 N.am  125  LEU125     -0.1977
     27  CA        31.8530   20.6170   31.7630 C.3   125  LEU125      0.1596
     28  C         31.1030   20.0390   32.9740 C.2   125  LEU125      0.2287
     29  O         31.1910   18.8400   33.2550 O.2   125  LEU125     -0.2864
     30  CB        33.1530   21.3200   32.2130 C.3   125  LEU125      0.0297
     31  CG        34.1560   20.6630   33.1520 C.3   125  LEU125      0.0022
     32  CD1       35.5790   21.1900   32.8740 C.3   125  LEU125      0.0001
     33  CD2       33.7790   20.8560   34.6060 C.3   125  LEU125      0.0001
     34  N         28.0780   17.9270   31.7650 N.3   128  LEU128     -0.1245
     35  CA        28.5800   16.6280   31.2620 C.3   128  LEU128      0.1561
     36  C         28.7650   15.6210   32.4010 C.2   128  LEU128      0.2260
     37  O         28.3400   14.4870   32.3130 O.2   128  LEU128     -0.2867
     38  CB        29.9000   16.8210   30.5210 C.3   128  LEU128      0.0270
     39  CG        30.4290   15.5800   29.7720 C.3   128  LEU128      0.0019
     40  CD1       29.6110   15.3260   28.5140 C.3   128  LEU128      0.0001
     41  CD2       31.8970   15.7160   29.4670 C.3   128  LEU128      0.0001
     42  N         33.9410   28.7750   41.9580 N.3   263  TYR263     -0.1241
     43  CA        34.5950   29.7680   41.0830 C.3   263  TYR263      0.1605
     44  C         33.8650   29.8750   39.7270 C.2   263  TYR263      0.2264
     45  O         33.7080   28.8510   39.0490 O.2   263  TYR263     -0.2867
     46  CB        36.0650   29.3920   40.8890 C.3   263  TYR263      0.0534
     47  CG        36.9000   29.9410   42.0200 C.ar  263  TYR263     -0.0201
     48  CD1       36.9500   29.3060   43.2500 C.ar  263  TYR263     -0.0009
     49  CD2       37.5830   31.1550   41.8790 C.ar  263  TYR263     -0.0009
     50  CE1       37.6880   29.8440   44.3030 C.ar  263  TYR263      0.0417
     51  CE2       38.3330   31.6850   42.9180 C.ar  263  TYR263      0.0417
     52  CZ        38.3900   31.0230   44.1140 C.ar  263  TYR263      0.1957
     53  OH        39.1280   31.5760   45.1270 O.3   263  TYR263     -0.2866
     54  N         34.7460   31.7930   36.9910 N.3   265  ASN265     -0.1225
     55  CA        35.5970   32.3850   35.9230 C.3   265  ASN265      0.1785
     56  C         36.0530   31.2960   34.9640 C.2   265  ASN265      0.2597
     57  O         37.1190   30.7130   35.1020 O.2   265  ASN265     -0.2718
     58  CB        36.7600   33.2880   36.4180 C.3   265  ASN265      0.1169
     59  CG        37.5970   32.6800   37.5210 C.2   265  ASN265      0.2627
     60  OD1       38.8370   32.6870   37.4490 O.2   265  ASN265     -0.2716
     61  ND2       36.9430   32.2050   38.5780 N.am  265  ASN265     -0.0877
     62  N         35.1840   31.0090   33.9980 N.am  266  ASP266     -0.1974
     63  CA        35.3820   29.9070   33.0570 C.3   266  ASP266      0.1709
     64  C         36.1070   30.3220   31.7750 C.2   266  ASP266      0.2293
     65  O         36.1720   29.5500   30.8370 O.2   266  ASP266     -0.2864
     66  CB        34.0320   29.2720   32.7010 C.3   266  ASP266      0.1436
     67  CG        33.0820   30.2310   31.9790 C.2   266  ASP266      0.3671
     68  OD1       33.2900   31.4600   31.9980 O.co2 266  ASP266     -0.2456
     69  OD2       32.1100   29.7360   31.3730 O.co2 266  ASP266     -0.2456
     70  N         39.2820   32.4130   31.8200 N.3   268  PHE268     -0.1227
     71  CA        40.6530   32.8500   31.9940 C.3   268  PHE268      0.1736
     72  C         41.1950   32.2470   33.2810 C.2   268  PHE268      0.2595
     73  O         40.6180   32.4330   34.3540 O.2   268  PHE268     -0.2718
     74  CB        40.6730   34.3800   32.0540 C.3   268  PHE268      0.0547
     75  CG        42.0570   34.9700   32.1490 C.ar  268  PHE268     -0.0202
     76  CD1       42.8870   35.0140   31.0300 C.ar  268  PHE268     -0.0042
     77  CD2       42.5290   35.4910   33.3520 C.ar  268  PHE268     -0.0042
     78  CE1       44.1670   35.5580   31.1110 C.ar  268  PHE268     -0.0003
     79  CE2       43.8060   36.0340   33.4380 C.ar  268  PHE268     -0.0003
     80  CZ        44.6240   36.0690   32.3160 C.ar  268  PHE268     -0.0000
     81  N         42.2900   31.5110   33.1820 N.am  269  PHE269     -0.1962
     82  CA        42.8960   30.9900   34.3960 C.3   269  PHE269      0.1771
     83  C         43.5090   32.1000   35.2730 C.2   269  PHE269      0.2619
     84  O         44.3190   32.9060   34.8130 O.2   269  PHE269     -0.2715
     85  CB        43.9240   29.8930   34.1090 C.3   269  PHE269      0.0574
     86  CG        44.5570   29.3610   35.3630 C.ar  269  PHE269     -0.0200
     87  CD1       43.8080   28.6140   36.2470 C.ar  269  PHE269     -0.0042
     88  CD2       45.8600   29.6930   35.7090 C.ar  269  PHE269     -0.0042
     89  CE1       44.3560   28.1480   37.4390 C.ar  269  PHE269     -0.0003
     90  CE2       46.4110   29.2420   36.8960 C.ar  269  PHE269     -0.0003
     91  CZ        45.6640   28.4660   37.7630 C.ar  269  PHE269     -0.0000
     92  N         43.0960   32.1090   36.5360 N.am  270  GLU270     -0.1977
     93  CA        43.6260   32.9800   37.5660 C.3   270  GLU270      0.1602
     94  C         44.0270   32.0870   38.7450 C.2   270  GLU270      0.2287
     95  O         43.1830   31.3940   39.3070 O.2   270  GLU270     -0.2864
     96  CB        42.5310   33.9520   37.9820 C.3   270  GLU270      0.0415
     97  CG        43.0160   35.2340   38.6220 C.3   270  GLU270      0.1163
     98  CD        41.8910   36.2400   38.8030 C.2   270  GLU270      0.3649
     99  OE1       42.1420   37.4460   38.5980 O.co2 270  GLU270     -0.2457
    100  OE2       40.7570   35.8240   39.1450 O.co2 270  GLU270     -0.2457
    101  N         41.2160   28.4630   45.4190 N.3   275  ARG275     -0.1245
    102  CA        40.8470   27.4640   44.3990 C.3   275  ARG275      0.1563
    103  C         41.7880   26.2880   44.4640 C.2   275  ARG275      0.2260
    104  O         41.3640   25.1620   44.3110 O.2   275  ARG275     -0.2867
    105  CB        40.8250   28.0680   42.9970 C.3   275  ARG275      0.0307
    106  CG        40.6310   27.0600   41.8790 C.3   275  ARG275      0.0489
    107  CD        39.3370   26.2700   41.9600 C.3   275  ARG275      0.2205
    108  NE        39.2770   25.3850   40.8010 N.pl3 275  ARG275     -0.0865
    109  CZ        38.2000   25.0850   40.0760 C.cat 275  ARG275      0.5346
    110  NH1       37.0080   25.5960   40.3310 N.pl3 275  ARG275      0.1354
    111  NH2       38.3390   24.2720   39.0320 N.pl3 275  ARG275      0.1354
    112  N         38.9200   17.3010   33.3780 N.3   312  ASP312     -0.1239
    113  CA        39.8310   18.4300   33.1740 C.3   312  ASP312      0.1674
    114  C         41.0100   18.3240   34.1470 C.2   312  ASP312      0.2266
    115  O         41.1900   17.2920   34.7810 O.2   312  ASP312     -0.2867
    116  CB        39.0980   19.7840   33.2730 C.3   312  ASP312      0.1410
    117  CG        39.6710   20.8220   32.3490 C.2   312  ASP312      0.3668
    118  OD1       40.9190   20.9420   32.3040 O.co2 312  ASP312     -0.2456
    119  OD2       38.8810   21.5360   31.7090 O.co2 312  ASP312     -0.2456
    120  N         41.3950   19.9910   36.8080 N.3   314  HIS314     -0.1241
    121  CA        41.0310   20.5010   38.1360 C.3   314  HIS314      0.1621
    122  C         41.3510   19.5310   39.2890 C.2   314  HIS314      0.2264
    123  O         41.7390   20.0070   40.3410 O.2   314  HIS314     -0.2867
    124  CB        39.5710   20.9870   38.2010 C.3   314  HIS314      0.0745
    125  CG        39.1620   21.8480   37.0530 C.ar  314  HIS314      0.0817
    126  ND1       37.8670   21.8880   36.5810 N.ar  314  HIS314     -0.2268
    127  CD2       39.8760   22.6770   36.2650 C.ar  314  HIS314      0.1154
    128  CE1       37.8010   22.7240   35.5590 C.ar  314  HIS314      0.1986
    129  NE2       39.0090   23.2140   35.3480 N.ar  314  HIS314     -0.2212
    130  N         39.1340   19.5380   27.9050 N.3   350  HIS350     -0.1226
    131  CA        37.9600   20.2920   27.4420 C.3   350  HIS350      0.1752
    132  C         38.2010   21.6210   26.6920 C.2   350  HIS350      0.2596
    133  O         37.2420   22.2390   26.3030 O.2   350  HIS350     -0.2718
    134  CB        37.0390   20.6070   28.6280 C.3   350  HIS350      0.0759
    135  CG        36.5500   19.4000   29.3580 C.ar  350  HIS350      0.0818
    136  ND1       35.3840   18.7520   29.0250 N.ar  350  HIS350     -0.2268
    137  CD2       37.0690   18.7250   30.4080 C.ar  350  HIS350      0.1154
    138  CE1       35.2020   17.7320   29.8380 C.ar  350  HIS350      0.1986
    139  NE2       36.2220   17.6790   30.6740 N.ar  350  HIS350     -0.2212
    140  N         39.4320   22.1010   26.5130 N.am  351  THR351     -0.1953
    141  CA        39.6150   23.3340   25.7120 C.3   351  THR351      0.1897
    142  C         41.0130   23.4000   25.1920 C.2   351  THR351      0.2313
    143  O         41.9270   22.9180   25.8520 O.2   351  THR351     -0.2863
    144  CB        39.2520   24.6630   26.4780 C.3   351  THR351      0.1794
    145  OG1       39.3680   25.8220   25.6140 O.3   351  THR351     -0.2208
    146  CG2       40.1210   24.8620   27.7210 C.3   351  THR351      0.0378
    147  N         43.0310   29.3760   29.1650 N.3   356  ALA356     -0.1245
    148  CA        42.2190   28.5410   30.0430 C.3   356  ALA356      0.1562
    149  C         43.0040   27.4450   30.8050 C.2   356  ALA356      0.2260
    150  O         42.4890   26.8900   31.7810 O.2   356  ALA356     -0.2867
    151  CB        41.0860   27.9040   29.2350 C.3   356  ALA356      0.0290
    152  N         45.3220   25.4010   33.3270 N.3   358  GLU358     -0.1245
    153  CA        45.7830   25.6470   34.6920 C.3   358  GLU358      0.1567
    154  C         47.2810   25.5290   34.7410 C.2   358  GLU358      0.2260
    155  O         47.8090   24.4780   34.4740 O.2   358  GLU358     -0.2867
    156  CB        45.1980   24.6320   35.6790 C.3   358  GLU358      0.0388
    157  CG        43.7210   24.8060   35.9170 C.3   358  GLU358      0.1160
    158  CD        43.2750   23.9990   37.1250 C.2   358  GLU358      0.3649
    159  OE1       43.2380   22.7550   37.0170 O.co2 358  GLU358     -0.2457
    160  OE2       42.9800   24.6250   38.1710 O.co2 358  GLU358     -0.2457
    161  N         36.9400   15.5420   23.4310 N.3   428  VAL428     -0.1245
    162  CA        35.5110   15.3760   23.6650 C.3   428  VAL428      0.1561
    163  C         34.6900   15.4560   22.3810 C.2   428  VAL428      0.2260
    164  O         33.4680   15.4540   22.4240 O.2   428  VAL428     -0.2867
    165  CB        35.0330   16.3570   24.7540 C.3   428  VAL428      0.0252
    166  CG1       35.6000   15.9280   26.1120 C.3   428  VAL428      0.0019
    167  CG2       35.4230   17.8060   24.4600 C.3   428  VAL428      0.0019
    168  N         31.3150   13.6880   23.1310 N.3   457  ASN457     -0.1240
    169  CA        30.3600   13.9630   24.2100 C.3   457  ASN457      0.1653
    170  C         28.9480   13.5100   23.8540 C.2   457  ASN457      0.2266
    171  O         28.6460   13.1890   22.7030 O.2   457  ASN457     -0.2867
    172  CB        30.3330   15.4570   24.5700 C.3   457  ASN457      0.1155
    173  CG        31.4930   15.9020   25.4700 C.2   457  ASN457      0.2627
    174  OD1       31.7250   17.1180   25.6200 O.2   457  ASN457     -0.2716
    175  ND2       32.1930   14.9750   26.0880 N.am  457  ASN457     -0.0877
    176  N         34.7290   33.5580   22.0500 N.3   546  TYR546     -0.1227
    177  CA        34.8780   32.4830   21.0740 C.3   546  TYR546      0.1736
    178  C         33.5230   31.9120   20.5820 C.2   546  TYR546      0.2595
    179  O         33.4350   31.4240   19.4520 O.2   546  TYR546     -0.2718
    180  CB        35.8180   31.3770   21.5640 C.3   546  TYR546      0.0548
    181  CG        35.2290   30.2820   22.4510 C.ar  546  TYR546     -0.0200
    182  CD1       34.6060   29.1610   21.9020 C.ar  546  TYR546     -0.0009
    183  CD2       35.3300   30.3510   23.8320 C.ar  546  TYR546     -0.0009
    184  CE1       34.1040   28.1500   22.7080 C.ar  546  TYR546      0.0417
    185  CE2       34.8010   29.3460   24.6540 C.ar  546  TYR546      0.0417
    186  CZ        34.2170   28.2370   24.0920 C.ar  546  TYR546      0.1957
    187  OH        33.7030   27.2210   24.8830 O.3   546  TYR546     -0.2866
    188  N         32.4910   31.9730   21.4360 N.am  547  LYS547     -0.1980
    189  CA        31.1490   31.5100   21.0840 C.3   547  LYS547      0.1596
    190  C         30.4150   32.4720   20.1310 C.2   547  LYS547      0.2287
    191  O         29.3890   32.1150   19.5250 O.2   547  LYS547     -0.2864
    192  CB        30.3250   31.2740   22.3600 C.3   547  LYS547      0.0298
    193  CG        30.8190   30.0760   23.1510 C.3   547  LYS547      0.0038
    194  CD        30.1940   30.0430   24.5340 C.3   547  LYS547      0.0206
    195  CE        30.7210   28.9470   25.4440 C.3   547  LYS547      0.1093
    196  NZ        30.2140   27.5980   25.0590 N.3   547  LYS547     -0.1314
    197  N         35.4750   25.6140   19.9570 N.3   645  GLU645     -0.1231
    198  CA        34.5240   24.9340   20.8500 C.3   645  GLU645      0.1699
    199  C         34.8880   23.4670   20.8630 C.2   645  GLU645      0.2592
    200  O         34.6870   22.7990   19.8680 O.2   645  GLU645     -0.2718
    201  CB        33.0690   25.1290   20.3870 C.3   645  GLU645      0.0402
    202  CG        32.0230   24.6290   21.3850 C.3   645  GLU645      0.1161
    203  CD        31.8760   25.5410   22.5940 C.2   645  GLU645      0.3649
    204  OE1       32.5920   25.3060   23.6010 O.co2 645  GLU645     -0.2457
    205  OE2       31.0850   26.5280   22.5330 O.co2 645  GLU645     -0.2457
    206  N         35.4000   22.9510   21.9810 N.am  646  ALA646     -0.1966
    207  CA        35.8910   21.5590   22.0300 C.3   646  ALA646      0.1728
    208  C         34.8460   20.5270   21.5550 C.2   646  ALA646      0.2617
    209  O         35.1370   19.6860   20.7130 O.2   646  ALA646     -0.2715
    210  CB        36.3670   21.2080   23.4220 C.3   646  ALA646      0.0334
    211  N         33.6400   20.6200   22.0760 N.am  647  SER647     -0.1936
    212  CA        32.5170   19.7860   21.6110 C.3   647  SER647      0.2055
    213  C         31.2560   20.6000   21.4880 C.2   647  SER647      0.2644
    214  O         30.6820   20.7000   20.4090 O.2   647  SER647     -0.2714
    215  CB        32.3050   18.6070   22.5520 C.3   647  SER647      0.2130
    216  OG        31.1010   17.8800   22.2760 O.3   647  SER647     -0.2179
    217  N         30.8360   21.2120   22.5950 N.am  648  GLY648     -0.1939
    218  CA        29.4910   21.7090   22.7340 C.3   648  GLY648      0.2014
    219  C         28.6020   20.5380   23.1330 C.2   648  GLY648      0.2639
    220  O         28.8990   19.3720   22.8130 O.2   648  GLY648     -0.2714
    221  N         27.5930   20.8320   23.9400 N.am  649  THR649     -0.1950
    222  CA        26.5420   19.8570   24.2870 C.3   649  THR649      0.1897
    223  C         25.1350   20.4230   24.1980 C.2   649  THR649      0.2313
    224  O         24.1780   19.6640   23.9070 O.2   649  THR649     -0.2863
    225  CB        26.7600   19.2170   25.6730 C.3   649  THR649      0.1794
    226  OG1       26.8220   20.2510   26.6620 O.3   649  THR649     -0.2208
    227  CG2       28.0540   18.4200   25.6890 C.3   649  THR649      0.0378
@<TRIPOS>BOND
     1   179   178    2
     2   191   190    2
     3   200   199    2
     4   197   198    1
     5   190   189    1
     6   201   198    1
     7   201   202    1
     8   214   213    2
     9   178   177    1
    10   178   188   am
    11   209   208    2
    12   198   199    1
    13   199   206   am
    14   177   180    1
    15   177   176    1
    16   189   188    1
    17   189   192    1
    18   202   203    1
    19   213   212    1
    20   213   217   am
    21   208   207    1
    22   208   211   am
    23   180   181    1
    24   212   211    1
    25   212   215    1
    26   182   181   ar
    27   182   184   ar
    28   206   207    1
    29   207   210    1
    30   216   215    1
    31   192   193    1
    32   163   164    2
    33   163   162    1
    34   181   183   ar
    35   205   203   ar
    36   203   204   ar
    37   217   218    1
    38   171   170    2
    39   184   186   ar
    40   218   219    1
    41   220   219    2
    42   168   169    1
    43   219   221   am
    44   193   194    1
    45   161   162    1
    46   162   165    1
    47   183   185   ar
    48   170   169    1
    49   224   223    2
    50   221   222    1
    51   186   185   ar
    52   186   187    1
    53   223   222    1
    54   169   172    1
    55   222   225    1
    56   167   165    1
    57   194   195    1
    58   172   173    1
    59   165   166    1
    60   196   195    1
    61   142   141    1
    62   142   143    2
    63   173   174    2
    64   173   175   am
    65   145   144    1
    66   225   227    1
    67   225   226    1
    68   141   144    1
    69   141   140    1
    70   133   132    2
    71   144   146    1
    72   140   132   am
    73   132   131    1
    74   131   130    1
    75   131   134    1
    76    40    39    1
    77   134   135    1
    78   136   135   ar
    79   136   138   ar
    80   147   148    1
    81   151   148    1
    82   135   137   ar
    83    41    39    1
    84    23    22    1
    85    23    24    1
    86    39    38    1
    87   138   139   ar
    88   148   149    1
    89   137   139   ar
    90    22    20   am
    91    24    25    2
    92    24    26   am
    93    38    35    1
    94   149   150    2
    95    65    64    2
    96    76    78   ar
    97    76    75   ar
    98    26    27    1
    99    78    80   ar
   100    35    34    1
   101    35    36    1
   102    69    67   ar
   103    20    19    1
   104    20    21    2
   105   119   117   ar
   106    27    30    1
   107    27    28    1
   108    64    63    1
   109    70    71    1
   110    67    68   ar
   111    67    66    1
   112    71    74    1
   113    71    72    1
   114    19    18    1
   115    74    75    1
   116    75    77   ar
   117    30    31    1
   118   118   117   ar
   119    37    36    2
   120    80    79   ar
   121   117   116    1
   122    66    63    1
   123    32    31    1
   124    28    29    2
   125    63    62    1
   126    31    33    1
   127   113   116    1
   128   113   112    1
   129   113   114    1
   130    81    72   am
   131    81    82    1
   132    72    73    2
   133   152   153    1
   134    18    12   am
   135    77    79   ar
   136    13    12    2
   137    12    11    1
   138    62    56   am
   139    85    82    1
   140    85    86    1
   141   114   115    2
   142    82    83    1
   143   155   154    2
   144   153   154    1
   145   153   156    1
   146    84    83    2
   147    14    11    1
   148    14    15    1
   149    56    57    2
   150    56    55    1
   151    83    92   am
   152    11    10    1
   153   129   128   ar
   154   129   127   ar
   155    86    88   ar
   156    86    87   ar
   157   128   126   ar
   158   156   157    1
   159    88    90   ar
   160   157   158    1
   161    55    58    1
   162    55    54    1
   163    15    16    2
   164    15    17   am
   165     9     7   ar
   166    87    89   ar
   167   127   125   ar
   168    58    59    1
   169    92    93    1
   170   126   125   ar
   171   120   121    1
   172    90    91   ar
   173     8     7   ar
   174     7     6    1
   175   159   158   ar
   176   125   124    1
   177   158   160   ar
   178    89    91   ar
   179    60    59    2
   180    59    61   am
   181    93    96    1
   182    93    94    1
   183     5     6    1
   184     5     2    1
   185    96    97    1
   186     4     3    2
   187   121   124    1
   188   121   122    1
   189    99    98   ar
   190    97    98    1
   191    94    95    2
   192     3     2    1
   193    98   100   ar
   194   111   109    1
   195    45    44    2
   196     2     1    1
   197   122   123    2
   198    44    43    1
   199   109   110    1
   200   109   108    2
   201   108   107    1
   202    46    43    1
   203    46    47    1
   204    43    42    1
   205    49    47   ar
   206    49    51   ar
   207   106   107    1
   208   106   105    1
   209    47    48   ar
   210    51    52   ar
   211   105   102    1
   212    48    50   ar
   213    52    50   ar
   214    52    53    1
   215   104   103    2
   216   102   103    1
   217   102   101    1
