@<TRIPOS>MOLECULE
tmp/4yi7A00.pdb
 74 71 0 0 0
SMALL
GASTEIGER

@<TRIPOS>ATOM
      1  N         18.7490   11.8700  -17.3680 N.3    82  VAL82      -0.1231
      2  CA        19.1860   12.6330  -18.5320 C.3    82  VAL82       0.1692
      3  C         19.3330   11.7610  -19.7820 C.2    82  VAL82       0.2593
      4  O         19.7730   10.6200  -19.7130 O.2    82  VAL82      -0.2718
      5  CB        20.5250   13.3440  -18.2240 C.3    82  VAL82       0.0266
      6  CG1       21.6310   12.3260  -17.9530 C.3    82  VAL82       0.0020
      7  CG2       20.8800   14.3360  -19.3520 C.3    82  VAL82       0.0020
      8  N         18.9640   12.3180  -20.9320 N.am   83  GLY83      -0.1942
      9  CA        18.9470   11.5550  -22.1660 C.3    83  GLY83       0.2014
     10  C         19.6730   12.2800  -23.2820 C.2    83  GLY83       0.2639
     11  O         19.8730   13.4990  -23.2240 O.2    83  GLY83      -0.2714
     12  N         20.0720   11.5180  -24.2950 N.am   84  THR84      -0.1950
     13  CA        20.7520   12.0740  -25.4600 C.3    84  THR84       0.1897
     14  C         19.7830   12.7890  -26.3870 C.2    84  THR84       0.2313
     15  O         20.1900   13.6080  -27.2090 O.2    84  THR84      -0.2863
     16  CB        21.4280   10.9830  -26.2790 C.3    84  THR84       0.1794
     17  OG1       20.4460    9.9950  -26.6180 O.3    84  THR84      -0.2208
     18  CG2       22.5750   10.3370  -25.5130 C.3    84  THR84       0.0378
     19  N         20.5400   17.7520  -15.1730 N.3   110  HIS110     -0.1226
     20  CA        21.1800   18.4030  -16.2960 C.3   110  HIS110      0.1752
     21  C         20.2210   18.4010  -17.4790 C.2   110  HIS110      0.2597
     22  O         19.7930   17.3420  -17.9430 O.2   110  HIS110     -0.2718
     23  CB        22.4730   17.6800  -16.6220 C.3   110  HIS110      0.0759
     24  CG        23.3690   18.4230  -17.5620 C.ar  110  HIS110      0.0818
     25  ND1       24.3990   17.8150  -18.2350 N.ar  110  HIS110     -0.2268
     26  CD2       23.3860   19.7290  -17.9280 C.ar  110  HIS110      0.1154
     27  CE1       25.0220   18.7160  -18.9830 C.ar  110  HIS110      0.1986
     28  NE2       24.4280   19.8780  -18.8100 N.ar  110  HIS110     -0.2212
     29  N         19.8600   19.5910  -17.9440 N.am  111  GLY111     -0.1942
     30  CA        18.8930   19.7120  -19.0150 C.3   111  GLY111      0.2014
     31  C         19.4440   20.5150  -20.1680 C.2   111  GLY111      0.2638
     32  O         20.5180   21.1060  -20.0750 O.2   111  GLY111     -0.2714
     33  N         18.6960   20.5260  -21.2630 N.am  112  ASN112     -0.1972
     34  CA        19.0740   21.2880  -22.4370 C.3   112  ASN112      0.1688
     35  C         18.0780   22.4210  -22.6560 C.2   112  ASN112      0.2292
     36  O         16.8830   22.1840  -22.8360 O.2   112  ASN112     -0.2864
     37  CB        19.1430   20.3700  -23.6510 C.3   112  ASN112      0.1181
     38  CG        19.7010   21.0580  -24.8620 C.2   112  ASN112      0.2629
     39  OD1       20.5010   21.9910  -24.7540 O.2   112  ASN112     -0.2716
     40  ND2       19.2840   20.6010  -26.0360 N.am  112  ASN112     -0.0877
     41  N         24.9800   21.4410  -35.3300 N.3   154  ARG154     -0.1245
     42  CA        24.0260   20.4510  -34.8520 C.3   154  ARG154      0.1563
     43  C         22.6210   20.6650  -35.4150 C.2   154  ARG154      0.2260
     44  O         21.9680   19.7060  -35.8360 O.2   154  ARG154     -0.2867
     45  CB        23.9830   20.4470  -33.3150 C.3   154  ARG154      0.0307
     46  CG        25.2130   19.8420  -32.6800 C.3   154  ARG154      0.0489
     47  CD        25.1200   19.8780  -31.1500 C.3   154  ARG154      0.2205
     48  NE        24.0750   18.9710  -30.6720 N.pl3 154  ARG154     -0.0865
     49  CZ        23.7680   18.7940  -29.3890 C.cat 154  ARG154      0.5346
     50  NH1       24.4140   19.4720  -28.4500 N.pl3 154  ARG154      0.1354
     51  NH2       22.8140   17.9440  -29.0460 N.pl3 154  ARG154      0.1354
     52  N         27.8150   14.9450  -29.7840 N.3   163  PHE163     -0.1227
     53  CA        27.4440   16.0580  -28.9050 C.3   163  PHE163      0.1736
     54  C         26.2020   15.7430  -28.0820 C.2   163  PHE163      0.2595
     55  O         26.0580   16.2550  -26.9690 O.2   163  PHE163     -0.2718
     56  CB        27.2160   17.3320  -29.7020 C.3   163  PHE163      0.0547
     57  CG        28.4710   17.8990  -30.2790 C.ar  163  PHE163     -0.0202
     58  CD1       29.5020   18.3070  -29.4470 C.ar  163  PHE163     -0.0042
     59  CD2       28.6360   18.0050  -31.6420 C.ar  163  PHE163     -0.0042
     60  CE1       30.6680   18.8150  -29.9610 C.ar  163  PHE163     -0.0003
     61  CE2       29.8020   18.5230  -32.1660 C.ar  163  PHE163     -0.0003
     62  CZ        30.8190   18.9240  -31.3260 C.ar  163  PHE163     -0.0000
     63  N         25.3160   14.9160  -28.6330 N.am  164  ASN164     -0.1974
     64  CA        24.1910   14.3570  -27.8830 C.3   164  ASN164      0.1688
     65  C         24.6850   13.4450  -26.7700 C.2   164  ASN164      0.2292
     66  O         24.2010   13.5120  -25.6370 O.2   164  ASN164     -0.2864
     67  CB        23.2560   13.5650  -28.7950 C.3   164  ASN164      0.1181
     68  CG        22.6270   14.4240  -29.8660 C.2   164  ASN164      0.2629
     69  OD1       23.2490   14.7140  -30.8910 O.2   164  ASN164     -0.2716
     70  ND2       21.3920   14.8440  -29.6350 N.am  164  ASN164     -0.0877
     71  N         26.1130   15.3560  -23.6410 N.3   167  GLY167     -0.1225
     72  CA        25.2160   16.0500  -22.7280 C.3   167  GLY167      0.1811
     73  C         25.0840   15.3080  -21.4010 C.2   167  GLY167      0.2280
     74  O         25.4080   15.8510  -20.3340 O.2   167  GLY167     -0.2866
@<TRIPOS>BOND
     1    44    43    2
     2    43    42    1
     3    41    42    1
     4    42    45    1
     5    45    46    1
     6    46    47    1
     7    61    59   ar
     8    61    62   ar
     9    59    57   ar
    10    62    60   ar
    11    47    48    1
    12    69    68    2
    13    48    49    2
    14    57    56    1
    15    57    58   ar
    16    60    58   ar
    17    68    70   am
    18    68    67    1
    19    52    53    1
    20    56    53    1
    21    49    51    1
    22    49    50    1
    23    53    54    1
    24    67    64    1
    25    63    54   am
    26    63    64    1
    27    54    55    2
    28    64    65    1
    29    15    14    2
    30    65    66    2
    31    17    16    1
    32    14    13    1
    33    16    18    1
    34    16    13    1
    35    40    38   am
    36    13    12    1
    37    38    39    2
    38    38    37    1
    39    12    10   am
    40    37    34    1
    41    71    72    1
    42    10    11    2
    43    10     9    1
    44    36    35    2
    45    72    73    1
    46    35    34    1
    47    34    33    1
    48     9     8    1
    49    73    74    2
    50    33    31   am
    51     8     3   am
    52    31    32    2
    53    31    30    1
    54     3     4    2
    55     3     2    1
    56     7     5    1
    57    30    29    1
    58    27    28   ar
    59    27    25   ar
    60    28    26   ar
    61     2     5    1
    62     2     1    1
    63    25    24   ar
    64     5     6    1
    65    29    21   am
    66    22    21    2
    67    26    24   ar
    68    24    23    1
    69    21    20    1
    70    23    20    1
    71    20    19    1
