@<TRIPOS>MOLECULE
tmp/4yiaA00.pdb
 95 88 0 0 0
SMALL
GASTEIGER

@<TRIPOS>ATOM
      1  N         -5.3110  -14.8140   14.8760 N.3     5  SER5       -0.1202
      2  CA        -5.3360  -16.2540   14.5970 C.3     5  SER5        0.2020
      3  C         -4.1380  -17.0000   14.9760 C.2     5  SER5        0.2619
      4  O         -4.2710  -18.0560   15.6510 O.2     5  SER5       -0.2717
      5  CB        -5.7760  -16.5360   13.1390 C.3     5  SER5        0.2103
      6  OG        -5.8550  -17.9100   12.7130 O.3     5  SER5       -0.2182
      7  N         -2.9820  -16.6720   14.4590 N.am    6  SER6       -0.1951
      8  CA        -1.8620  -17.4190   14.9210 C.3     6  SER6        0.1924
      9  C         -1.6240  -17.3020   16.4340 C.2     6  SER6        0.2314
     10  O         -1.2360  -18.2570   17.0650 O.2     6  SER6       -0.2863
     11  CB        -0.6180  -17.0190   14.2290 C.3     6  SER6        0.2116
     12  OG        -0.7140  -17.3920   12.9050 O.3     6  SER6       -0.2180
     13  N         -4.1060  -19.3660   18.4320 N.3     9  ALA9       -0.1245
     14  CA        -3.8790  -20.7870   18.2310 C.3     9  ALA9        0.1562
     15  C         -2.6640  -21.2530   19.0460 C.2     9  ALA9        0.2260
     16  O         -2.6720  -22.3300   19.6780 O.2     9  ALA9       -0.2867
     17  CB        -3.6120  -21.1540   16.7470 C.3     9  ALA9        0.0290
     18  N         -9.6490  -33.9410    7.5260 N.3   220  GLN220     -0.1245
     19  CA       -10.5250  -32.7850    7.5900 C.3   220  GLN220      0.1566
     20  C        -11.9450  -33.2240    7.3000 C.2   220  GLN220      0.2260
     21  O        -12.1910  -33.8790    6.2890 O.2   220  GLN220     -0.2867
     22  CB       -10.1210  -31.6310    6.6440 C.3   220  GLN220      0.0367
     23  CG       -11.0970  -30.4920    6.6160 C.3   220  GLN220      0.0905
     24  CD       -10.6210  -29.3650    5.7570 C.2   220  GLN220      0.2608
     25  OE1       -9.3810  -29.1540    5.6900 O.2   220  GLN220     -0.2717
     26  NE2      -11.4880  -28.6640    5.0960 N.am  220  GLN220     -0.0878
     27  N        -15.1920  -26.4500   10.3280 N.3   228  LEU228     -0.1245
     28  CA       -14.6360  -27.7720    9.9400 C.3   228  LEU228      0.1561
     29  C        -14.0410  -28.3900   11.2150 C.2   228  LEU228      0.2260
     30  O        -13.8060  -27.7050   12.2330 O.2   228  LEU228     -0.2867
     31  CB       -13.5640  -27.6950    8.8780 C.3   228  LEU228      0.0270
     32  CG       -12.4210  -26.7750    9.2680 C.3   228  LEU228      0.0019
     33  CD1      -11.1350  -27.2120    8.6030 C.3   228  LEU228      0.0001
     34  CD2      -12.5830  -25.2820    8.9610 C.3   228  LEU228      0.0001
     35  N        -10.8240  -31.0140   12.3940 N.3   230  LEU230     -0.1245
     36  CA        -9.6140  -31.7030   12.0840 C.3   230  LEU230      0.1561
     37  C         -9.3840  -32.8390   13.0670 C.2   230  LEU230      0.2260
     38  O         -9.4250  -32.5730   14.2720 O.2   230  LEU230     -0.2867
     39  CB        -8.4370  -30.7600   12.1370 C.3   230  LEU230      0.0270
     40  CG        -8.3410  -29.6590   11.0720 C.3   230  LEU230      0.0019
     41  CD1       -6.9990  -28.9790   11.3020 C.3   230  LEU230      0.0001
     42  CD2       -8.3530  -30.2630    9.6720 C.3   230  LEU230      0.0001
     43  N          0.7670  -22.9360   15.5800 N.3   248  SER248     -0.1217
     44  CA         0.2090  -22.1990   14.4250 C.3   248  SER248      0.1889
     45  C          0.9410  -22.5330   13.1250 C.2   248  SER248      0.2288
     46  O          0.3580  -22.6590   12.0950 O.2   248  SER248     -0.2866
     47  CB         0.2720  -20.7020   14.7020 C.3   248  SER248      0.2089
     48  OG         1.6010  -20.1870   14.9150 O.3   248  SER248     -0.2183
     49  N         -0.3800  -25.8040   11.8040 N.3   251  LEU251     -0.1231
     50  CA        -1.6470  -25.6110   11.1450 C.3   251  LEU251      0.1693
     51  C         -1.5390  -24.9770    9.7710 C.2   251  LEU251      0.2591
     52  O         -2.2680  -25.3860    8.8200 O.2   251  LEU251     -0.2718
     53  CB        -2.6440  -24.8100   12.0070 C.3   251  LEU251      0.0284
     54  CG        -3.1110  -25.4260   13.3480 C.3   251  LEU251      0.0019
     55  CD1       -4.0990  -24.5080   14.0440 C.3   251  LEU251      0.0001
     56  CD2       -3.7610  -26.7720   13.0560 C.3   251  LEU251      0.0001
     57  N         -0.6910  -23.9800    9.6160 N.am  252  LYS252     -0.1980
     58  CA        -0.5330  -23.3000    8.3270 C.3   252  LYS252      0.1596
     59  C          0.0550  -24.3600    7.3440 C.2   252  LYS252      0.2287
     60  O         -0.2660  -24.3110    6.1680 O.2   252  LYS252     -0.2864
     61  CB         0.4570  -22.1610    8.5030 C.3   252  LYS252      0.0298
     62  CG        -0.1440  -21.0210    9.2750 C.3   252  LYS252      0.0038
     63  CD         0.8690  -19.9380    9.5900 C.3   252  LYS252      0.0206
     64  CE         0.2160  -18.7250   10.2330 C.3   252  LYS252      0.1093
     65  NZ         1.3230  -17.8040   10.6280 N.3   252  LYS252     -0.1314
     66  N         -0.3670  -27.6760    7.3880 N.3   254  TRP254     -0.1227
     67  CA        -1.4760  -28.5490    6.9710 C.3   254  TRP254      0.1737
     68  C         -2.4520  -27.8800    6.0310 C.2   254  TRP254      0.2595
     69  O         -3.0280  -28.5240    5.0880 O.2   254  TRP254     -0.2718
     70  CB        -2.2430  -29.0910    8.2210 C.3   254  TRP254      0.0564
     71  CG        -1.3810  -30.0050    9.0270 C.ar  254  TRP254      0.0003
     72  CD1       -0.1670  -30.5750    8.6850 C.ar  254  TRP254      0.0946
     73  CD2       -1.6460  -30.4790   10.3590 C.ar  254  TRP254      0.0152
     74  NE1        0.2790  -31.4000    9.6720 N.ar  254  TRP254     -0.2442
     75  CE2       -0.5870  -31.3300   10.7290 C.ar  254  TRP254      0.0810
     76  CE3       -2.7180  -30.2810   11.2470 C.ar  254  TRP254      0.0012
     77  CZ2       -0.5230  -32.0000   11.9920 C.ar  254  TRP254      0.0191
     78  CZ3       -2.5890  -30.9260   12.5220 C.ar  254  TRP254      0.0001
     79  CH2       -1.6020  -31.7480   12.8200 C.ar  254  TRP254      0.0015
     80  N         -2.7970  -26.6370    6.2810 N.am  255  ASN255     -0.1974
     81  CA        -3.7360  -25.8890    5.4430 C.3   255  ASN255      0.1688
     82  C         -3.3050  -25.9360    3.9590 C.2   255  ASN255      0.2292
     83  O         -4.0880  -26.0880    3.0480 O.2   255  ASN255     -0.2864
     84  CB        -3.8500  -24.4760    5.8700 C.3   255  ASN255      0.1181
     85  CG        -4.7480  -23.6380    4.9550 C.2   255  ASN255      0.2629
     86  OD1       -5.9270  -23.9090    4.8270 O.2   255  ASN255     -0.2716
     87  ND2       -4.1480  -22.6870    4.2330 N.am  255  ASN255     -0.0877
     88  N         -3.0310  -30.4710    2.8180 N.3   258  LEU258     -0.1245
     89  CA        -4.1220  -31.3650    2.6810 C.3   258  LEU258      0.1561
     90  C         -4.6720  -31.4200    1.2720 C.2   258  LEU258      0.2260
     91  O         -4.8990  -30.4140    0.6440 O.2   258  LEU258     -0.2867
     92  CB        -5.2400  -31.0350    3.6960 C.3   258  LEU258      0.0270
     93  CG        -5.0920  -31.9490    5.0290 C.3   258  LEU258      0.0019
     94  CD1       -3.9180  -31.7020    5.9680 C.3   258  LEU258      0.0001
     95  CD2       -6.3120  -32.0300    5.8600 C.3   258  LEU258      0.0001
@<TRIPOS>BOND
     1    91    90    2
     2    90    89    1
     3    89    88    1
     4    89    92    1
     5    83    82    2
     6    92    93    1
     7    82    81    1
     8    87    85   am
     9    86    85    2
    10    85    84    1
    11    93    95    1
    12    93    94    1
    13    69    68    2
    14    26    24   am
    15    81    84    1
    16    81    80    1
    17    25    24    2
    18    24    23    1
    19    68    80   am
    20    68    67    1
    21    60    59    2
    22    21    20    2
    23    23    22    1
    24    22    19    1
    25    67    66    1
    26    67    70    1
    27    20    19    1
    28    59    58    1
    29    18    19    1
    30    70    71    1
    31    58    61    1
    32    58    57    1
    33    61    62    1
    34    33    32    1
    35    72    71   ar
    36    72    74   ar
    37    52    51    2
    38    31    32    1
    39    31    28    1
    40    34    32    1
    41    71    73   ar
    42    62    63    1
    43    63    64    1
    44    57    51   am
    45    42    40    1
    46    74    75   ar
    47    51    50    1
    48    28    27    1
    49    28    29    1
    50    64    65    1
    51    73    75   ar
    52    73    76   ar
    53    75    77   ar
    54    40    41    1
    55    40    39    1
    56    50    49    1
    57    50    53    1
    58    29    30    2
    59    76    78   ar
    60    77    79   ar
    61    53    54    1
    62    36    39    1
    63    36    35    1
    64    36    37    1
    65    46    45    2
    66    78    79   ar
    67     6     5    1
    68    12    11    1
    69    56    54    1
    70    37    38    2
    71    45    44    1
    72     5     2    1
    73    54    55    1
    74    11     8    1
    75    44    47    1
    76    44    43    1
    77     7     8    1
    78     7     3   am
    79     2     1    1
    80     2     3    1
    81    47    48    1
    82     8     9    1
    83     3     4    2
    84     9    10    2
    85    17    14    1
    86    14    13    1
    87    14    15    1
    88    15    16    2
