@<TRIPOS>MOLECULE
tmp/4yicA00.pdb
 123 115 0 0 0
SMALL
GASTEIGER

@<TRIPOS>ATOM
      1  N         10.5810   34.9010  -30.7020 N.3    13  TRP13      -0.1241
      2  CA        11.6270   33.9620  -30.2740 C.3    13  TRP13       0.1605
      3  C         11.4870   32.5800  -30.8480 C.2    13  TRP13       0.2264
      4  O         10.3790   32.1200  -31.1250 O.2    13  TRP13      -0.2867
      5  CB        11.6470   33.8080  -28.7250 C.3    13  TRP13       0.0550
      6  CG        11.0220   34.9490  -27.9930 C.ar   13  TRP13       0.0003
      7  CD1        9.8720   34.9210  -27.2730 C.ar   13  TRP13       0.0946
      8  CD2       11.4940   36.2960  -27.9460 C.ar   13  TRP13       0.0152
      9  NE1        9.5920   36.1680  -26.7750 N.ar   13  TRP13      -0.2442
     10  CE2       10.5740   37.0330  -27.1750 C.ar   13  TRP13       0.0810
     11  CE3       12.5970   36.9520  -28.4890 C.ar   13  TRP13       0.0012
     12  CZ2       10.7240   38.3840  -26.9380 C.ar   13  TRP13       0.0191
     13  CZ3       12.7540   38.2790  -28.2410 C.ar   13  TRP13       0.0001
     14  CH2       11.8200   38.9890  -27.4700 C.ar   13  TRP13       0.0015
     15  N         13.0280   32.3180  -22.5880 N.3    20  ILE20      -0.1245
     16  CA        12.1350   33.4050  -22.9630 C.3    20  ILE20       0.1561
     17  C         10.8970   32.8900  -23.7040 C.2    20  ILE20       0.2260
     18  O          9.7870   33.3220  -23.4080 O.2    20  ILE20      -0.2867
     19  CB        12.8900   34.5030  -23.7860 C.3    20  ILE20       0.0252
     20  CG1       11.9720   35.7040  -24.0630 C.3    20  ILE20       0.0019
     21  CG2       13.5150   33.9340  -25.0580 C.3    20  ILE20       0.0019
     22  CD1       12.7450   37.0080  -24.4170 C.3    20  ILE20       0.0001
     23  N         10.4910   42.2950  -27.4810 N.3    70  LEU70      -0.1245
     24  CA        11.3650   43.3650  -27.0120 C.3    70  LEU70       0.1561
     25  C         10.8810   44.6510  -27.6450 C.2    70  LEU70       0.2260
     26  O         11.0110   44.8290  -28.8550 O.2    70  LEU70      -0.2867
     27  CB        12.8170   43.1010  -27.4080 C.3    70  LEU70       0.0270
     28  CG        13.8420   44.0600  -26.8290 C.3    70  LEU70       0.0019
     29  CD1       14.2680   43.5330  -25.4570 C.3    70  LEU70       0.0001
     30  CD2       15.0310   44.2530  -27.7500 C.3    70  LEU70       0.0001
     31  N         15.0410   39.5720  -18.6060 N.3   126  VAL126     -0.1245
     32  CA        16.1780   38.6650  -18.7050 C.3   126  VAL126      0.1561
     33  C         17.3740   39.1450  -17.9030 C.2   126  VAL126      0.2260
     34  O         18.4010   38.4710  -17.8840 O.2   126  VAL126     -0.2867
     35  CB        16.5800   38.4370  -20.2110 C.3   126  VAL126      0.0252
     36  CG1       15.3360   38.1260  -21.0240 C.3   126  VAL126      0.0019
     37  CG2       17.2800   39.6490  -20.7640 C.3   126  VAL126      0.0019
     38  N         22.3030   41.5880  -19.2950 N.3   129  GLN129     -0.1245
     39  CA        22.7760   40.7590  -20.3860 C.3   129  GLN129      0.1566
     40  C         24.3040   40.6980  -20.3970 C.2   129  GLN129      0.2260
     41  O         24.9680   41.4880  -19.7310 O.2   129  GLN129     -0.2867
     42  CB        22.2520   41.3180  -21.6940 C.3   129  GLN129      0.0367
     43  CG        20.7010   41.2450  -21.8450 C.3   129  GLN129      0.0905
     44  CD        20.1830   42.2070  -22.8920 C.2   129  GLN129      0.2608
     45  OE1       19.8890   41.8270  -24.0630 O.2   129  GLN129     -0.2717
     46  NE2       20.0730   43.4680  -22.5090 N.am  129  GLN129     -0.0878
     47  N         25.5130   42.7740  -34.4630 N.3   150  ARG150     -0.1245
     48  CA        24.1220   42.4450  -34.1450 C.3   150  ARG150      0.1563
     49  C         23.8260   42.8480  -32.7070 C.2   150  ARG150      0.2260
     50  O         24.4940   42.3830  -31.7890 O.2   150  ARG150     -0.2867
     51  CB        23.8520   40.9400  -34.3270 C.3   150  ARG150      0.0307
     52  CG        22.3880   40.5560  -34.2250 C.3   150  ARG150      0.0489
     53  CD        21.9120   40.3160  -32.7670 C.3   150  ARG150      0.2205
     54  NE        20.4610   40.3390  -32.7150 N.pl3 150  ARG150     -0.0865
     55  CZ        19.7370   40.6350  -31.6340 C.cat 150  ARG150      0.5346
     56  NH1       20.3060   40.8880  -30.4420 N.pl3 150  ARG150      0.1354
     57  NH2       18.4140   40.6670  -31.7480 N.pl3 150  ARG150      0.1354
     58  N         20.2280   44.1300  -30.1990 N.3   152  GLY152     -0.1225
     59  CA        18.8260   44.4790  -30.0910 C.3   152  GLY152      0.1811
     60  C         18.7230   45.6790  -29.1730 C.2   152  GLY152      0.2280
     61  O         19.5470   45.8630  -28.2760 O.2   152  GLY152     -0.2866
     62  N         19.3640   44.7370  -35.8220 N.3   168  GLN168     -0.1245
     63  CA        18.5220   43.9290  -34.9230 C.3   168  GLN168      0.1566
     64  C         18.0990   42.6090  -35.6040 C.2   168  GLN168      0.2260
     65  O         16.8980   42.3410  -35.7730 O.2   168  GLN168     -0.2867
     66  CB        17.2940   44.7450  -34.4800 C.3   168  GLN168      0.0367
     67  CG        17.6260   46.0880  -33.8120 C.3   168  GLN168      0.0905
     68  CD        16.6370   46.4530  -32.7080 C.2   168  GLN168      0.2608
     69  OE1       16.3140   45.6260  -31.8490 O.2   168  GLN168     -0.2717
     70  NE2       16.1430   47.6880  -32.7320 N.am  168  GLN168     -0.0878
     71  N         25.5370   40.4340  -29.9080 N.3   187  GLU187     -0.1231
     72  CA        24.9810   40.1930  -28.5760 C.3   187  GLU187      0.1699
     73  C         23.5710   39.6430  -28.7480 C.2   187  GLU187      0.2592
     74  O         22.8460   40.0580  -29.6590 O.2   187  GLU187     -0.2718
     75  CB        24.9890   41.4640  -27.7310 C.3   187  GLU187      0.0402
     76  CG        23.9220   42.5110  -28.0640 C.3   187  GLU187      0.1161
     77  CD        22.5540   42.2560  -27.4430 C.2   187  GLU187      0.3649
     78  OE1       22.4610   41.8480  -26.2530 O.co2 187  GLU187     -0.2457
     79  OE2       21.5420   42.5440  -28.1110 O.co2 187  GLU187     -0.2457
     80  N         23.1790   38.7300  -27.8510 N.am  188  TRP188     -0.1962
     81  CA        21.7920   38.2630  -27.7630 C.3   188  TRP188      0.1771
     82  C         21.3140   38.4960  -26.3260 C.2   188  TRP188      0.2619
     83  O         20.7000   39.5200  -26.0730 O.2   188  TRP188     -0.2715
     84  CB        21.6500   36.7790  -28.1820 C.3   188  TRP188      0.0590
     85  CG        20.2980   36.2120  -27.8610 C.ar  188  TRP188      0.0006
     86  CD1       20.0250   35.1640  -27.0130 C.ar  188  TRP188      0.0946
     87  CD2       19.0280   36.6950  -28.3200 C.ar  188  TRP188      0.0152
     88  NE1       18.6690   34.9590  -26.9420 N.ar  188  TRP188     -0.2442
     89  CE2       18.0340   35.8940  -27.7200 C.ar  188  TRP188      0.0810
     90  CE3       18.6330   37.7250  -29.1910 C.ar  188  TRP188      0.0012
     91  CZ2       16.6690   36.0950  -27.9570 C.ar  188  TRP188      0.0191
     92  CZ3       17.2900   37.9330  -29.4030 C.ar  188  TRP188      0.0001
     93  CH2       16.3210   37.1190  -28.7970 C.ar  188  TRP188      0.0015
     94  N         21.5920   37.5570  -25.4230 N.am  189  ILE189     -0.1977
     95  CA        21.1420   37.7470  -24.0270 C.3   189  ILE189      0.1596
     96  C         22.1330   37.3380  -22.9370 C.2   189  ILE189      0.2287
     97  O         22.3850   38.1030  -21.9930 O.2   189  ILE189     -0.2864
     98  CB        19.8330   36.9800  -23.7870 C.3   189  ILE189      0.0276
     99  CG1       18.6840   37.6220  -24.5640 C.3   189  ILE189      0.0022
    100  CG2       19.4750   36.9960  -22.3010 C.3   189  ILE189      0.0022
    101  CD1       17.3310   36.8990  -24.4000 C.3   189  ILE189      0.0001
    102  N         21.0340   47.6560  -21.7740 N.3   213  GLU213     -0.1245
    103  CA        19.8320   47.9330  -20.9810 C.3   213  GLU213      0.1567
    104  C         20.2280   47.6640  -19.5540 C.2   213  GLU213      0.2260
    105  O         21.0080   46.7430  -19.3070 O.2   213  GLU213     -0.2867
    106  CB        18.6540   47.0220  -21.3420 C.3   213  GLU213      0.0388
    107  CG        17.9110   47.3610  -22.5950 C.3   213  GLU213      0.1160
    108  CD        18.4770   46.7340  -23.8650 C.2   213  GLU213      0.3649
    109  OE1       19.2170   45.7210  -23.8420 O.co2 213  GLU213     -0.2457
    110  OE2       18.1130   47.2840  -24.9070 O.co2 213  GLU213     -0.2457
    111  N         16.7570   43.9380  -19.5980 N.3   216  ALA216     -0.1245
    112  CA        15.9000   43.8920  -20.7790 C.3   216  ALA216      0.1562
    113  C         14.5450   43.3400  -20.3800 C.2   216  ALA216      0.2260
    114  O         14.3840   42.1240  -20.1680 O.2   216  ALA216     -0.2867
    115  CB        16.5270   43.0640  -21.8920 C.3   216  ALA216      0.0290
    116  N         10.5530   42.4900  -20.9860 N.3   218  ILE218     -0.1245
    117  CA         9.7700   41.9040  -22.0730 C.3   218  ILE218      0.1561
    118  C          8.3120   42.3330  -21.9520 C.2   218  ILE218      0.2260
    119  O          7.7830   42.4550  -20.8370 O.2   218  ILE218     -0.2867
    120  CB         9.8900   40.3730  -22.0580 C.3   218  ILE218      0.0252
    121  CG1       11.3680   39.9660  -22.0420 C.3   218  ILE218      0.0019
    122  CG2        9.1520   39.7330  -23.2420 C.3   218  ILE218      0.0019
    123  CD1       12.1920   40.5250  -23.2270 C.3   218  ILE218      0.0001
@<TRIPOS>BOND
     1    62    63    1
     2    65    64    2
     3    64    63    1
     4    63    66    1
     5    66    67    1
     6    47    48    1
     7    51    52    1
     8    51    48    1
     9    52    53    1
    10    48    49    1
    11    67    68    1
    12    53    54    1
    13    70    68   am
    14    54    55    2
    15    68    69    2
    16    49    50    2
    17    57    55    1
    18    55    56    1
    19     4     3    2
    20     3     2    1
    21     1     2    1
    22     2     5    1
    23    58    59    1
    24    59    60    1
    25    71    72    1
    26    74    73    2
    27    92    90   ar
    28    92    93   ar
    29    90    87   ar
    30    60    61    2
    31    26    25    2
    32    93    91   ar
    33    73    72    1
    34    73    80   am
    35     5     6    1
    36    72    75    1
    37    11    13   ar
    38    11     8   ar
    39    87    85   ar
    40    87    89   ar
    41    13    14   ar
    42    84    85    1
    43    84    81    1
    44    79    77   ar
    45    76    75    1
    46    76    77    1
    47     6     8   ar
    48     6     7   ar
    49    91    89   ar
    50     8    10   ar
    51    85    86   ar
    52    80    81    1
    53    81    82    1
    54    30    28    1
    55    89    88   ar
    56    25    24    1
    57    23    24    1
    58    14    12   ar
    59    77    78   ar
    60    27    24    1
    61    27    28    1
    62     7     9   ar
    63    10    12   ar
    64    10     9   ar
    65    86    88   ar
    66    28    29    1
    67    82    83    2
    68    82    94   am
    69    94    95    1
    70    21    19    1
    71   110   108   ar
    72    99   101    1
    73    99    98    1
    74    22    20    1
    75    20    19    1
    76    45    44    2
    77    95    98    1
    78    95    96    1
    79   108   109   ar
    80   108   107    1
    81    98   100    1
    82    19    16    1
    83    17    18    2
    84    17    16    1
    85   122   120    1
    86   123   121    1
    87    16    15    1
    88    96    97    2
    89    44    46   am
    90    44    43    1
    91   107   106    1
    92   117   120    1
    93   117   118    1
    94   117   116    1
    95   120   121    1
    96   118   119    2
    97   115   112    1
    98    43    42    1
    99   102   103    1
   100    42    39    1
   101   106   103    1
   102    36    35    1
   103   103   104    1
   104   112   113    1
   105   112   111    1
   106    37    35    1
   107    40    39    1
   108    40    41    2
   109    39    38    1
   110   113   114    2
   111    35    32    1
   112   104   105    2
   113    32    31    1
   114    32    33    1
   115    33    34    2
