@<TRIPOS>MOLECULE
tmp/4yigA00.pdb
 95 96 0 0 0
SMALL
GASTEIGER

@<TRIPOS>ATOM
      1  N        -49.5330    9.8620  -27.2080 N.3    68  GLY68      -0.1210
      2  CA       -50.3970   11.0260  -27.0710 C.3    68  GLY68       0.1956
      3  C        -49.6250   12.2880  -27.3960 C.2    68  GLY68       0.2612
      4  O        -48.4390   12.2370  -27.6820 O.2    68  GLY68      -0.2717
      5  N        -50.2830   13.4220  -27.2560 N.am   69  ILE69      -0.1965
      6  CA       -49.8050   14.7300  -27.7540 C.3    69  ILE69       0.1727
      7  C        -48.8850   15.3750  -26.6980 C.2    69  ILE69       0.2616
      8  O        -47.7370   15.7750  -26.9700 O.2    69  ILE69      -0.2715
      9  CB       -51.0010   15.6900  -28.0000 C.3    69  ILE69       0.0290
     10  CG1      -52.1620   14.9680  -28.7690 C.3    69  ILE69       0.0022
     11  CG2      -50.5030   16.9280  -28.6820 C.3    69  ILE69       0.0023
     12  CD1      -53.5450   15.6190  -28.7270 C.3    69  ILE69       0.0001
     13  N        -49.4230   15.4770  -25.4890 N.am   70  ASP70      -0.1958
     14  CA       -48.7260   16.0660  -24.3900 C.3    70  ASP70       0.1825
     15  C        -49.4340   15.6750  -23.1060 C.2    70  ASP70       0.2464
     16  O        -50.4970   15.0560  -23.1550 O.2    70  ASP70      -0.2730
     17  CB       -48.5640   17.5960  -24.5910 C.3    70  ASP70       0.1450
     18  CG       -49.8660   18.3660  -24.5790 C.2    70  ASP70       0.3671
     19  OD1      -50.9490   17.7940  -24.8160 O.co2  70  ASP70      -0.2456
     20  OD2      -49.7880   19.5760  -24.3020 O.co2  70  ASP70      -0.2456
     21  N        -48.8610   16.0350  -21.9540 N.am   71  PRO71      -0.2715
     22  CA       -49.5330   15.6460  -20.7280 C.3    71  PRO71       0.1536
     23  C        -50.9240   16.2180  -20.5570 C.2    71  PRO71       0.2598
     24  O        -51.2960   17.1810  -21.2030 O.2    71  PRO71      -0.2715
     25  CB       -48.5950   16.1650  -19.6520 C.3    71  PRO71       0.0310
     26  CG       -47.2600   16.0850  -20.3070 C.3    71  PRO71       0.0237
     27  CD       -47.5170   16.5690  -21.6850 C.3    71  PRO71       0.0939
     28  N        -51.6920   15.5790  -19.7100 N.am   72  TYR72      -0.1961
     29  CA       -52.9370   16.1340  -19.2240 C.3    72  TYR72       0.1756
     30  C        -52.7410   17.6110  -18.9130 C.2    72  TYR72       0.2461
     31  O        -51.7070   18.0020  -18.3480 O.2    72  TYR72      -0.2730
     32  CB       -53.4220   15.3900  -17.9340 C.3    72  TYR72       0.0574
     33  CG       -53.9960   14.0090  -18.2060 C.ar   72  TYR72      -0.0198
     34  CD1      -55.0860   13.8390  -19.0820 C.ar   72  TYR72      -0.0009
     35  CD2      -53.4420   12.8800  -17.6130 C.ar   72  TYR72      -0.0009
     36  CE1      -55.6060   12.5710  -19.3340 C.ar   72  TYR72       0.0417
     37  CE2      -53.9510   11.6120  -17.8520 C.ar   72  TYR72       0.0417
     38  CZ       -55.0150   11.4420  -18.7190 C.ar   72  TYR72       0.1957
     39  OH       -55.4900   10.1680  -18.9590 O.3    72  TYR72      -0.2866
     40  N        -53.7210   18.4410  -19.2610 N.am   73  PRO73      -0.2727
     41  CA       -53.5270   19.8560  -18.9510 C.3    73  PRO73       0.1402
     42  C        -53.3310   20.0650  -17.4550 C.2    73  PRO73       0.2269
     43  O        -52.6000   20.9600  -17.0810 O.2    73  PRO73      -0.2865
     44  CB       -54.8310   20.5340  -19.4570 C.3    73  PRO73       0.0296
     45  CG       -55.7710   19.4460  -19.6950 C.3    73  PRO73       0.0237
     46  CD       -54.9750   18.2090  -19.9940 C.3    73  PRO73       0.0939
     47  N        -46.3770    9.7660  -16.6250 N.3    79  VAL79      -0.1231
     48  CA       -46.6690    8.5540  -17.4350 C.3    79  VAL79       0.1678
     49  C        -47.8540    8.8690  -18.3240 C.2    79  VAL79       0.2434
     50  O        -48.9240    9.2400  -17.8140 O.2    79  VAL79      -0.2733
     51  CB       -46.9810    7.3130  -16.5810 C.3    79  VAL79       0.0265
     52  CG1      -47.3660    6.1190  -17.4490 C.3    79  VAL79       0.0020
     53  CG2      -45.7840    6.9620  -15.7580 C.3    79  VAL79       0.0020
     54  N        -47.6670    8.7580  -19.6440 N.am   80  PRO80      -0.2718
     55  CA       -48.7420    9.2180  -20.4960 C.3    80  PRO80       0.1535
     56  C        -50.0440    8.5100  -20.1550 C.2    80  PRO80       0.2598
     57  O        -50.0220    7.3090  -19.8170 O.2    80  PRO80      -0.2715
     58  CB       -48.2450    8.8870  -21.8950 C.3    80  PRO80       0.0310
     59  CG       -46.7640    8.9280  -21.8160 C.3    80  PRO80       0.0237
     60  CD       -46.3990    8.6060  -20.3880 C.3    80  PRO80       0.0939
     61  N        -51.1230    9.3010  -20.1210 N.am   81  PHE81      -0.1974
     62  CA       -52.5040    8.8710  -19.8260 C.3    81  PHE81       0.1639
     63  C        -52.8400    8.4050  -18.3940 C.2    81  PHE81       0.2290
     64  O        -54.0500    8.1720  -18.0690 O.2    81  PHE81      -0.2864
     65  CB       -52.9410    7.8110  -20.8090 C.3    81  PHE81       0.0560
     66  CG       -52.8280    8.2420  -22.2220 C.ar   81  PHE81      -0.0200
     67  CD1      -53.7940    9.0830  -22.7790 C.ar   81  PHE81      -0.0042
     68  CD2      -51.7540    7.8280  -23.0090 C.ar   81  PHE81      -0.0042
     69  CE1      -53.6930    9.4920  -24.1000 C.ar   81  PHE81      -0.0003
     70  CE2      -51.6610    8.2290  -24.3380 C.ar   81  PHE81      -0.0003
     71  CZ       -52.6250    9.0610  -24.8800 C.ar   81  PHE81      -0.0000
     72  N        -59.7050   10.8080  -20.6900 N.3    90  SER90      -0.1217
     73  CA       -59.0210   10.0660  -21.7480 C.3    90  SER90       0.1889
     74  C        -58.7390    8.6370  -21.3850 C.2    90  SER90       0.2288
     75  O        -58.9380    7.7520  -22.1980 O.2    90  SER90      -0.2866
     76  CB       -57.7000   10.7340  -22.1500 C.3    90  SER90       0.2089
     77  OG       -57.8980   11.9750  -22.7900 O.3    90  SER90      -0.2183
     78  N        -45.7900   10.4680  -24.7810 N.3   122  ASN122     -0.1240
     79  CA       -46.3480   11.7930  -25.0880 C.3   122  ASN122      0.1653
     80  C        -45.3920   12.5390  -25.9650 C.2   122  ASN122      0.2266
     81  O        -44.2050   12.6400  -25.6640 O.2   122  ASN122     -0.2867
     82  CB       -46.5800   12.5840  -23.8120 C.3   122  ASN122      0.1155
     83  CG       -47.9580   12.3500  -23.2210 C.2   122  ASN122      0.2627
     84  OD1      -48.8980   12.0120  -23.9410 O.2   122  ASN122     -0.2716
     85  ND2      -48.1060   12.6170  -21.9250 N.am  122  ASN122     -0.0877
     86  N        -58.5660   11.0050  -30.9650 N.3   183  HIS183     -0.1241
     87  CA       -58.1500   11.1040  -29.5950 C.3   183  HIS183      0.1621
     88  C        -59.3120   10.7040  -28.7010 C.2   183  HIS183      0.2264
     89  O        -60.4530   10.9190  -29.0390 O.2   183  HIS183     -0.2867
     90  CB       -57.7270   12.5480  -29.2800 C.3   183  HIS183      0.0745
     91  CG       -56.9830   12.6680  -28.0010 C.ar  183  HIS183      0.0817
     92  ND1      -57.6170   12.6420  -26.7780 N.ar  183  HIS183     -0.2268
     93  CD2      -55.6550   12.7430  -27.7410 C.ar  183  HIS183      0.1154
     94  CE1      -56.7150   12.7180  -25.8180 C.ar  183  HIS183      0.1986
     95  NE2      -55.5170   12.7810  -26.3760 N.ar  183  HIS183     -0.2212
@<TRIPOS>BOND
     1    86    87    1
     2    87    90    1
     3    87    88    1
     4    90    91    1
     5    89    88    2
     6    10    12    1
     7    10     9    1
     8    11     9    1
     9    91    93   ar
    10    91    92   ar
    11     9     6    1
    12     6     5    1
    13     6     7    1
    14    93    95   ar
    15     4     3    2
    16     3     5   am
    17     3     2    1
    18     1     2    1
    19     8     7    2
    20    92    94   ar
    21     7    13   am
    22    95    94   ar
    23    80    81    2
    24    80    79    1
    25    13    14    1
    26    79    78    1
    27    79    82    1
    28    71    70   ar
    29    71    69   ar
    30    19    18   ar
    31    17    18    1
    32    17    14    1
    33    18    20   ar
    34    14    15    1
    35    70    68   ar
    36    69    67   ar
    37    84    83    2
    38    82    83    1
    39    83    85   am
    40    16    15    2
    41    15    21   am
    42    68    66   ar
    43    77    76    1
    44    67    66   ar
    45    66    65    1
    46    75    74    2
    47    76    73    1
    48    21    27    1
    49    21    22    1
    50    58    59    1
    51    58    55    1
    52    59    60    1
    53    73    74    1
    54    73    72    1
    55    27    26    1
    56    24    23    2
    57    65    62    1
    58    22    23    1
    59    22    25    1
    60    23    28   am
    61    55    56    1
    62    55    54    1
    63    60    54    1
    64    26    25    1
    65    56    61   am
    66    56    57    2
    67    61    62    1
    68    46    45    1
    69    46    40    1
    70    62    63    1
    71    28    29    1
    72    45    44    1
    73    54    49   am
    74    44    41    1
    75    36    34   ar
    76    36    38   ar
    77    40    41    1
    78    40    30   am
    79    29    30    1
    80    29    32    1
    81    34    33   ar
    82    39    38    1
    83    41    42    1
    84    30    31    2
    85    38    37   ar
    86    63    64    2
    87    49    50    2
    88    49    48    1
    89    33    32    1
    90    33    35   ar
    91    37    35   ar
    92    42    43    2
    93    52    51    1
    94    48    47    1
    95    48    51    1
    96    51    53    1
