@<TRIPOS>MOLECULE
tmp/4yihA00.pdb
 185 180 0 0 0
SMALL
GASTEIGER

@<TRIPOS>ATOM
      1  N          3.1940   -4.1020   -1.6830 N.3     7  ASP7       -0.1239
      2  CA         2.2730   -3.0880   -2.1330 C.3     7  ASP7        0.1674
      3  C          2.8290   -1.6950   -1.7880 C.2     7  ASP7        0.2266
      4  O          3.6790   -1.5380   -0.8800 O.2     7  ASP7       -0.2867
      5  CB         0.9780   -3.3160   -1.3180 C.3     7  ASP7        0.1410
      6  CG        -0.1960   -2.4830   -1.7420 C.2     7  ASP7        0.3668
      7  OD1       -0.3700   -2.3850   -3.0160 O.co2   7  ASP7       -0.2456
      8  OD2       -0.9800   -2.1530   -0.7110 O.co2   7  ASP7       -0.2456
      9  N          0.5660    1.6270   -1.6560 N.3     9  ASP9       -0.1239
     10  CA        -0.3520    2.4010   -0.7870 C.3     9  ASP9        0.1674
     11  C         -0.6800    1.7360    0.5030 C.2     9  ASP9        0.2266
     12  O         -1.0710    0.5420    0.5090 O.2     9  ASP9       -0.2867
     13  CB        -1.6280    2.8470   -1.5840 C.3     9  ASP9        0.1410
     14  CG        -1.2730    3.7640   -2.7250 C.2     9  ASP9        0.3668
     15  OD1       -0.5060    4.6800   -2.4640 O.co2   9  ASP9       -0.2456
     16  OD2       -1.5600    3.4910   -3.9820 O.co2   9  ASP9       -0.2456
     17  N         -0.9760    6.7100    1.8720 N.3    15  PHE15      -0.1227
     18  CA        -2.1150    7.1880    1.0570 C.3    15  PHE15       0.1736
     19  C         -3.2050    7.8240    1.9000 C.2    15  PHE15       0.2595
     20  O         -3.7010    8.9370    1.5780 O.2    15  PHE15      -0.2718
     21  CB        -2.6920    6.0450    0.2790 C.3    15  PHE15       0.0547
     22  CG        -3.9130    6.3970   -0.4950 C.ar   15  PHE15      -0.0202
     23  CD1       -5.2120    6.3260    0.1200 C.ar   15  PHE15      -0.0042
     24  CD2       -3.8290    6.7340   -1.8210 C.ar   15  PHE15      -0.0042
     25  CE1       -6.3700    6.6710   -0.5940 C.ar   15  PHE15      -0.0003
     26  CE2       -4.9920    7.0190   -2.5400 C.ar   15  PHE15      -0.0003
     27  CZ        -6.2550    6.9750   -1.9090 C.ar   15  PHE15      -0.0000
     28  N         -3.5300    7.2000    3.0200 N.am   16  GLU16      -0.1979
     29  CA        -4.6540    7.6550    3.8580 C.3    16  GLU16       0.1602
     30  C         -4.3440    8.9970    4.4730 C.2    16  GLU16       0.2287
     31  O         -5.2100    9.9230    4.4480 O.2    16  GLU16      -0.2864
     32  CB        -5.0480    6.6410    4.9110 C.3    16  GLU16       0.0415
     33  CG        -5.6560    5.3550    4.3550 C.3    16  GLU16       0.1163
     34  CD        -7.1100    5.4800    3.8740 C.2    16  GLU16       0.3649
     35  OE1       -7.8470    6.4130    4.3070 O.co2  16  GLU16      -0.2457
     36  OE2       -7.5290    4.7000    2.9800 O.co2  16  GLU16      -0.2457
     37  N        -11.2130   -0.3730    2.5840 N.3    41  PHE41      -0.1227
     38  CA       -10.1790    0.2440    1.8160 C.3    41  PHE41       0.1736
     39  C        -10.7290    1.3120    0.8750 C.2    41  PHE41       0.2595
     40  O         -9.9430    2.1020    0.4990 O.2    41  PHE41      -0.2718
     41  CB        -9.1940   -0.7280    1.0730 C.3    41  PHE41       0.0547
     42  CG        -9.7890   -1.3090   -0.1380 C.ar   41  PHE41      -0.0202
     43  CD1      -10.7550   -2.2820   -0.0230 C.ar   41  PHE41      -0.0042
     44  CD2       -9.4620   -0.8450   -1.3820 C.ar   41  PHE41      -0.0042
     45  CE1      -11.3370   -2.8470   -1.1880 C.ar   41  PHE41      -0.0003
     46  CE2      -10.0220   -1.3500   -2.5160 C.ar   41  PHE41      -0.0003
     47  CZ       -10.9750   -2.3570   -2.4360 C.ar   41  PHE41      -0.0000
     48  N        -12.0270    1.3800    0.5220 N.am   42  LEU42      -0.1966
     49  CA       -12.5460    2.4230   -0.3920 C.3    42  LEU42       0.1728
     50  C        -12.9950    3.6670    0.3770 C.2    42  LEU42       0.2616
     51  O        -14.1700    3.8400    0.8020 O.2    42  LEU42      -0.2715
     52  CB       -13.6610    1.9360   -1.2950 C.3    42  LEU42       0.0311
     53  CG       -13.3430    0.6390   -2.1300 C.3    42  LEU42       0.0022
     54  CD1      -14.5960    0.0480   -2.7360 C.3    42  LEU42       0.0001
     55  CD2      -12.3280    1.0580   -3.1740 C.3    42  LEU42       0.0001
     56  N        -12.0630    4.5870    0.4810 N.am   43  ALA43      -0.1963
     57  CA       -12.2980    5.8860    1.1930 C.3    43  ALA43       0.1728
     58  C        -13.4210    6.6360    0.5620 C.2    43  ALA43       0.2616
     59  O        -14.2780    7.2260    1.2590 O.2    43  ALA43      -0.2715
     60  CB       -11.0320    6.6970    1.1860 C.3    43  ALA43       0.0334
     61  N        -13.4950    6.6180   -0.7770 N.am   44  ARG44      -0.1963
     62  CA       -14.5130    7.4010   -1.4210 C.3    44  ARG44       0.1729
     63  C        -15.9170    6.9510   -0.9840 C.2    44  ARG44       0.2616
     64  O        -16.8390    7.7460   -0.8960 O.2    44  ARG44      -0.2715
     65  CB       -14.3940    7.2030   -2.8910 C.3    44  ARG44       0.0348
     66  CG       -15.3390    7.9750   -3.7750 C.3    44  ARG44       0.0492
     67  CD       -15.2010    7.5430   -5.2410 C.3    44  ARG44       0.2205
     68  NE       -15.8990    8.5680   -6.0130 N.pl3  44  ARG44      -0.0865
     69  CZ       -15.6940    8.8350   -7.2950 C.cat  44  ARG44       0.5346
     70  NH1      -16.4030    9.8230   -7.8730 N.pl3  44  ARG44       0.1354
     71  NH2      -14.7860    8.1140   -7.9860 N.pl3  44  ARG44       0.1354
     72  N        -16.1030    5.6400   -0.8580 N.am   45  GLU45      -0.1977
     73  CA       -17.4390    5.1340   -0.4450 C.3    45  GLU45       0.1602
     74  C        -17.8110    5.4780    0.9960 C.2    45  GLU45       0.2287
     75  O        -18.9990    5.6980    1.2950 O.2    45  GLU45      -0.2864
     76  CB       -17.5380    3.6240   -0.6770 C.3    45  GLU45       0.0415
     77  CG       -17.3520    3.2180   -2.1440 C.3    45  GLU45       0.1163
     78  CD       -18.1920    4.0900   -3.0780 C.2    45  GLU45       0.3649
     79  OE1      -17.6640    4.6100   -4.0590 O.co2  45  GLU45      -0.2457
     80  OE2      -19.4000    4.2690   -2.8240 O.co2  45  GLU45      -0.2457
     81  N         -7.4770   12.4950   -4.7350 N.3    62  TYR62      -0.1241
     82  CA        -6.4800   11.4400   -5.1770 C.3    62  TYR62       0.1605
     83  C         -6.3330   11.3130   -6.6820 C.2    62  TYR62       0.2264
     84  O         -5.3810   10.6000   -7.1530 O.2    62  TYR62      -0.2867
     85  CB        -6.7300   10.0670   -4.4990 C.3    62  TYR62       0.0534
     86  CG        -8.0500    9.3720   -4.8260 C.ar   62  TYR62      -0.0201
     87  CD1       -8.3130    8.8960   -6.1070 C.ar   62  TYR62      -0.0009
     88  CD2       -9.0290    9.1690   -3.8300 C.ar   62  TYR62      -0.0009
     89  CE1       -9.4900    8.2310   -6.4080 C.ar   62  TYR62       0.0417
     90  CE2      -10.1830    8.5290   -4.1170 C.ar   62  TYR62       0.0417
     91  CZ       -10.4230    8.0620   -5.4060 C.ar   62  TYR62       0.1957
     92  OH       -11.5410    7.3650   -5.7400 O.3    62  TYR62      -0.2866
     93  N         -0.0500   11.3910   -5.7650 N.3    68  PHE68      -0.1241
     94  CA         0.7900   10.2280   -5.4960 C.3    68  PHE68       0.1605
     95  C          2.2650   10.6270   -5.3270 C.2    68  PHE68       0.2264
     96  O          2.9850   10.0360   -4.5400 O.2    68  PHE68      -0.2867
     97  CB         0.6610    9.1760   -6.5950 C.3    68  PHE68       0.0534
     98  CG        -0.6220    8.3900   -6.5200 C.ar   68  PHE68      -0.0203
     99  CD1       -0.7330    7.3100   -5.6680 C.ar   68  PHE68      -0.0042
    100  CD2       -1.7480    8.8400   -7.2450 C.ar   68  PHE68      -0.0042
    101  CE1       -1.9180    6.6120   -5.5210 C.ar   68  PHE68      -0.0003
    102  CE2       -2.9130    8.1390   -7.1360 C.ar   68  PHE68      -0.0003
    103  CZ        -3.0250    7.0490   -6.2460 C.ar   68  PHE68      -0.0000
    104  N          1.9910   -3.0560   -7.3360 N.3    96  THR96      -0.1203
    105  CA         0.9970   -1.9650   -7.0590 C.3    96  THR96       0.1994
    106  C          0.0460   -1.8570   -8.2520 C.2    96  THR96       0.2619
    107  O          0.4160   -2.1340   -9.4060 O.2    96  THR96      -0.2717
    108  CB         1.6840   -0.6220   -6.6540 C.3    96  THR96       0.1784
    109  OG1        0.7200    0.3900   -6.3380 O.3    96  THR96      -0.2211
    110  CG2        2.5480   -0.1170   -7.7960 C.3    96  THR96       0.0376
    111  N         -1.1890   -1.5330   -7.9510 N.am   97  SER97      -0.1938
    112  CA        -2.2420   -1.3180   -8.9060 C.3    97  SER97       0.2040
    113  C         -2.4680    0.1620   -9.1660 C.2    97  SER97       0.2485
    114  O         -2.7230    0.9570   -8.2200 O.2    97  SER97      -0.2729
    115  CB        -3.5760   -1.9310   -8.4120 C.3    97  SER97       0.2129
    116  OG        -3.4040   -3.3260   -8.2740 O.3    97  SER97      -0.2179
    117  N         -2.5070    0.5290  -10.4400 N.am   98  PRO98      -0.2715
    118  CA        -2.8430    1.9350  -10.7010 C.3    98  PRO98       0.1536
    119  C         -4.3760    2.1360  -10.6230 C.2    98  PRO98       0.2598
    120  O         -5.1320    1.1720  -10.8250 O.2    98  PRO98      -0.2715
    121  CB        -2.3750    2.1380  -12.1170 C.3    98  PRO98       0.0310
    122  CG        -2.3790    0.7630  -12.7360 C.3    98  PRO98       0.0237
    123  CD        -2.1880   -0.2390  -11.6430 C.3    98  PRO98       0.0939
    124  N         -4.7900    3.3680  -10.3630 N.am   99  LEU99      -0.1964
    125  CA        -6.1840    3.7400  -10.5880 C.3    99  LEU99       0.1728
    126  C         -6.5390    3.4780  -12.0350 C.2    99  LEU99       0.2616
    127  O         -5.6790    3.5940  -12.9330 O.2    99  LEU99      -0.2715
    128  CB        -6.4050    5.2380  -10.3370 C.3    99  LEU99       0.0311
    129  CG        -6.0020    5.8020   -8.9930 C.3    99  LEU99       0.0022
    130  CD1       -6.1870    7.2900   -9.0310 C.3    99  LEU99       0.0001
    131  CD2       -6.7930    5.1980   -7.8540 C.3    99  LEU99       0.0001
    132  N         -7.8070    3.1860  -12.2720 N.am  100  LEU100     -0.1963
    133  CA        -8.4020    3.1680  -13.6120 C.3   100  LEU100      0.1728
    134  C         -8.2260    4.5260  -14.2640 C.2   100  LEU100      0.2616
    135  O         -7.8370    4.5790  -15.3940 O.2   100  LEU100     -0.2715
    136  CB        -9.8940    2.8150  -13.5560 C.3   100  LEU100      0.0311
    137  CG       -10.2910    1.4020  -13.0650 C.3   100  LEU100      0.0022
    138  CD1      -11.8140    1.1070  -13.1320 C.3   100  LEU100      0.0001
    139  CD2       -9.5250    0.3630  -13.8350 C.3   100  LEU100      0.0001
    140  N         -8.4290    5.5950  -13.5130 N.am  101  LYS101     -0.1977
    141  CA        -7.9730    6.9340  -13.9170 C.3   101  LYS101      0.1596
    142  C         -6.4480    7.0750  -13.7660 C.2   101  LYS101      0.2287
    143  O         -5.9510    7.6170  -12.7800 O.2   101  LYS101     -0.2864
    144  CB        -8.6330    7.9910  -13.0370 C.3   101  LYS101      0.0298
    145  CG        -8.3270    9.4270  -13.3550 C.3   101  LYS101      0.0038
    146  CD        -9.0290    9.8150  -14.6170 C.3   101  LYS101      0.0206
    147  CE        -8.9840   11.3320  -14.8210 C.3   101  LYS101      0.1093
    148  NZ        -7.6640   11.7890  -15.2150 N.3   101  LYS101     -0.1314
    149  N         -3.2580   -4.5460  -12.2970 N.3   129  ARG129     -0.1245
    150  CA        -4.5510   -4.6260  -11.6050 C.3   129  ARG129      0.1563
    151  C         -4.8880   -5.9730  -11.0310 C.2   129  ARG129      0.2260
    152  O         -5.9050   -6.1000  -10.3030 O.2   129  ARG129     -0.2867
    153  CB        -5.6690   -4.2270  -12.5770 C.3   129  ARG129      0.0307
    154  CG        -5.5470   -2.8790  -13.1600 C.3   129  ARG129      0.0489
    155  CD        -6.0160   -1.8080  -12.1980 C.3   129  ARG129      0.2205
    156  NE        -7.4630   -2.0040  -11.9290 N.pl3 129  ARG129     -0.0865
    157  CZ        -8.1720   -1.1780  -11.1960 C.cat 129  ARG129      0.5346
    158  NH1       -9.4570   -1.4240  -10.9470 N.pl3 129  ARG129      0.1354
    159  NH2       -7.6160   -0.0930  -10.7210 N.pl3 129  ARG129      0.1354
    160  N         -2.9600   -8.8470   -8.8970 N.3   131  LYS131     -0.1245
    161  CA        -1.7210   -9.2790   -8.2410 C.3   131  LYS131      0.1561
    162  C         -1.6410  -10.7870   -8.2300 C.2   131  LYS131      0.2260
    163  O         -0.5320  -11.3730   -7.9820 O.2   131  LYS131     -0.2867
    164  CB        -1.6230   -8.7140   -6.8250 C.3   131  LYS131      0.0271
    165  CG        -1.3720   -7.1870   -6.8340 C.3   131  LYS131      0.0035
    166  CD        -1.4810   -6.5310   -5.4690 C.3   131  LYS131      0.0206
    167  CE        -1.4340   -5.0290   -5.6350 C.3   131  LYS131      0.1093
    168  NZ        -1.0590   -4.2280   -4.4340 N.3   131  LYS131     -0.1314
    169  N         -2.3000   -3.8960    2.2950 N.3   142  ASP142     -0.1225
    170  CA        -3.1950   -3.4820    3.4120 C.3   142  ASP142      0.1805
    171  C         -4.6590   -3.7450    3.1130 C.2   142  ASP142      0.2597
    172  O         -5.5510   -3.2120    3.8090 O.2   142  ASP142     -0.2718
    173  CB        -3.0090   -2.0030    3.7200 C.3   142  ASP142      0.1424
    174  CG        -3.5050   -1.0800    2.5700 C.2   142  ASP142      0.3668
    175  OD1       -3.4990   -1.4730    1.4230 O.co2 142  ASP142     -0.2456
    176  OD2       -3.8700    0.0900    2.8320 O.co2 142  ASP142     -0.2456
    177  N         -4.9140   -4.4770    2.0480 N.am  143  LYS143     -0.1979
    178  CA        -6.3040   -4.7600    1.5870 C.3   143  LYS143      0.1596
    179  C         -6.6820   -6.1280    2.1010 C.2   143  LYS143      0.2287
    180  O         -5.8420   -7.0510    2.1010 O.2   143  LYS143     -0.2864
    181  CB        -6.3710   -4.6460    0.0370 C.3   143  LYS143      0.0298
    182  CG        -7.7710   -4.6340   -0.5740 C.3   143  LYS143      0.0038
    183  CD        -7.7540   -4.6690   -2.1040 C.3   143  LYS143      0.0206
    184  CE        -9.1660   -4.7680   -2.7040 C.3   143  LYS143      0.1093
    185  NZ        -9.7250   -6.1380   -2.8150 N.3   143  LYS143     -0.1314
@<TRIPOS>BOND
     1   135   134    2
     2   148   147    1
     3   147   146    1
     4   146   145    1
     5   134   133    1
     6   134   140   am
     7   141   142    1
     8   141   140    1
     9   141   144    1
    10   139   137    1
    11   142   143    2
    12   133   136    1
    13   133   132    1
    14   136   137    1
    15   145   144    1
    16   154   153    1
    17   154   155    1
    18   138   137    1
    19   127   126    2
    20   122   121    1
    21   122   123    1
    22   153   150    1
    23   149   150    1
    24   132   126   am
    25   155   156    1
    26   121   118    1
    27   126   125    1
    28   156   157    2
    29   123   117    1
    30   150   151    1
    31   157   158    1
    32   157   159    1
    33   151   152    2
    34   120   119    2
    35   118   119    1
    36   118   117    1
    37   119   124   am
    38   125   124    1
    39   125   128    1
    40   117   113   am
    41   128   129    1
    42   107   106    2
    43   113   112    1
    44   113   114    2
    45   130   129    1
    46   129   131    1
    47   112   115    1
    48   112   111    1
    49   160   161    1
    50   115   116    1
    51   106   111   am
    52   106   105    1
    53   161   162    1
    54   161   164    1
    55   162   163    2
    56    71    69    1
    57    70    69    1
    58   110   108    1
    59   104   105    1
    60    69    68    2
    61   100   102   ar
    62   100    98   ar
    63    84    83    2
    64   102   103   ar
    65   105   108    1
    66   165   164    1
    67   165   166    1
    68    83    82    1
    69   108   109    1
    70    97    98    1
    71    97    94    1
    72    98    99   ar
    73    89    87   ar
    74    89    91   ar
    75   103   101   ar
    76    87    86   ar
    77    68    67    1
    78    93    94    1
    79    92    91    1
    80    99   101   ar
    81   167   166    1
    82   167   168    1
    83    94    95    1
    84    91    90   ar
    85    95    96    2
    86    67    66    1
    87    82    81    1
    88    82    85    1
    89    86    85    1
    90    86    88   ar
    91    90    88   ar
    92    79    78   ar
    93    16    14   ar
    94    66    65    1
    95    55    53    1
    96    78    80   ar
    97    78    77    1
    98     7     6   ar
    99    65    62    1
   100   185   184    1
   101    54    53    1
   102    14    15   ar
   103    14    13    1
   104   184   183    1
   105    26    27   ar
   106    26    24   ar
   107    46    47   ar
   108    46    44   ar
   109    47    45   ar
   110    77    76    1
   111     2     3    1
   112     2     1    1
   113     2     5    1
   114    53    52    1
   115   183   182    1
   116    27    25   ar
   117    24    22   ar
   118     3     4    2
   119     6     5    1
   120     6     8   ar
   121     9    10    1
   122    13    10    1
   123    62    63    1
   124    62    61    1
   125    44    42   ar
   126    52    49    1
   127    45    43   ar
   128    63    64    2
   129    63    72   am
   130    72    73    1
   131    10    11    1
   132    61    58   am
   133    76    73    1
   134    25    23   ar
   135   182   181    1
   136    22    23   ar
   137    22    21    1
   138    73    74    1
   139    49    50    1
   140    49    48    1
   141    42    43   ar
   142    42    41    1
   143   181   178    1
   144    21    18    1
   145    50    56   am
   146    50    51    2
   147    56    57    1
   148    40    39    2
   149    11    12    2
   150    48    39   am
   151    58    57    1
   152    58    59    2
   153    39    38    1
   154    74    75    2
   155    18    17    1
   156    18    19    1
   157    41    38    1
   158    60    57    1
   159   175   174   ar
   160    20    19    2
   161   178   177    1
   162   178   179    1
   163    38    37    1
   164    19    28   am
   165   177   171   am
   166   179   180    2
   167   169   170    1
   168   174   176   ar
   169   174   173    1
   170    36    34   ar
   171    28    29    1
   172   171   170    1
   173   171   172    2
   174   170   173    1
   175    29    30    1
   176    29    32    1
   177    34    35   ar
   178    34    33    1
   179    33    32    1
   180    31    30    2
