@<TRIPOS>MOLECULE
tmp/4yikA00.pdb
 190 187 0 0 0
SMALL
GASTEIGER

@<TRIPOS>ATOM
      1  N         -2.8110   15.4720   18.2710 N.3    15  ASP15      -0.1239
      2  CA        -3.3030   16.5280   19.1330 C.3    15  ASP15       0.1674
      3  C         -4.1990   17.4770   18.3430 C.2    15  ASP15       0.2266
      4  O         -4.1520   17.5400   17.1410 O.2    15  ASP15      -0.2867
      5  CB        -2.0830   17.2650   19.7110 C.3    15  ASP15       0.1410
      6  CG        -2.3930   18.3960   20.6690 C.2    15  ASP15       0.3668
      7  OD1       -3.3100   18.1980   21.5280 O.co2  15  ASP15      -0.2456
      8  OD2       -1.6930   19.4200   20.6280 O.co2  15  ASP15      -0.2456
      9  N         -5.1890   21.2420   19.6350 N.3    17  ASP17      -0.1239
     10  CA        -4.7060   22.6210   19.6830 C.3    17  ASP17       0.1674
     11  C         -3.2460   22.7150   19.3020 C.2    17  ASP17       0.2266
     12  O         -2.4130   22.0600   19.9190 O.2    17  ASP17      -0.2867
     13  CB        -4.9630   23.2410   21.0960 C.3    17  ASP17       0.1410
     14  CG        -6.4500   23.3080   21.4440 C.2    17  ASP17       0.3668
     15  OD1       -7.1850   23.8420   20.5920 O.co2  17  ASP17      -0.2456
     16  OD2       -6.8780   22.7120   22.4870 O.co2  17  ASP17      -0.2456
     17  N         -4.8580   27.4430   17.6370 N.3    23  PHE23      -0.1227
     18  CA        -5.0290   28.0790   18.9560 C.3    23  PHE23       0.1736
     19  C         -4.2790   29.3810   19.0510 C.2    23  PHE23       0.2595
     20  O         -4.8090   30.3720   19.5210 O.2    23  PHE23      -0.2718
     21  CB        -4.5270   27.0780   20.0130 C.3    23  PHE23       0.0547
     22  CG        -4.6500   27.5640   21.4250 C.ar   23  PHE23      -0.0202
     23  CD1       -3.6760   28.3570   21.9910 C.ar   23  PHE23      -0.0042
     24  CD2       -5.7440   27.1570   22.2020 C.ar   23  PHE23      -0.0042
     25  CE1       -3.8440   28.8210   23.3080 C.ar   23  PHE23      -0.0003
     26  CE2       -5.8820   27.5490   23.5550 C.ar   23  PHE23      -0.0003
     27  CZ        -4.9530   28.4110   24.0760 C.ar   23  PHE23      -0.0000
     28  N         -3.0310   29.3830   18.5950 N.am   24  GLU24      -0.1979
     29  CA        -2.2130   30.6230   18.7870 C.3    24  GLU24       0.1602
     30  C         -2.7730   31.7780   17.9590 C.2    24  GLU24       0.2287
     31  O         -2.8930   32.9020   18.4600 O.2    24  GLU24      -0.2864
     32  CB        -0.7380   30.3580   18.4260 C.3    24  GLU24       0.0415
     33  CG        -0.0430   29.4060   19.3680 C.3    24  GLU24       0.1163
     34  CD         0.5080   30.0290   20.6260 C.2    24  GLU24       0.3649
     35  OE1        0.5590   31.2780   20.7430 O.co2  24  GLU24      -0.2457
     36  OE2        0.9180   29.2640   21.5180 O.co2  24  GLU24      -0.2457
     37  N          5.4360   27.4100   26.2360 N.3    49  PHE49      -0.1227
     38  CA         4.1490   26.7900   25.9170 C.3    49  PHE49       0.1736
     39  C          2.9850   27.6400   26.4050 C.2    49  PHE49       0.2595
     40  O          1.9540   27.7160   25.7250 O.2    49  PHE49      -0.2718
     41  CB         4.0590   25.4260   26.5610 C.3    49  PHE49       0.0547
     42  CG         2.9260   24.6030   26.0900 C.ar   49  PHE49      -0.0202
     43  CD1        2.9160   24.1440   24.8080 C.ar   49  PHE49      -0.0042
     44  CD2        1.8610   24.2570   26.9280 C.ar   49  PHE49      -0.0042
     45  CE1        1.9110   23.3640   24.3320 C.ar   49  PHE49      -0.0003
     46  CE2        0.8110   23.4910   26.4640 C.ar   49  PHE49      -0.0003
     47  CZ         0.8400   23.0310   25.1400 C.ar   49  PHE49      -0.0000
     48  N          3.1060   28.2420   27.5760 N.am   50  TRP50      -0.1962
     49  CA         1.9730   28.8670   28.2400 C.3    50  TRP50       0.1771
     50  C          1.8190   30.3140   27.8470 C.2    50  TRP50       0.2619
     51  O          2.5980   31.1970   28.2550 O.2    50  TRP50      -0.2715
     52  CB         2.1030   28.7310   29.7690 C.3    50  TRP50       0.0590
     53  CG         2.2760   27.3580   30.2130 C.ar   50  TRP50       0.0006
     54  CD1        3.3810   26.8130   30.8220 C.ar   50  TRP50       0.0946
     55  CD2        1.3320   26.2980   30.0840 C.ar   50  TRP50       0.0152
     56  NE1        3.1870   25.4790   31.0680 N.ar   50  TRP50      -0.2442
     57  CE2        1.9310   25.1320   30.6280 C.ar   50  TRP50       0.0810
     58  CE3        0.0410   26.2080   29.5420 C.ar   50  TRP50       0.0012
     59  CZ2        1.2910   23.9160   30.6510 C.ar   50  TRP50       0.0191
     60  CZ3       -0.5890   24.9970   29.5580 C.ar   50  TRP50       0.0001
     61  CH2        0.0350   23.8610   30.1060 C.ar   50  TRP50       0.0015
     62  N          0.8240   30.5890   27.0040 N.am   51  VAL51      -0.1963
     63  CA         0.5150   31.9380   26.6050 C.3    51  VAL51       0.1727
     64  C          0.3680   32.8860   27.7990 C.2    51  VAL51       0.2616
     65  O          0.8620   34.0030   27.7650 O.2    51  VAL51      -0.2715
     66  CB        -0.8090   31.9660   25.7470 C.3    51  VAL51       0.0290
     67  CG1       -1.2500   33.4020   25.4170 C.3    51  VAL51       0.0023
     68  CG2       -0.6080   31.1530   24.4860 C.3    51  VAL51       0.0023
     69  N         -0.3800   32.4830   28.8180 N.am   52  SER52      -0.1950
     70  CA        -0.7110   33.4490   29.8480 C.3    52  SER52       0.1924
     71  C          0.5310   33.8670   30.6220 C.2    52  SER52       0.2314
     72  O          0.5800   34.9880   31.1050 O.2    52  SER52      -0.2863
     73  CB        -1.7620   32.9630   30.8090 C.3    52  SER52       0.2116
     74  OG        -1.2390   31.9640   31.6160 O.3    52  SER52      -0.2180
     75  N         -6.4320   34.5800   29.8050 N.3    67  ILE67      -0.1245
     76  CA        -7.2120   33.4210   30.2110 C.3    67  ILE67       0.1561
     77  C         -8.6790   33.5870   29.8220 C.2    67  ILE67       0.2260
     78  O         -9.3340   32.6740   29.3740 O.2    67  ILE67      -0.2867
     79  CB        -7.0760   33.1700   31.7270 C.3    67  ILE67       0.0252
     80  CG1       -5.6590   32.6740   32.0490 C.3    67  ILE67       0.0019
     81  CG2       -8.1530   32.2180   32.2270 C.3    67  ILE67       0.0019
     82  CD1       -5.2290   32.8310   33.4940 C.3    67  ILE67       0.0001
     83  N         -9.6840   32.1990   26.2080 N.3    70  TRP70      -0.1241
     84  CA        -9.9990   30.7820   25.9990 C.3    70  TRP70       0.1605
     85  C        -11.0860   30.2410   26.8680 C.2    70  TRP70       0.2264
     86  O        -11.6400   29.1870   26.5590 O.2    70  TRP70      -0.2867
     87  CB        -8.7600   29.8880   25.9980 C.3    70  TRP70       0.0550
     88  CG        -7.8950   29.9710   27.1840 C.ar   70  TRP70       0.0003
     89  CD1       -8.0920   29.4510   28.4510 C.ar   70  TRP70       0.0946
     90  CD2       -6.6250   30.5930   27.2220 C.ar   70  TRP70       0.0152
     91  NE1       -7.0320   29.7340   29.2550 N.ar   70  TRP70      -0.2442
     92  CE2       -6.1060   30.4340   28.5290 C.ar   70  TRP70       0.0810
     93  CE3       -5.8480   31.2750   26.2690 C.ar   70  TRP70       0.0012
     94  CZ2       -4.8560   30.9390   28.8920 C.ar   70  TRP70       0.0191
     95  CZ3       -4.6260   31.7630   26.6440 C.ar   70  TRP70       0.0001
     96  CH2       -4.1430   31.5880   27.9290 C.ar   70  TRP70       0.0015
     97  N         -6.7890   14.8570   22.6960 N.3   104  THR104     -0.1203
     98  CA        -6.7490   16.2660   23.0810 C.3   104  THR104      0.1994
     99  C         -7.1370   16.4430   24.5320 C.2   104  THR104      0.2619
    100  O         -7.8690   15.6170   25.0800 O.2   104  THR104     -0.2717
    101  CB        -7.7420   17.0890   22.1470 C.3   104  THR104      0.1784
    102  OG1       -7.7230   18.4860   22.4680 O.3   104  THR104     -0.2211
    103  CG2       -9.1220   16.5930   22.1800 C.3   104  THR104      0.0376
    104  N         -6.6140   17.4900   25.1630 N.am  105  SER105     -0.1938
    105  CA        -6.9760   17.7970   26.5430 C.3   105  SER105      0.2040
    106  C         -7.9500   18.9480   26.5950 C.2   105  SER105      0.2485
    107  O         -7.6370   20.0120   26.0350 O.2   105  SER105     -0.2729
    108  CB        -5.7190   18.1590   27.3300 C.3   105  SER105      0.2129
    109  OG        -4.7300   17.1480   27.3360 O.3   105  SER105     -0.2179
    110  N         -9.0630   18.8060   27.2830 N.am  106  PRO106     -0.2715
    111  CA        -9.9100   19.9700   27.5060 C.3   106  PRO106      0.1536
    112  C         -9.2600   20.8420   28.5840 C.2   106  PRO106      0.2598
    113  O         -8.4770   20.3660   29.4110 O.2   106  PRO106     -0.2715
    114  CB       -11.1700   19.3770   28.0150 C.3   106  PRO106      0.0310
    115  CG       -10.7250   18.1300   28.7730 C.3   106  PRO106      0.0237
    116  CD        -9.5210   17.6340   28.0720 C.3   106  PRO106      0.0939
    117  N         -9.5490   22.1370   28.5400 N.am  107  ILE107     -0.1964
    118  CA        -9.1880   23.0120   29.6500 C.3   107  ILE107      0.1727
    119  C        -10.0080   22.6360   30.8790 C.2   107  ILE107      0.2616
    120  O        -11.0400   21.9890   30.7990 O.2   107  ILE107     -0.2715
    121  CB        -9.2700   24.5230   29.2840 C.3   107  ILE107      0.0290
    122  CG1      -10.6710   24.9350   28.9020 C.3   107  ILE107      0.0022
    123  CG2       -8.2600   24.8480   28.1920 C.3   107  ILE107      0.0023
    124  CD1      -10.8700   26.4690   28.9020 C.3   107  ILE107      0.0001
    125  N         -9.5330   23.0870   32.0480 N.am  108  LYS108     -0.1977
    126  CA       -10.1840   22.8070   33.3220 C.3   108  LYS108      0.1596
    127  C        -11.5840   23.3760   33.3820 C.2   108  LYS108      0.2287
    128  O        -12.5030   22.7680   33.9790 O.2   108  LYS108     -0.2864
    129  CB        -9.3850   23.4230   34.4680 C.3   108  LYS108      0.0298
    130  CG        -8.0510   22.7500   34.7140 C.3   108  LYS108      0.0038
    131  CD        -7.3490   23.5230   35.8320 C.3   108  LYS108      0.0206
    132  CE        -6.0160   22.9210   36.2220 C.3   108  LYS108      0.1093
    133  NZ        -5.4360   23.7380   37.3290 N.3   108  LYS108     -0.1314
    134  N         -6.4700   14.4580   30.0870 N.3   137  ARG137     -0.1245
    135  CA        -5.3910   15.3370   30.5900 C.3   137  ARG137      0.1563
    136  C         -4.0630   14.5830   30.7190 C.2   137  ARG137      0.2260
    137  O         -3.0490   15.1900   31.0960 O.2   137  ARG137     -0.2867
    138  CB        -5.7620   15.8610   31.9590 C.3   137  ARG137      0.0307
    139  CG        -7.0490   16.6440   31.9420 C.3   137  ARG137      0.0489
    140  CD        -6.8540   18.0650   31.4980 C.3   137  ARG137      0.2205
    141  NE        -6.2010   18.9260   32.5330 N.pl3 137  ARG137     -0.0865
    142  CZ        -6.0640   20.2590   32.4730 C.cat 137  ARG137      0.5346
    143  NH1       -6.6710   20.9510   31.5090 N.pl3 137  ARG137      0.1354
    144  NH2       -5.4100   20.9080   33.4170 N.pl3 137  ARG137      0.1354
    145  N         -1.9110   11.9660   28.3750 N.3   139  LYS139     -0.1245
    146  CA        -1.7420   11.2140   27.1250 C.3   139  LYS139      0.1561
    147  C         -0.8400    9.9900   27.2790 C.2   139  LYS139      0.2260
    148  O         -0.7830    9.1170   26.4250 O.2   139  LYS139     -0.2867
    149  CB        -1.2200   12.1490   26.0330 C.3   139  LYS139      0.0271
    150  CG        -2.2240   13.2560   25.7520 C.3   139  LYS139      0.0035
    151  CD        -1.9290   14.0610   24.5060 C.3   139  LYS139      0.0206
    152  CE        -2.8470   15.2660   24.4950 C.3   139  LYS139      0.1093
    153  NZ        -2.6750   16.0000   23.2290 N.3   139  LYS139     -0.1314
    154  N          2.1650   16.0440   18.4810 N.3   149  ASP149     -0.1225
    155  CA         1.7420   17.0000   19.5100 C.3   149  ASP149      0.1805
    156  C          2.7310   18.1050   19.6070 C.2   149  ASP149      0.2598
    157  O          3.9440   17.8420   19.5640 O.2   149  ASP149     -0.2718
    158  CB         1.5430   16.2470   20.8130 C.3   149  ASP149      0.1424
    159  CG         0.8730   17.0470   21.8950 C.2   149  ASP149      0.3668
    160  OD1        1.1880   18.2130   22.1200 O.co2 149  ASP149     -0.2456
    161  OD2        0.0150   16.4330   22.6170 O.co2 149  ASP149     -0.2456
    162  N          2.2630   19.3480   19.6560 N.am  150  ASP150     -0.1960
    163  CA         3.1290   20.5120   19.7130 C.3   150  ASP150      0.1840
    164  C          3.7380   20.8040   21.0670 C.2   150  ASP150      0.2621
    165  O          4.5620   21.7170   21.1860 O.2   150  ASP150     -0.2715
    166  CB         2.4390   21.7620   19.1940 C.3   150  ASP150      0.1450
    167  CG         1.2450   22.1850   20.0280 C.2   150  ASP150      0.3671
    168  OD1        0.4310   21.2890   20.3570 O.co2 150  ASP150     -0.2456
    169  OD2        1.1770   23.3890   20.2930 O.co2 150  ASP150     -0.2456
    170  N          3.2890   20.1550   22.1320 N.am  151  ARG151     -0.1977
    171  CA         3.8310   20.4040   23.4600 C.3   151  ARG151      0.1597
    172  C          5.1480   19.6650   23.6400 C.2   151  ARG151      0.2287
    173  O          5.2000   18.4500   23.4170 O.2   151  ARG151     -0.2864
    174  CB         2.8480   19.8760   24.4980 C.3   151  ARG151      0.0334
    175  CG         3.2820   20.1980   25.8950 C.3   151  ARG151      0.0492
    176  CD         2.1620   19.9540   26.9180 C.3   151  ARG151      0.2205
    177  NE         2.7450   20.1160   28.2610 N.pl3 151  ARG151     -0.0865
    178  CZ         2.0270   20.2370   29.3670 C.cat 151  ARG151      0.5346
    179  NH1        0.7370   20.2200   29.2920 N.pl3 151  ARG151      0.1354
    180  NH2        2.6310   20.3140   30.5500 N.pl3 151  ARG151      0.1354
    181  N          5.7610   28.6640   19.4760 N.3   172  HIS172     -0.1241
    182  CA         6.3440   28.5790   20.7480 C.3   172  HIS172      0.1621
    183  C          7.4440   27.5430   20.8980 C.2   172  HIS172      0.2264
    184  O          8.1680   27.5450   21.8890 O.2   172  HIS172     -0.2867
    185  CB         5.2580   28.3390   21.8380 C.3   172  HIS172      0.0745
    186  CG         4.5400   27.0380   21.6610 C.ar  172  HIS172      0.0817
    187  ND1        5.1010   25.8350   22.0160 N.ar  172  HIS172     -0.2268
    188  CD2        3.3410   26.7440   21.1050 C.ar  172  HIS172      0.1154
    189  CE1        4.2870   24.8580   21.6850 C.ar  172  HIS172      0.1986
    190  NE2        3.2140   25.3760   21.1300 N.ar  172  HIS172     -0.2212
@<TRIPOS>BOND
     1     4     3    2
     2    17    18    1
     3    30    31    2
     4    30    29    1
     5     1     2    1
     6     3     2    1
     7    32    29    1
     8    32    33    1
     9   154   155    1
    10    28    29    1
    11    28    19   am
    12    18    19    1
    13    18    21    1
    14    19    20    2
    15     2     5    1
    16   166   163    1
    17   166   167    1
    18    11    10    1
    19    11    12    2
    20    33    34    1
    21   181   182    1
    22   155   156    1
    23   155   158    1
    24   157   156    2
    25   156   162   am
    26     9    10    1
    27   162   163    1
    28    10    13    1
    29     5     6    1
    30   163   164    1
    31    21    22    1
    32   167   169   ar
    33   167   168   ar
    34    15    14   ar
    35    34    35   ar
    36    34    36   ar
    37     8     6   ar
    38     6     7   ar
    39   182   183    1
    40   182   185    1
    41   158   159    1
    42   183   184    2
    43   164   165    2
    44   164   170   am
    45    13    14    1
    46   188   190   ar
    47   188   186   ar
    48   190   189   ar
    49    22    23   ar
    50    22    24   ar
    51    14    16   ar
    52   186   185    1
    53   186   187   ar
    54   189   187   ar
    55   159   160   ar
    56   159   161   ar
    57    23    25   ar
    58   170   171    1
    59   101   103    1
    60   101   102    1
    61   101    98    1
    62    24    26   ar
    63    97    98    1
    64    98    99    1
    65   153   152    1
    66    25    27   ar
    67   173   172    2
    68   171   172    1
    69   171   174    1
    70    26    27   ar
    71    45    43   ar
    72    45    47   ar
    73    68    66    1
    74   152   151    1
    75   174   175    1
    76   151   150    1
    77    99   100    2
    78    99   104   am
    79    43    42   ar
    80    47    46   ar
    81   104   105    1
    82    67    66    1
    83    40    39    2
    84    66    63    1
    85   150   149    1
    86   175   176    1
    87    38    37    1
    88    38    39    1
    89    38    41    1
    90    87    84    1
    91    87    88    1
    92    84    83    1
    93    84    85    1
    94   149   146    1
    95   107   106    2
    96    42    41    1
    97    42    44   ar
    98    93    95   ar
    99    93    90   ar
   100    39    48   am
   101   148   147    2
   102    46    44   ar
   103   105   106    1
   104   105   108    1
   105    86    85    2
   106   106   110   am
   107    63    62    1
   108    63    64    1
   109    95    96   ar
   110   176   177    1
   111    62    50   am
   112   146   147    1
   113   146   145    1
   114    88    90   ar
   115    88    89   ar
   116    90    92   ar
   117   110   111    1
   118   110   116    1
   119   108   109    1
   120   111   114    1
   121   111   112    1
   122    48    49    1
   123    65    64    2
   124    64    69   am
   125    50    49    1
   126    50    51    2
   127    96    94   ar
   128   114   115    1
   129   116   115    1
   130   123   121    1
   131    49    52    1
   132   177   178    2
   133    89    91   ar
   134    92    94   ar
   135    92    91   ar
   136   117   112   am
   137   117   118    1
   138   112   113    2
   139    69    70    1
   140   124   122    1
   141   122   121    1
   142   121   118    1
   143   179   178    1
   144   178   180    1
   145    78    77    2
   146    58    60   ar
   147    58    55   ar
   148    60    61   ar
   149   118   119    1
   150    52    53    1
   151    75    76    1
   152    77    76    1
   153    70    71    1
   154    70    73    1
   155    55    53   ar
   156    55    57   ar
   157   134   135    1
   158    61    59   ar
   159    76    79    1
   160    53    54   ar
   161   135   136    1
   162   135   138    1
   163    71    72    2
   164    57    59   ar
   165    57    56   ar
   166   136   137    2
   167   120   119    2
   168    73    74    1
   169    54    56   ar
   170   119   125   am
   171   140   139    1
   172   140   141    1
   173   143   142    1
   174    79    80    1
   175    79    81    1
   176   139   138    1
   177   125   126    1
   178    80    82    1
   179   142   141    2
   180   142   144    1
   181   126   127    1
   182   126   129    1
   183   127   128    2
   184   129   130    1
   185   130   131    1
   186   131   132    1
   187   132   133    1
