@<TRIPOS>MOLECULE
tmp/4yilA01.pdb
 163 156 0 0 0
SMALL
GASTEIGER

@<TRIPOS>ATOM
      1  N         -4.5380   38.1240   -5.7860 N.3    35  PRO35      -0.2116
      2  CA        -3.1140   38.3050   -6.1040 C.3    35  PRO35       0.1372
      3  C         -2.9010   38.9790   -7.4550 C.2    35  PRO35       0.2244
      4  O         -3.4780   38.5600   -8.4630 O.2    35  PRO35      -0.2868
      5  CB        -2.5650   36.8640   -6.0960 C.3    35  PRO35       0.0268
      6  CG        -3.8060   35.9710   -6.3790 C.3    35  PRO35       0.0207
      7  CD        -4.9290   36.7080   -5.6660 C.3    35  PRO35       0.0892
      8  N          0.3650   40.3300   -9.6190 N.3    37  THR37      -0.1218
      9  CA         1.7600   40.5840   -9.9700 C.3    37  THR37       0.1862
     10  C          1.9140   41.9540  -10.6290 C.2    37  THR37       0.2287
     11  O          1.1700   42.2880  -11.5520 O.2    37  THR37      -0.2866
     12  CB         2.2600   39.4690  -10.8910 C.3    37  THR37       0.1770
     13  OG1        2.4020   38.2800  -10.1170 O.3    37  THR37      -0.2211
     14  CG2        3.6110   39.8210  -11.5090 C.3    37  THR37       0.0375
     15  N          5.4150   43.4560  -10.8990 N.3    39  MET39      -0.1245
     16  CA         6.7800   43.5370  -11.4340 C.3    39  MET39       0.1570
     17  C          7.5580   44.7900  -11.0220 C.2    39  MET39       0.2261
     18  O          8.3460   45.3210  -11.8100 O.2    39  MET39      -0.2867
     19  CB         6.7770   43.4430  -12.9650 C.3    39  MET39       0.0387
     20  CG         6.2080   42.1560  -13.5270 C.3    39  MET39       0.0595
     21  SD         6.9420   40.6850  -12.8120 S.3    39  MET39      -0.1393
     22  CE         6.2590   39.4440  -13.9010 C.3    39  MET39       0.0692
     23  N          1.9570   37.2830   -6.4070 N.3    72  GLY72      -0.1210
     24  CA         2.6950   36.0430   -6.2490 C.3    72  GLY72       0.1956
     25  C          4.1230   36.2700   -5.7610 C.2    72  GLY72       0.2612
     26  O          4.8060   37.1840   -6.2100 O.2    72  GLY72      -0.2717
     27  N          4.5660   35.4260   -4.8380 N.am   73  ALA73      -0.1965
     28  CA         5.9220   35.5380   -4.2960 C.3    73  ALA73       0.1728
     29  C          6.6480   34.2090   -4.4410 C.2    73  ALA73       0.2616
     30  O          6.1620   33.1800   -3.9720 O.2    73  ALA73      -0.2715
     31  CB         5.8620   35.9550   -2.8400 C.3    73  ALA73       0.0334
     32  N          7.8070   34.2270   -5.0990 N.am   74  PHE74      -0.1974
     33  CA         8.5670   33.0060   -5.3320 C.3    74  PHE74       0.1639
     34  C          9.0390   32.3850   -4.0200 C.2    74  PHE74       0.2290
     35  O          9.5850   33.0760   -3.1500 O.2    74  PHE74      -0.2864
     36  CB         9.8210   33.3020   -6.1660 C.3    74  PHE74       0.0560
     37  CG         9.5460   33.8110   -7.5520 C.ar   74  PHE74      -0.0200
     38  CD1        8.5320   33.2670   -8.3310 C.ar   74  PHE74      -0.0042
     39  CD2       10.3410   34.8080   -8.0930 C.ar   74  PHE74      -0.0042
     40  CE1        8.3030   33.7410   -9.6190 C.ar   74  PHE74      -0.0003
     41  CE2       10.1140   35.2860   -9.3740 C.ar   74  PHE74      -0.0003
     42  CZ         9.0970   34.7470  -10.1410 C.ar   74  PHE74      -0.0000
     43  N         11.5150   35.3970  -13.1470 N.3    82  TYR82      -0.1241
     44  CA        11.2450   36.7810  -13.5120 C.3    82  TYR82       0.1605
     45  C         12.0480   37.6640  -12.5670 C.2    82  TYR82       0.2264
     46  O         11.8730   37.5840  -11.3510 O.2    82  TYR82      -0.2867
     47  CB         9.7620   37.1220  -13.3420 C.3    82  TYR82       0.0534
     48  CG         8.7840   36.2720  -14.1300 C.ar   82  TYR82      -0.0201
     49  CD1        9.1460   35.6630  -15.3240 C.ar   82  TYR82      -0.0009
     50  CD2        7.4860   36.0960  -13.6710 C.ar   82  TYR82      -0.0009
     51  CE1        8.2340   34.8980  -16.0380 C.ar   82  TYR82       0.0417
     52  CE2        6.5720   35.3340  -14.3660 C.ar   82  TYR82       0.0417
     53  CZ         6.9450   34.7370  -15.5510 C.ar   82  TYR82       0.1957
     54  OH         6.0310   33.9750  -16.2520 O.3    82  TYR82      -0.2866
     55  N          9.7560   40.1340  -10.0730 N.3    85  ALA85      -0.1245
     56  CA         8.7440   39.6380   -9.1350 C.3    85  ALA85       0.1562
     57  C          9.4500   39.2880   -7.8250 C.2    85  ALA85       0.2260
     58  O         10.6100   38.8660   -7.8300 O.2    85  ALA85      -0.2867
     59  CB         8.0270   38.4130   -9.7020 C.3    85  ALA85       0.0290
     60  N          0.5760   35.0820   -1.4130 N.3   114  GLN114     -0.1245
     61  CA         0.4620   34.0160   -2.3990 C.3   114  GLN114      0.1566
     62  C          1.8430   33.4280   -2.6970 C.2   114  GLN114      0.2260
     63  O          2.7720   34.1610   -3.0600 O.2   114  GLN114     -0.2867
     64  CB        -0.1960   34.4640   -3.7020 C.3   114  GLN114      0.0367
     65  CG        -0.3400   33.2650   -4.6470 C.3   114  GLN114      0.0905
     66  CD        -0.8860   33.6200   -6.0160 C.2   114  GLN114      0.2608
     67  OE1       -0.1820   34.2040   -6.8460 O.2   114  GLN114     -0.2717
     68  NE2       -2.1530   33.2480   -6.2670 N.am  114  GLN114     -0.0878
     69  N          4.2340   31.3180   -4.9910 N.3   116  ALA116     -0.1245
     70  CA         4.3040   31.1040   -6.4310 C.3   116  ALA116      0.1562
     71  C          5.4860   30.2360   -6.8620 C.2   116  ALA116      0.2260
     72  O          6.5870   30.3280   -6.3030 O.2   116  ALA116     -0.2867
     73  CB         4.3580   32.4460   -7.1490 C.3   116  ALA116      0.0290
     74  N          6.8010   29.0190  -10.8460 N.3   118  LEU118     -0.1245
     75  CA         6.4750   29.2730  -12.2530 C.3   118  LEU118      0.1561
     76  C          6.3720   28.0490  -13.1600 C.2   118  LEU118      0.2260
     77  O          5.5650   28.0450  -14.0970 O.2   118  LEU118     -0.2867
     78  CB         7.4790   30.2480  -12.8720 C.3   118  LEU118      0.0270
     79  CG         7.5410   31.6420  -12.2590 C.3   118  LEU118      0.0019
     80  CD1        8.4880   32.5120  -13.0750 C.3   118  LEU118      0.0001
     81  CD2        6.1460   32.2750  -12.1950 C.3   118  LEU118      0.0001
     82  N         -0.8340   28.9490   -4.6760 N.3   191  HIS191     -0.1241
     83  CA        -1.2540   29.1340   -6.0590 C.3   191  HIS191      0.1621
     84  C         -1.2270   27.8030   -6.8070 C.2   191  HIS191      0.2264
     85  O         -0.1650   27.2180   -7.0150 O.2   191  HIS191     -0.2867
     86  CB        -0.3300   30.1130   -6.7560 C.3   191  HIS191      0.0745
     87  CG        -0.8320   30.5700   -8.0890 C.ar  191  HIS191      0.0817
     88  ND1        0.0040   30.7930   -9.1590 N.ar  191  HIS191     -0.2268
     89  CD2       -2.0810   30.8670   -8.5210 C.ar  191  HIS191      0.1154
     90  CE1       -0.7070   31.2110  -10.1930 C.ar  191  HIS191      0.1986
     91  NE2       -1.9740   31.2660   -9.8310 N.ar  191  HIS191     -0.2212
     92  N         -3.9050   29.2210  -12.9640 N.3   194  ASN194     -0.1240
     93  CA        -3.3390   30.0810  -13.9950 C.3   194  ASN194      0.1653
     94  C         -2.1650   29.4980  -14.7780 C.2   194  ASN194      0.2266
     95  O         -1.4040   30.2430  -15.4030 O.2   194  ASN194     -0.2867
     96  CB        -2.9880   31.4550  -13.4140 C.3   194  ASN194      0.1155
     97  CG        -4.1930   32.1440  -12.8050 C.2   194  ASN194      0.2627
     98  OD1       -5.2080   32.3360  -13.4730 O.2   194  ASN194     -0.2716
     99  ND2       -4.0990   32.5050  -11.5300 N.am  194  ASN194     -0.0877
    100  N          0.5650   27.8360  -13.8170 N.3   196  TYR196     -0.1241
    101  CA         1.8880   27.7640  -13.2210 C.3   196  TYR196      0.1605
    102  C          2.1890   26.3350  -12.7710 C.2   196  TYR196      0.2264
    103  O          1.4590   25.4130  -13.1350 O.2   196  TYR196     -0.2867
    104  CB         2.0300   28.7960  -12.1090 C.3   196  TYR196      0.0534
    105  CG         2.3430   30.1650  -12.6690 C.ar  196  TYR196     -0.0201
    106  CD1        2.5730   31.2440  -11.8390 C.ar  196  TYR196     -0.0009
    107  CD2        2.4090   30.3740  -14.0360 C.ar  196  TYR196     -0.0009
    108  CE1        2.8700   32.4860  -12.3360 C.ar  196  TYR196      0.0417
    109  CE2        2.7030   31.6200  -14.5480 C.ar  196  TYR196      0.0417
    110  CZ         2.9320   32.6700  -13.6910 C.ar  196  TYR196      0.1957
    111  OH         3.2310   33.9110  -14.1870 O.3   196  TYR196     -0.2866
    112  N         -5.7830   28.3550   -4.3630 N.3   243  ARG243     -0.1245
    113  CA        -6.3520   28.9750   -5.5600 C.3   243  ARG243      0.1563
    114  C         -6.3350   28.0440   -6.7680 C.2   243  ARG243      0.2260
    115  O         -5.3110   27.4280   -7.0750 O.2   243  ARG243     -0.2867
    116  CB        -5.6550   30.3000   -5.9090 C.3   243  ARG243      0.0307
    117  CG        -6.4500   31.1070   -6.9360 C.3   243  ARG243      0.0489
    118  CD        -5.9310   32.5290   -7.1470 C.3   243  ARG243      0.2205
    119  NE        -7.0260   33.4390   -7.4890 N.pl3 243  ARG243     -0.0865
    120  CZ        -6.9650   34.4220   -8.3840 C.cat 243  ARG243      0.5346
    121  NH1       -5.8530   34.6290   -9.0960 N.pl3 243  ARG243      0.1354
    122  NH2       -8.0300   35.2020   -8.5770 N.pl3 243  ARG243      0.1354
    123  N         -5.0250   30.3190  -19.8370 N.3   250  PHE250     -0.1241
    124  CA        -3.7720   31.0580  -19.7000 C.3   250  PHE250      0.1605
    125  C         -2.6130   30.1100  -19.3920 C.2   250  PHE250      0.2264
    126  O         -2.7400   29.1790  -18.5830 O.2   250  PHE250     -0.2867
    127  CB        -3.9230   32.1060  -18.5950 C.3   250  PHE250      0.0534
    128  CG        -2.7360   33.0260  -18.4490 C.ar  250  PHE250     -0.0203
    129  CD1       -2.2710   33.7670  -19.5250 C.ar  250  PHE250     -0.0042
    130  CD2       -2.1190   33.1740  -17.2210 C.ar  250  PHE250     -0.0042
    131  CE1       -1.1770   34.6150  -19.3780 C.ar  250  PHE250     -0.0003
    132  CE2       -1.0370   34.0320  -17.0610 C.ar  250  PHE250     -0.0003
    133  CZ        -0.5670   34.7450  -18.1400 C.ar  250  PHE250     -0.0000
    134  N         -6.4550   36.4880  -18.0620 N.3   295  PRO295     -0.2102
    135  CA        -6.6150   37.8030  -17.4270 C.3   295  PRO295      0.1504
    136  C         -5.9490   38.9450  -18.1930 C.2   295  PRO295      0.2575
    137  O         -6.0450   40.1030  -17.7750 O.2   295  PRO295     -0.2718
    138  CB        -5.9460   37.6030  -16.0650 C.3   295  PRO295      0.0282
    139  CG        -4.8410   36.6150  -16.3530 C.3   295  PRO295      0.0208
    140  CD        -5.4020   35.6810  -17.4160 C.3   295  PRO295      0.0893
    141  N         -5.2950   38.6160  -19.3050 N.am  296  PHE296     -0.1977
    142  CA        -4.7110   39.6350  -20.1690 C.3   296  PHE296      0.1639
    143  C         -5.5360   39.9200  -21.4180 C.2   296  PHE296      0.2290
    144  O         -5.0970   40.6210  -22.3290 O.2   296  PHE296     -0.2864
    145  CB        -3.2600   39.2810  -20.4620 C.3   296  PHE296      0.0560
    146  CG        -2.4180   39.3060  -19.2280 C.ar  296  PHE296     -0.0200
    147  CD1       -2.0690   40.5180  -18.6570 C.ar  296  PHE296     -0.0042
    148  CD2       -2.0540   38.1380  -18.5890 C.ar  296  PHE296     -0.0042
    149  CE1       -1.3270   40.5630  -17.4920 C.ar  296  PHE296     -0.0003
    150  CE2       -1.3130   38.1800  -17.4210 C.ar  296  PHE296     -0.0003
    151  CZ        -0.9550   39.3900  -16.8730 C.ar  296  PHE296     -0.0000
    152  N          2.5840   45.8000  -15.6400 N.3   375  TYR375     -0.1241
    153  CA         3.9640   45.4190  -15.3860 C.3   375  TYR375      0.1605
    154  C          4.8100   46.5770  -15.8850 C.2   375  TYR375      0.2264
    155  O          4.8170   46.8700  -17.0750 O.2   375  TYR375     -0.2867
    156  CB         4.3580   44.1810  -16.1900 C.3   375  TYR375      0.0534
    157  CG         3.6430   42.8780  -15.8670 C.ar  375  TYR375     -0.0201
    158  CD1        2.8040   42.7480  -14.7640 C.ar  375  TYR375     -0.0009
    159  CD2        3.8380   41.7630  -16.6740 C.ar  375  TYR375     -0.0009
    160  CE1        2.1660   41.5390  -14.4910 C.ar  375  TYR375      0.0417
    161  CE2        3.2160   40.5570  -16.4100 C.ar  375  TYR375      0.0417
    162  CZ         2.3820   40.4500  -15.3210 C.ar  375  TYR375      0.1957
    163  OH         1.7620   39.2460  -15.0710 O.3   375  TYR375     -0.2866
@<TRIPOS>BOND
     1   144   143    2
     2   143   142    1
     3   145   142    1
     4   145   146    1
     5   142   141    1
     6   123   124    1
     7   124   125    1
     8   124   127    1
     9   129   131   ar
    10   129   128   ar
    11   125   126    2
    12   131   133   ar
    13   141   136   am
    14   146   147   ar
    15   146   148   ar
    16   147   149   ar
    17   127   128    1
    18   148   150   ar
    19   128   130   ar
    20   136   137    2
    21   136   135    1
    22   133   132   ar
    23   134   135    1
    24   134   140    1
    25   149   151   ar
    26   135   138    1
    27   150   151   ar
    28   140   139    1
    29   130   132   ar
    30   155   154    2
    31   159   161   ar
    32   159   157   ar
    33   161   162   ar
    34   139   138    1
    35    54    53    1
    36   156   157    1
    37   156   153    1
    38    51    53   ar
    39    51    49   ar
    40   154   153    1
    41   157   158   ar
    42   152   153    1
    43    53    52   ar
    44    95    94    2
    45    49    48   ar
    46   162   163    1
    47   162   160   ar
    48    94    93    1
    49   158   160   ar
    50   109   107   ar
    51   109   110   ar
    52    52    50   ar
    53   111   110    1
    54    48    50   ar
    55    48    47    1
    56    77    76    2
    57   107   105   ar
    58    93    96    1
    59    93    92    1
    60    22    21    1
    61   100   101    1
    62   110   108   ar
    63    20    19    1
    64    20    21    1
    65    44    47    1
    66    44    43    1
    67    44    45    1
    68    98    97    2
    69    96    97    1
    70   101   102    1
    71   101   104    1
    72    76    75    1
    73   103   102    2
    74    80    79    1
    75    19    16    1
    76    78    79    1
    77    78    75    1
    78    97    99   am
    79   105   104    1
    80   105   106   ar
    81    45    46    2
    82   108   106   ar
    83    79    81    1
    84    75    74    1
    85    18    17    2
    86    11    10    2
    87    14    12    1
    88    16    17    1
    89    16    15    1
    90    12    13    1
    91    12     9    1
    92    10     9    1
    93    90    91   ar
    94    90    88   ar
    95    42    40   ar
    96    42    41   ar
    97    55    56    1
    98     9     8    1
    99    91    89   ar
   100    59    56    1
   101    40    38   ar
   102    41    39   ar
   103    88    87   ar
   104    56    57    1
   105   121   120    1
   106   122   120    1
   107    89    87   ar
   108     4     3    2
   109   120   119    2
   110    38    37   ar
   111    39    37   ar
   112    87    86    1
   113    58    57    2
   114    37    36    1
   115   119   118    1
   116     3     2    1
   117    73    70    1
   118   118   117    1
   119   115   114    2
   120    85    84    2
   121   117   116    1
   122    71    70    1
   123    71    72    2
   124    67    66    2
   125    84    83    1
   126   114   113    1
   127    86    83    1
   128    70    69    1
   129    23    24    1
   130     6     5    1
   131     6     7    1
   132    68    66   am
   133    24    25    1
   134    26    25    2
   135    36    33    1
   136     2     5    1
   137     2     1    1
   138    83    82    1
   139    66    65    1
   140   116   113    1
   141     1     7    1
   142    25    27   am
   143   113   112    1
   144    33    32    1
   145    33    34    1
   146    32    29   am
   147    27    28    1
   148    65    64    1
   149    29    28    1
   150    29    30    2
   151    28    31    1
   152    34    35    2
   153    64    61    1
   154    63    62    2
   155    62    61    1
   156    61    60    1
