@<TRIPOS>MOLECULE
tmp/4yinA00.pdb
 121 115 0 0 0
SMALL
GASTEIGER

@<TRIPOS>ATOM
      1  N         24.8980  -13.3690   -1.8770 N.3    47  ALA47      -0.1231
      2  CA        25.7500  -13.2670   -0.6800 C.3    47  ALA47       0.1694
      3  C         24.8070  -12.9190    0.5060 C.2    47  ALA47       0.2592
      4  O         23.6820  -13.4240    0.5430 O.2    47  ALA47      -0.2718
      5  CB        26.8570  -12.2370   -0.9070 C.3    47  ALA47       0.0304
      6  N         25.2180  -12.0510    1.4280 N.am   48  SER48      -0.1952
      7  CA        24.4090  -11.7510    2.6080 C.3    48  SER48       0.1924
      8  C         23.0670  -11.0250    2.3570 C.2    48  SER48       0.2314
      9  O         22.2690  -10.8920    3.3050 O.2    48  SER48      -0.2863
     10  CB        25.2140  -10.9480    3.6030 C.3    48  SER48       0.2116
     11  OG        26.0660  -11.7810    4.3410 O.3    48  SER48      -0.2180
     12  N         20.2120  -12.9810    3.4230 N.3    51  LYS51      -0.1245
     13  CA        19.7470  -12.9700    4.8130 C.3    51  LYS51       0.1561
     14  C         18.3060  -12.4010    4.9880 C.2    51  LYS51       0.2260
     15  O         17.6510  -12.7040    6.0050 O.2    51  LYS51      -0.2867
     16  CB        20.7670  -12.3090    5.7570 C.3    51  LYS51       0.0271
     17  CG        22.0650  -13.1100    5.8220 C.3    51  LYS51       0.0035
     18  CD        23.1940  -12.4820    6.6270 C.3    51  LYS51       0.0206
     19  CE        24.3500  -13.4760    6.7310 C.3    51  LYS51       0.1093
     20  NZ        24.7750  -14.0290    5.3980 N.3    51  LYS51      -0.1314
     21  N         34.5660  -13.8740   12.6530 N.3    80  MET80      -0.1245
     22  CA        34.7670  -12.4700   13.1110 C.3    80  MET80       0.1570
     23  C         34.4790  -12.3160   14.6120 C.2    80  MET80       0.2261
     24  O         33.5950  -12.9840   15.1530 O.2    80  MET80      -0.2867
     25  CB        33.9410  -11.4420   12.3070 C.3    80  MET80       0.0387
     26  CG        34.0820  -11.5130   10.7850 C.3    80  MET80       0.0595
     27  SD        34.1230   -9.9070    9.9420 S.3    80  MET80      -0.1393
     28  CE        35.8910   -9.5430    9.9690 C.3    80  MET80       0.0692
     29  N         33.1960   -9.6660   16.1760 N.3    82  GLN82      -0.1231
     30  CA        31.8740   -9.0710   16.3300 C.3    82  GLN82       0.1698
     31  C         30.7300  -10.0940   16.2170 C.2    82  GLN82       0.2592
     32  O         29.5760   -9.7520   16.4830 O.2    82  GLN82      -0.2718
     33  CB        31.7000   -7.9390   15.3110 C.3    82  GLN82       0.0381
     34  CG        32.1130   -8.3660   13.9180 C.3    82  GLN82       0.0905
     35  CD        31.5750   -7.4780   12.8240 C.2    82  GLN82       0.2608
     36  OE1       31.2740   -7.9610   11.7300 O.2    82  GLN82      -0.2717
     37  NE2       31.4540   -6.1760   13.1000 N.am   82  GLN82      -0.0878
     38  N         31.0380  -11.3250   15.8070 N.am   83  TRP83      -0.1976
     39  CA        30.0390  -12.4020   15.8040 C.3    83  TRP83       0.1640
     40  C         30.1250  -13.2620   17.0640 C.2    83  TRP83       0.2290
     41  O         29.3010  -14.1660   17.2640 O.2    83  TRP83      -0.2864
     42  CB        30.1640  -13.3270   14.5670 C.3    83  TRP83       0.0576
     43  CG        30.0000  -12.6610   13.2330 C.ar   83  TRP83       0.0006
     44  CD1       29.4510  -11.4280   12.9870 C.ar   83  TRP83       0.0946
     45  CD2       30.3810  -13.1910   11.9480 C.ar   83  TRP83       0.0152
     46  NE1       29.4740  -11.1560   11.6440 N.ar   83  TRP83      -0.2442
     47  CE2       30.0370  -12.2150   10.9770 C.ar   83  TRP83       0.0810
     48  CE3       30.9840  -14.3910   11.5220 C.ar   83  TRP83       0.0012
     49  CZ2       30.2850  -12.3990    9.5960 C.ar   83  TRP83       0.0191
     50  CZ3       31.2220  -14.5780   10.1420 C.ar   83  TRP83       0.0001
     51  CH2       30.8790  -13.5860    9.2030 C.ar   83  TRP83       0.0015
     52  N         22.6520   -6.9420   10.6420 N.3    94  GLN94      -0.1231
     53  CA        23.5970   -5.8120   10.4490 C.3    94  GLN94       0.1698
     54  C         25.0880   -6.1870   10.3190 C.2    94  GLN94       0.2592
     55  O         25.8620   -5.4530    9.6890 O.2    94  GLN94      -0.2718
     56  CB        23.4220   -4.7420   11.5400 C.3    94  GLN94       0.0381
     57  CG        22.0200   -4.1630   11.6630 C.3    94  GLN94       0.0905
     58  CD        21.6210   -3.2380   10.5080 C.2    94  GLN94       0.2608
     59  OE1       22.3260   -2.2580   10.2190 O.2    94  GLN94      -0.2717
     60  NE2       20.4520   -3.5150    9.8750 N.am   94  GLN94      -0.0878
     61  N         25.4910   -7.3110   10.9090 N.am   95  VAL95      -0.1966
     62  CA        26.8960   -7.7390   10.8370 C.3    95  VAL95       0.1727
     63  C         27.0160   -8.9620    9.9370 C.2    95  VAL95       0.2616
     64  O         28.0580   -9.6130    9.8820 O.2    95  VAL95      -0.2715
     65  CB        27.5770   -7.9520   12.2390 C.3    95  VAL95       0.0290
     66  CG1       27.6040   -6.6530   13.0500 C.3    95  VAL95       0.0023
     67  CG2       26.9170   -9.0600   13.0540 C.3    95  VAL95       0.0023
     68  N         25.9350   -9.2590    9.2190 N.am   96  SER96      -0.1950
     69  CA        25.9010  -10.3870    8.2970 C.3    96  SER96       0.1924
     70  C         26.5530  -11.6170    8.9370 C.2    96  SER96       0.2314
     71  O         27.5260  -12.1730    8.4100 O.2    96  SER96      -0.2863
     72  CB        26.5740  -10.0310    6.9550 C.3    96  SER96       0.2116
     73  OG        26.0220   -8.8640    6.3850 O.3    96  SER96      -0.2180
     74  N         27.1680  -14.9210    9.3870 N.3    98  VAL98      -0.1245
     75  CA        27.1890  -16.2150    8.6390 C.3    98  VAL98       0.1561
     76  C         26.7800  -17.4280    9.4930 C.2    98  VAL98       0.2260
     77  O         25.8530  -18.1530    9.1140 O.2    98  VAL98      -0.2867
     78  CB        28.5800  -16.4690    7.9180 C.3    98  VAL98       0.0252
     79  CG1       28.6640  -17.8710    7.3250 C.3    98  VAL98       0.0019
     80  CG2       28.8400  -15.4360    6.8200 C.3    98  VAL98       0.0019
     81  N         23.6560   -5.0870    2.8810 N.3   175  THR175     -0.1203
     82  CA        24.8590   -5.3340    2.0880 C.3   175  THR175      0.1994
     83  C         25.0330   -6.8150    1.7900 C.2   175  THR175      0.2618
     84  O         24.4810   -7.6790    2.4530 O.2   175  THR175     -0.2717
     85  CB        26.1120   -4.9520    2.8770 C.3   175  THR175      0.1784
     86  OG1       26.1320   -5.7100    4.0960 O.3   175  THR175     -0.2211
     87  CG2       26.1770   -3.4570    3.1690 C.3   175  THR175      0.0376
     88  N         25.8510   -7.0950    0.7930 N.am  176  GLY176     -0.1942
     89  CA        26.2660   -8.4400    0.4690 C.3   176  GLY176      0.2014
     90  C         27.5190   -8.3130   -0.3760 C.2   176  GLY176      0.2638
     91  O         27.6470   -7.3840   -1.1710 O.2   176  GLY176     -0.2714
     92  N         28.4460   -9.2380   -0.2010 N.am  177  PHE177     -0.1973
     93  CA        29.6960   -9.2470   -0.9310 C.3   177  PHE177      0.1639
     94  C         30.1900  -10.6810   -0.8630 C.2   177  PHE177      0.2290
     95  O         30.3230  -11.2340    0.2040 O.2   177  PHE177     -0.2864
     96  CB        30.6810   -8.2390   -0.2990 C.3   177  PHE177      0.0560
     97  CG        32.1060   -8.3030   -0.8340 C.ar  177  PHE177     -0.0200
     98  CD1       32.3780   -8.3170   -2.2050 C.ar  177  PHE177     -0.0042
     99  CD2       33.1880   -8.2810    0.0490 C.ar  177  PHE177     -0.0042
    100  CE1       33.7030   -8.3570   -2.6770 C.ar  177  PHE177     -0.0003
    101  CE2       34.5110   -8.3260   -0.4210 C.ar  177  PHE177     -0.0003
    102  CZ        34.7630   -8.3510   -1.7850 C.ar  177  PHE177     -0.0000
    103  N         35.3530   -1.5940   -1.8970 N.3   216  LEU216     -0.1245
    104  CA        34.1140   -1.8250   -1.1360 C.3   216  LEU216      0.1561
    105  C         33.2950   -0.6000   -0.7140 C.2   216  LEU216      0.2260
    106  O         32.0880   -0.6030   -0.9200 O.2   216  LEU216     -0.2867
    107  CB        34.3800   -2.7070    0.0780 C.3   216  LEU216      0.0270
    108  CG        33.3230   -3.7240    0.4850 C.3   216  LEU216      0.0019
    109  CD1       32.6930   -4.4250   -0.7230 C.3   216  LEU216      0.0001
    110  CD2       33.9760   -4.7400    1.4210 C.3   216  LEU216      0.0001
    111  N         30.3390    0.7970   -2.7350 N.3   219  ARG219     -0.1245
    112  CA        29.0900    0.0480   -2.8010 C.3   219  ARG219      0.1563
    113  C         27.9280    0.7660   -2.1280 C.2   219  ARG219      0.2260
    114  O         26.8030    0.6830   -2.6170 O.2   219  ARG219     -0.2867
    115  CB        29.2690   -1.3450   -2.2390 C.3   219  ARG219      0.0307
    116  CG        28.0480   -1.8840   -1.5610 C.3   219  ARG219      0.0489
    117  CD        28.4000   -3.1100   -0.7790 C.3   219  ARG219      0.2205
    118  NE        28.9720   -2.8810    0.5410 N.pl3 219  ARG219     -0.0865
    119  CZ        29.3110   -3.8910    1.3230 C.cat 219  ARG219      0.5346
    120  NH1       29.0860   -5.1220    0.8940 N.pl3 219  ARG219      0.1354
    121  NH2       29.8320   -3.6850    2.5270 N.pl3 219  ARG219      0.1354
@<TRIPOS>BOND
     1   112   111    1
     2   112   115    1
     3   112   113    1
     4   100    98   ar
     5   100   102   ar
     6   114   113    2
     7   115   116    1
     8    98    97   ar
     9   103   104    1
    10     1     2    1
    11   102   101   ar
    12   116   117    1
    13    91    90    2
    14   104   105    1
    15   104   107    1
    16    93    94    1
    17    93    96    1
    18    93    92    1
    19   106   105    2
    20     5     2    1
    21    94    95    2
    22    97    96    1
    23    97    99   ar
    24   117   118    1
    25   109   108    1
    26     2     3    1
    27   101    99   ar
    28    90    92   am
    29    90    89    1
    30   107   108    1
    31    89    88    1
    32   108   110    1
    33     3     4    2
    34     3     6   am
    35   118   119    2
    36    88    83   am
    37   120   119    1
    38   119   121    1
    39     6     7    1
    40    83    82    1
    41    83    84    2
    42    82    85    1
    43    82    81    1
    44     8     7    1
    45     8     9    2
    46     7    10    1
    47    85    87    1
    48    85    86    1
    49    12    13    1
    50    10    11    1
    51    13    14    1
    52    13    16    1
    53    14    15    2
    54    20    19    1
    55    16    17    1
    56    17    18    1
    57    73    72    1
    58    18    19    1
    59    80    78    1
    60    72    69    1
    61    79    78    1
    62    78    75    1
    63    69    70    1
    64    69    68    1
    65    71    70    2
    66    75    74    1
    67    75    76    1
    68    77    76    2
    69    51    49   ar
    70    51    50   ar
    71    68    63   am
    72    49    47   ar
    73    55    54    2
    74    60    58   am
    75    64    63    2
    76    63    62    1
    77    27    28    1
    78    27    26    1
    79    50    48   ar
    80    59    58    2
    81    54    53    1
    82    54    61   am
    83    53    52    1
    84    53    56    1
    85    58    57    1
    86    26    25    1
    87    62    61    1
    88    62    65    1
    89    47    46   ar
    90    47    45   ar
    91    48    45   ar
    92    56    57    1
    93    46    44   ar
    94    36    35    2
    95    45    43   ar
    96    65    66    1
    97    65    67    1
    98    25    22    1
    99    21    22    1
   100    35    37   am
   101    35    34    1
   102    44    43   ar
   103    22    23    1
   104    43    42    1
   105    34    33    1
   106    42    39    1
   107    23    24    2
   108    33    30    1
   109    39    38    1
   110    39    40    1
   111    38    31   am
   112    29    30    1
   113    31    30    1
   114    31    32    2
   115    40    41    2
