@<TRIPOS>MOLECULE
tmp/4yiwB00.pdb
 133 127 0 0 0
SMALL
GASTEIGER

@<TRIPOS>ATOM
      1  N         21.8460   13.0250  -27.6310 N.3    61  HIS61      -0.1241
      2  CA        22.5500   14.3160  -27.5810 C.3    61  HIS61       0.1621
      3  C         23.0350   14.7630  -28.9590 C.2    61  HIS61       0.2264
      4  O         24.0420   14.2650  -29.4690 O.2    61  HIS61      -0.2867
      5  CB        23.7310   14.2590  -26.6230 C.3    61  HIS61       0.0745
      6  CG        23.3420   13.9540  -25.2160 C.ar   61  HIS61       0.0817
      7  ND1       23.4140   14.8860  -24.2050 N.ar   61  HIS61      -0.2268
      8  CD2       22.8680   12.8190  -24.6520 C.ar   61  HIS61       0.1154
      9  CE1       23.0050   14.3370  -23.0750 C.ar   61  HIS61       0.1986
     10  NE2       22.6700   13.0830  -23.3200 N.ar   61  HIS61      -0.2212
     11  N         24.0040   17.8780  -29.5850 N.3    63  ARG63      -0.1245
     12  CA        25.1260   18.8170  -29.3300 C.3    63  ARG63       0.1563
     13  C         24.9640   20.2630  -29.8400 C.2    63  ARG63       0.2260
     14  O         25.3710   21.2020  -29.1550 O.2    63  ARG63      -0.2867
     15  CB        26.4580   18.2460  -29.8360 C.3    63  ARG63       0.0307
     16  CG        26.7860   16.8460  -29.3430 C.3    63  ARG63       0.0489
     17  CD        26.7500   16.7590  -27.8260 C.3    63  ARG63       0.2205
     18  NE        27.5150   15.6260  -27.3110 N.pl3  63  ARG63      -0.0865
     19  CZ        27.5360   15.2410  -26.0360 C.cat  63  ARG63       0.5346
     20  NH1       26.8230   15.8880  -25.1170 N.pl3  63  ARG63       0.1354
     21  NH2       28.2730   14.1970  -25.6750 N.pl3  63  ARG63       0.1354
     22  N         21.3280   19.6920  -22.6130 N.3    93  ASN93      -0.1240
     23  CA        22.6240   20.1690  -22.1030 C.3    93  ASN93       0.1653
     24  C         23.4590   20.8330  -23.2070 C.2    93  ASN93       0.2266
     25  O         24.5740   20.4110  -23.5170 O.2    93  ASN93      -0.2867
     26  CB        23.4020   19.0590  -21.3760 C.3    93  ASN93       0.1155
     27  CG        23.6510   17.8360  -22.2390 C.2    93  ASN93       0.2627
     28  OD1       22.8960   17.5440  -23.1660 O.2    93  ASN93      -0.2716
     29  ND2       24.7150   17.1080  -21.9260 N.am   93  ASN93      -0.0877
     30  N         19.3640   16.5160  -17.6460 N.3   151  ASP151     -0.1225
     31  CA        20.3350   15.4850  -18.0420 C.3   151  ASP151      0.1805
     32  C         21.7200   16.0740  -18.3020 C.2   151  ASP151      0.2598
     33  O         21.8600   17.0960  -18.9720 O.2   151  ASP151     -0.2718
     34  CB        19.8600   14.7170  -19.2790 C.3   151  ASP151      0.1424
     35  CG        20.7300   13.5000  -19.5830 C.2   151  ASP151      0.3668
     36  OD1       20.9600   12.6890  -18.6660 O.co2 151  ASP151     -0.2456
     37  OD2       21.1840   13.3500  -20.7380 O.co2 151  ASP151     -0.2456
     38  N         22.7320   15.3900  -17.7770 N.am  152  GLY152     -0.1957
     39  CA        24.0810   15.9330  -17.6510 C.3   152  GLY152      0.1869
     40  C         24.4070   16.0490  -16.1730 C.2   152  GLY152      0.2309
     41  O         25.4620   15.5980  -15.7200 O.2   152  GLY152     -0.2863
     42  N         18.3260   12.3200  -14.7180 N.3   178  HIS178     -0.1241
     43  CA        19.6950   11.8690  -14.5280 C.3   178  HIS178      0.1621
     44  C         19.9420   11.8600  -13.0220 C.2   178  HIS178      0.2264
     45  O         20.0490   12.9160  -12.3980 O.2   178  HIS178     -0.2867
     46  CB        20.6720   12.8230  -15.2180 C.3   178  HIS178      0.0745
     47  CG        22.1120   12.5240  -14.9410 C.ar  178  HIS178      0.0817
     48  ND1       22.8370   11.6170  -15.6810 N.ar  178  HIS178     -0.2268
     49  CD2       22.9640   13.0170  -14.0100 C.ar  178  HIS178      0.1154
     50  CE1       24.0720   11.5590  -15.2150 C.ar  178  HIS178      0.1986
     51  NE2       24.1760   12.3990  -14.2010 N.ar  178  HIS178     -0.2212
     52  N         19.0940    6.0210  -18.0100 N.3   231  HIS231     -0.1241
     53  CA        20.0610    4.9140  -18.0240 C.3   231  HIS231      0.1621
     54  C         20.4230    4.2980  -16.6680 C.2   231  HIS231      0.2264
     55  O         21.3870    4.7170  -16.0270 O.2   231  HIS231     -0.2867
     56  CB        21.3370    5.3900  -18.7140 C.3   231  HIS231      0.0745
     57  CG        21.7540    6.7680  -18.3100 C.ar  231  HIS231      0.0817
     58  ND1       21.7930    7.1800  -16.9960 N.ar  231  HIS231     -0.2268
     59  CD2       22.1470    7.8300  -19.0490 C.ar  231  HIS231      0.1154
     60  CE1       22.1860    8.4390  -16.9420 C.ar  231  HIS231      0.1986
     61  NE2       22.4090    8.8550  -18.1750 N.ar  231  HIS231     -0.2212
     62  N         25.1430   -0.4010  -24.2190 N.3   258  HIS258     -0.1241
     63  CA        26.4430   -0.6620  -23.5910 C.3   258  HIS258      0.1621
     64  C         26.3330   -1.2050  -22.1600 C.2   258  HIS258      0.2264
     65  O         27.1760   -2.0040  -21.7350 O.2   258  HIS258     -0.2867
     66  CB        27.3750    0.5690  -23.6520 C.3   258  HIS258      0.0745
     67  CG        26.7440    1.8550  -23.2090 C.ar  258  HIS258      0.0817
     68  ND1       26.1100    2.7140  -24.0820 N.ar  258  HIS258     -0.2268
     69  CD2       26.6800    2.4420  -21.9910 C.ar  258  HIS258      0.1154
     70  CE1       25.6740    3.7700  -23.4190 C.ar  258  HIS258      0.1986
     71  NE2       26.0020    3.6270  -22.1470 N.ar  258  HIS258     -0.2212
     72  N         31.9420    6.2630  -19.6490 N.3   276  MET276     -0.1230
     73  CA        30.6680    6.9910  -19.7170 C.3   276  MET276      0.1702
     74  C         30.0160    7.0940  -18.3390 C.2   276  MET276      0.2592
     75  O         30.5050    6.5140  -17.3650 O.2   276  MET276     -0.2718
     76  CB        29.7150    6.3600  -20.7460 C.3   276  MET276      0.0401
     77  CG        29.0400    5.0560  -20.3390 C.3   276  MET276      0.0596
     78  SD        30.1670    3.6820  -20.0500 S.3   276  MET276     -0.1393
     79  CE        30.8300    3.4120  -21.6930 C.3   276  MET276      0.0692
     80  N         28.9300    7.8630  -18.2720 N.am  277  ASN277     -0.1974
     81  CA        28.1870    8.0890  -17.0360 C.3   277  ASN277      0.1688
     82  C         26.7260    7.6790  -17.2440 C.2   277  ASN277      0.2292
     83  O         26.0890    8.1450  -18.1910 O.2   277  ASN277     -0.2864
     84  CB        28.2780    9.5660  -16.6310 C.3   277  ASN277      0.1181
     85  CG        28.1110    9.7890  -15.1290 C.2   277  ASN277      0.2629
     86  OD1       28.3500    8.8960  -14.3190 O.2   277  ASN277     -0.2716
     87  ND2       27.7150   10.9990  -14.7530 N.am  277  ASN277     -0.0877
     88  N         21.3680    6.9080  -25.2060 N.3   304  ASP304     -0.1239
     89  CA        22.1560    8.0060  -24.6510 C.3   304  ASP304      0.1674
     90  C         23.3250    8.3150  -25.5970 C.2   304  ASP304      0.2266
     91  O         24.4840    8.3540  -25.1840 O.2   304  ASP304     -0.2867
     92  CB        22.6350    7.6930  -23.2230 C.3   304  ASP304      0.1410
     93  CG        23.3460    8.8700  -22.5670 C.2   304  ASP304      0.3668
     94  OD1       23.1510   10.0240  -23.0120 O.co2 304  ASP304     -0.2456
     95  OD2       24.1090    8.6460  -21.6060 O.co2 304  ASP304     -0.2456
     96  N         26.0270    9.9570  -27.1230 N.3   306  ALA306     -0.1245
     97  CA        26.8620   11.0260  -26.5940 C.3   306  ALA306      0.1562
     98  C         28.1340   11.1590  -27.4310 C.2   306  ALA306      0.2260
     99  O         29.1670   10.5840  -27.0890 O.2   306  ALA306     -0.2867
    100  CB        27.2070   10.7400  -25.1410 C.3   306  ALA306      0.0290
    101  N         31.5530   12.5900  -29.1410 N.3   308  HIS308     -0.1241
    102  CA        32.7180   13.3980  -28.7890 C.3   308  HIS308      0.1621
    103  C         33.7700   13.2450  -29.8830 C.2   308  HIS308      0.2264
    104  O         33.8220   12.2170  -30.5590 O.2   308  HIS308     -0.2867
    105  CB        33.3040   12.9540  -27.4470 C.3   308  HIS308      0.0745
    106  CG        32.4590   13.3140  -26.2670 C.ar  308  HIS308      0.0817
    107  ND1       32.6110   14.4970  -25.5780 N.ar  308  HIS308     -0.2268
    108  CD2       31.4600   12.6440  -25.6460 C.ar  308  HIS308      0.1154
    109  CE1       31.7380   14.5440  -24.5870 C.ar  308  HIS308      0.1986
    110  NE2       31.0290   13.4300  -24.6060 N.ar  308  HIS308     -0.2212
    111  N         32.9410   12.1310  -20.4220 N.3   322  PHE322     -0.1227
    112  CA        32.0780   10.9500  -20.3600 C.3   322  PHE322      0.1736
    113  C         31.2120   10.8410  -21.6090 C.2   322  PHE322      0.2596
    114  O         30.6210   11.8280  -22.0370 O.2   322  PHE322     -0.2718
    115  CB        31.1400   11.0180  -19.1460 C.3   322  PHE322      0.0547
    116  CG        31.8330   10.9330  -17.8120 C.ar  322  PHE322     -0.0202
    117  CD1       32.1420    9.7030  -17.2490 C.ar  322  PHE322     -0.0042
    118  CD2       32.1270   12.0820  -17.0940 C.ar  322  PHE322     -0.0042
    119  CE1       32.7540    9.6230  -16.0090 C.ar  322  PHE322     -0.0003
    120  CE2       32.7410   12.0090  -15.8530 C.ar  322  PHE322     -0.0003
    121  CZ        33.0530   10.7770  -15.3080 C.ar  322  PHE322     -0.0000
    122  N         31.1360    9.6430  -22.1820 N.am  323  GLY323     -0.1942
    123  CA        30.1510    9.3450  -23.2200 C.3   323  GLY323      0.2014
    124  C         30.6900    8.5570  -24.3990 C.2   323  GLY323      0.2638
    125  O         31.8870    8.6190  -24.7070 O.2   323  GLY323     -0.2714
    126  N         29.7940    7.8090  -25.0500 N.am  324  ILE324     -0.1977
    127  CA        30.1030    7.1080  -26.2970 C.3   324  ILE324      0.1596
    128  C         28.9970    7.3250  -27.3330 C.2   324  ILE324      0.2287
    129  O         27.8340    7.5320  -26.9750 O.2   324  ILE324     -0.2864
    130  CB        30.3210    5.5850  -26.0830 C.3   324  ILE324      0.0276
    131  CG1       29.0320    4.8660  -25.6600 C.3   324  ILE324      0.0022
    132  CG2       31.4160    5.3420  -25.0540 C.3   324  ILE324      0.0022
    133  CD1       29.0930    3.3660  -25.8460 C.3   324  ILE324      0.0001
@<TRIPOS>BOND
     1   104   103    2
     2   103   102    1
     3    13    12    1
     4    13    14    2
     5    15    16    1
     6    15    12    1
     7    11    12    1
     8     4     3    2
     9    16    17    1
    10   101   102    1
    11     3     2    1
    12   102   105    1
    13    17    18    1
    14     1     2    1
    15     2     5    1
    16   105   106    1
    17    98    99    2
    18    98    97    1
    19   128   129    2
    20   128   127    1
    21    18    19    2
    22    96    97    1
    23     5     6    1
    24    97   100    1
    25   127   130    1
    26   127   126    1
    27   106   108   ar
    28   106   107   ar
    29   130   131    1
    30   130   132    1
    31    19    21    1
    32    19    20    1
    33   133   131    1
    34   108   110   ar
    35    90    91    2
    36    90    89    1
    37   107   109   ar
    38     6     8   ar
    39     6     7   ar
    40    88    89    1
    41   126   124   am
    42   125   124    2
    43     8    10   ar
    44    89    92    1
    45   110   109   ar
    46   124   123    1
    47    62    63    1
    48     7     9   ar
    49    68    70   ar
    50    68    67   ar
    51    66    63    1
    52    66    67    1
    53    63    64    1
    54    25    24    2
    55    70    71   ar
    56    10     9   ar
    57    92    93    1
    58   123   122    1
    59    67    69   ar
    60    24    23    1
    61    28    27    2
    62    94    93   ar
    63    22    23    1
    64    93    95   ar
    65    27    29   am
    66    27    26    1
    67   122   113   am
    68    64    65    2
    69    71    69   ar
    70    23    26    1
    71   114   113    2
    72    79    78    1
    73   113   112    1
    74    76    77    1
    75    76    73    1
    76    37    35   ar
    77   111   112    1
    78   112   115    1
    79    77    78    1
    80    73    72    1
    81    73    74    1
    82    35    34    1
    83    35    36   ar
    84    34    31    1
    85   115   116    1
    86    59    57   ar
    87    59    61   ar
    88    33    32    2
    89    56    57    1
    90    56    53    1
    91    74    80   am
    92    74    75    2
    93    57    58   ar
    94    32    31    1
    95    32    38   am
    96    80    81    1
    97    83    82    2
    98    61    60   ar
    99    31    30    1
   100    53    52    1
   101    53    54    1
   102   116   117   ar
   103   116   118   ar
   104    38    39    1
   105    39    40    1
   106   117   119   ar
   107    82    81    1
   108   118   120   ar
   109    81    84    1
   110    58    60   ar
   111    54    55    2
   112    84    85    1
   113    40    41    2
   114   119   121   ar
   115   120   121   ar
   116    48    50   ar
   117    48    47   ar
   118    46    47    1
   119    46    43    1
   120    50    51   ar
   121    85    87   am
   122    85    86    2
   123    47    49   ar
   124    42    43    1
   125    43    44    1
   126    51    49   ar
   127    44    45    2
