@<TRIPOS>MOLECULE
tmp/4yiyA00.pdb
 151 146 0 0 0
SMALL
GASTEIGER

@<TRIPOS>ATOM
      1  N        -96.0910    7.8630   -0.1050 N.3   199  LEU199     -0.1231
      2  CA       -95.4000    8.5960    0.9160 C.3   199  LEU199      0.1678
      3  C        -94.1560    7.9360    1.4700 C.2   199  LEU199      0.2434
      4  O        -93.1560    8.5830    1.6610 O.2   199  LEU199     -0.2733
      5  CB       -96.3830    8.8620    2.0330 C.3   199  LEU199      0.0284
      6  CG       -97.5520    9.7580    1.7100 C.3   199  LEU199      0.0019
      7  CD1      -98.5450    9.8530    2.8220 C.3   199  LEU199      0.0001
      8  CD2      -97.0690   11.1120    1.3210 C.3   199  LEU199      0.0001
      9  N        -94.2620    6.5640    1.7370 N.am  200  PRO200     -0.2718
     10  CA       -93.1490    6.0120    2.4940 C.3   200  PRO200      0.1535
     11  C        -91.9250    5.7290    1.7160 C.2   200  PRO200      0.2598
     12  O        -92.0580    5.4140    0.5760 O.2   200  PRO200     -0.2715
     13  CB       -93.6800    4.6870    2.8870 C.3   200  PRO200      0.0310
     14  CG       -94.3500    4.2380    1.6790 C.3   200  PRO200      0.0237
     15  CD       -95.2270    5.3830    1.5270 C.3   200  PRO200      0.0939
     16  N        -90.7720    5.7030    2.3580 N.am  201  ARG201     -0.1978
     17  CA       -89.5180    5.4880    1.6460 C.3   201  ARG201      0.1597
     18  C        -89.0370    4.0280    1.6960 C.2   201  ARG201      0.2287
     19  O        -89.5080    3.2280    2.5090 O.2   201  ARG201     -0.2864
     20  CB       -88.4410    6.4160    2.2140 C.3   201  ARG201      0.0334
     21  CG       -88.8390    7.8810    2.2460 C.3   201  ARG201      0.0492
     22  CD       -88.9880    8.4880    0.8400 C.3   201  ARG201      0.2205
     23  NE       -90.3640    8.4440    0.3550 N.pl3 201  ARG201     -0.0865
     24  CZ       -90.7350    8.6460   -0.9040 C.cat 201  ARG201      0.5346
     25  NH1      -89.8370    8.9120   -1.8430 N.pl3 201  ARG201      0.1354
     26  NH2      -92.0180    8.5790   -1.2200 N.pl3 201  ARG201      0.1354
     27  N        -91.0310    3.7180   -1.5440 N.3   210  LEU210     -0.1245
     28  CA       -91.1860    2.3010   -1.2320 C.3   210  LEU210      0.1561
     29  C        -91.5730    1.4630   -2.4520 C.2   210  LEU210      0.2260
     30  O        -92.7410    1.4020   -2.8380 O.2   210  LEU210     -0.2867
     31  CB       -92.2200    2.1100   -0.1300 C.3   210  LEU210      0.0270
     32  CG       -92.3400    0.6590    0.3150 C.3   210  LEU210      0.0019
     33  CD1      -90.9730    0.0590    0.5620 C.3   210  LEU210      0.0001
     34  CD2      -93.1900    0.5820    1.5580 C.3   210  LEU210      0.0001
     35  N        -94.8340   -3.0040   -2.1700 N.3   213  ASN213     -0.1225
     36  CA       -96.0650   -3.1370   -1.4030 C.3   213  ASN213      0.1785
     37  C        -96.4440   -1.8760   -0.6790 C.2   213  ASN213      0.2597
     38  O        -97.0920   -1.9140    0.3640 O.2   213  ASN213     -0.2718
     39  CB       -95.9450   -4.2990   -0.4200 C.3   213  ASN213      0.1169
     40  CG       -95.8410   -5.6210   -1.1290 C.2   213  ASN213      0.2627
     41  OD1      -96.2990   -5.7480   -2.2700 O.2   213  ASN213     -0.2716
     42  ND2      -95.2340   -6.6110   -0.4800 N.am  213  ASN213     -0.0877
     43  N        -96.0400   -0.7530   -1.2550 N.am  214  ALA214     -0.1966
     44  CA       -96.5060    0.5280   -0.7880 C.3   214  ALA214      0.1728
     45  C        -98.0130    0.5340   -0.9040 C.2   214  ALA214      0.2616
     46  O        -98.5640   -0.1390   -1.7630 O.2   214  ALA214     -0.2715
     47  CB       -95.8920    1.6440   -1.5930 C.3   214  ALA214      0.0334
     48  N        -98.6780    1.2590   -0.0190 N.am  215  VAL215     -0.1977
     49  CA      -100.1070    1.4770   -0.1440 C.3   215  VAL215      0.1596
     50  C       -100.3810    2.9400   -0.4570 C.2   215  VAL215      0.2287
     51  O       -100.1060    3.8170    0.3590 O.2   215  VAL215     -0.2864
     52  CB      -100.8540    1.0720    1.1160 C.3   215  VAL215      0.0276
     53  CG1     -102.2720    1.5940    1.0780 C.3   215  VAL215      0.0022
     54  CG2     -100.8520   -0.4250    1.2400 C.3   215  VAL215      0.0022
     55  N       -102.5830    4.9680   16.4440 N.3   251  GLY251     -0.1210
     56  CA      -102.1820    4.0770   17.4910 C.3   251  GLY251      0.1956
     57  C       -100.7450    3.8120   17.3420 C.2   251  GLY251      0.2612
     58  O        -99.9540    4.4750   17.9530 O.2   251  GLY251     -0.2717
     59  N       -100.4060    2.8210   16.5570 N.am  252  GLY252     -0.1942
     60  CA       -99.0280    2.5770   16.2680 C.3   252  GLY252      0.2014
     61  C        -98.7880    1.8510   14.9910 C.2   252  GLY252      0.2639
     62  O        -99.4660    0.9180   14.6660 O.2   252  GLY252     -0.2714
     63  N        -97.7470    2.2430   14.3160 N.am  253  PHE253     -0.1959
     64  CA       -97.3320    1.7010   13.0750 C.3   253  PHE253      0.1771
     65  C        -98.3060    1.9470   11.9520 C.2   253  PHE253      0.2620
     66  O        -98.3150    1.2380   10.9910 O.2   253  PHE253     -0.2715
     67  CB       -96.9990    0.2400   13.2280 C.3   253  PHE253      0.0574
     68  CG       -95.8170   -0.1570   12.4380 C.ar  253  PHE253     -0.0200
     69  CD1      -94.6210    0.4120   12.6520 C.ar  253  PHE253     -0.0042
     70  CD2      -95.9310   -1.0380   11.4430 C.ar  253  PHE253     -0.0042
     71  CE1      -93.5480    0.0880   11.9020 C.ar  253  PHE253     -0.0003
     72  CE2      -94.8700   -1.3670   10.6810 C.ar  253  PHE253     -0.0003
     73  CZ       -93.6670   -0.8120   10.9170 C.ar  253  PHE253     -0.0000
     74  N        -99.0810    3.0040   12.0570 N.am  254  HIS254     -0.1959
     75  CA      -100.0700    3.3340   11.0700 C.3   254  HIS254      0.1787
     76  C        -99.6700    4.3210   10.0070 C.2   254  HIS254      0.2621
     77  O       -100.4340    4.5680    9.1310 O.2   254  HIS254     -0.2715
     78  CB      -101.2950    3.8500   11.7700 C.3   254  HIS254      0.0785
     79  CG      -101.9460    2.8470   12.6610 C.ar  254  HIS254      0.0821
     80  ND1     -102.8790    3.1880   13.6060 N.ar  254  HIS254     -0.2267
     81  CD2     -101.8120    1.5140   12.7380 C.ar  254  HIS254      0.1154
     82  CE1     -103.2840    2.1060   14.2360 C.ar  254  HIS254      0.1986
     83  NE2     -102.6510    1.0770   13.7260 N.ar  254  HIS254     -0.2212
     84  N        -98.4670    4.8580   10.0410 N.am  255  GLY255     -0.1940
     85  CA       -98.0430    5.8280    9.0450 C.3   255  GLY255      0.2014
     86  C        -98.0640    7.3260    9.2540 C.2   255  GLY255      0.2639
     87  O        -97.8250    8.0760    8.3370 O.2   255  GLY255     -0.2714
     88  N        -98.3360    7.7680   10.4610 N.am  256  LYS256     -0.1963
     89  CA       -98.3650    9.1840   10.7640 C.3   256  LYS256      0.1728
     90  C        -97.0410    9.8790   10.4980 C.2   256  LYS256      0.2617
     91  O        -97.0040   10.8990    9.8360 O.2   256  LYS256     -0.2715
     92  CB       -98.7450    9.3970   12.2130 C.3   256  LYS256      0.0311
     93  CG      -100.0240    8.7440   12.6280 C.3   256  LYS256      0.0038
     94  CD      -100.3450    9.2050   14.0270 C.3   256  LYS256      0.0206
     95  CE      -100.7170    8.0560   14.9180 C.3   256  LYS256      0.1093
     96  NZ      -100.9160    8.5610   16.3000 N.3   256  LYS256     -0.1314
     97  N        -95.9530    9.3430   11.0300 N.am  257  SER257     -0.1936
     98  CA       -94.6590    9.9850   10.8530 C.3   257  SER257      0.2055
     99  C        -94.3350   10.0100    9.3740 C.2   257  SER257      0.2643
    100  O        -93.6430   10.8970    8.9010 O.2   257  SER257     -0.2714
    101  CB       -93.5420    9.2670   11.6350 C.3   257  SER257      0.2130
    102  OG       -93.8580    9.0490   13.0040 O.3   257  SER257     -0.2179
    103  N        -94.8690    9.0340    8.6480 N.am  258  THR258     -0.1950
    104  CA       -94.6900    8.9290    7.1970 C.3   258  THR258      0.1897
    105  C        -95.3170   10.1150    6.4630 C.2   258  THR258      0.2313
    106  O        -94.6510   10.8370    5.6960 O.2   258  THR258     -0.2863
    107  CB       -95.3030    7.6110    6.6670 C.3   258  THR258      0.1794
    108  OG1      -94.7170    6.5080    7.3590 O.3   258  THR258     -0.2208
    109  CG2      -95.0600    7.4480    5.1850 C.3   258  THR258      0.0378
    110  N        -93.6520   13.4450    7.5030 N.3   261  ARG261     -0.1245
    111  CA       -92.3720   13.6750    6.8470 C.3   261  ARG261      0.1563
    112  C        -92.6110   14.1230    5.4210 C.2   261  ARG261      0.2260
    113  O        -91.9040   14.9810    4.8960 O.2   261  ARG261     -0.2867
    114  CB       -91.4980   12.4190    6.8700 C.3   261  ARG261      0.0307
    115  CG       -90.9190   12.0550    8.2250 C.3   261  ARG261      0.0489
    116  CD       -89.9220   10.9080    8.0930 C.3   261  ARG261      0.2205
    117  NE       -89.8780   10.0340    9.2710 N.pl3 261  ARG261     -0.0865
    118  CZ       -90.5250    8.8740    9.3640 C.cat 261  ARG261      0.5346
    119  NH1      -91.2610    8.4550    8.3430 N.pl3 261  ARG261      0.1354
    120  NH2      -90.4390    8.1380   10.4700 N.pl3 261  ARG261      0.1354
    121  N        -93.9110   13.2160   19.2720 N.3   348  ASP348     -0.1239
    122  CA       -92.8690   12.4020   19.8290 C.3   348  ASP348      0.1674
    123  C        -91.6010   13.1680   19.9980 C.2   348  ASP348      0.2266
    124  O        -91.0300   13.1150   21.0540 O.2   348  ASP348     -0.2867
    125  CB       -92.6210   11.1900   18.9560 C.3   348  ASP348      0.1410
    126  CG       -93.6130   10.1040   19.1750 C.2   348  ASP348      0.3668
    127  OD1      -94.5010   10.2590   20.0000 O.co2 348  ASP348     -0.2456
    128  OD2      -93.5120    9.0730   18.5170 O.co2 348  ASP348     -0.2456
    129  N        -98.9090   15.3120   14.5380 N.3   392  VAL392     -0.1245
    130  CA       -99.0700   13.9400   14.9450 C.3   392  VAL392      0.1561
    131  C        -99.1770   13.8780   16.4400 C.2   392  VAL392      0.2260
    132  O        -98.2120   14.1740   17.1300 O.2   392  VAL392     -0.2867
    133  CB       -97.8930   13.1010   14.5030 C.3   392  VAL392      0.0252
    134  CG1      -97.9550   11.7580   15.1620 C.3   392  VAL392      0.0019
    135  CG2      -97.8970   12.9680   13.0050 C.3   392  VAL392      0.0019
    136  N        -99.7010   11.2570   19.5930 N.3   394  GLY394     -0.1225
    137  CA       -99.8520    9.9170   20.0670 C.3   394  GLY394      0.1811
    138  C       -100.6100    9.9330   21.3640 C.2   394  GLY394      0.2280
    139  O       -100.0410   10.1660   22.3950 O.2   394  GLY394     -0.2866
    140  N       -102.1460    2.7360    7.4510 N.3   412  TYR412     -0.1241
    141  CA      -101.8470    3.5740    6.2930 C.3   412  TYR412      0.1605
    142  C       -103.1080    4.1030    5.6210 C.2   412  TYR412      0.2264
    143  O       -103.0420    4.6490    4.5240 O.2   412  TYR412     -0.2867
    144  CB      -100.9640    2.8030    5.2990 C.3   412  TYR412      0.0534
    145  CG       -99.8740    2.0100    5.9980 C.ar  412  TYR412     -0.0201
    146  CD1      -99.1240    2.5810    7.0270 C.ar  412  TYR412     -0.0009
    147  CD2      -99.6220    0.6800    5.6710 C.ar  412  TYR412     -0.0009
    148  CE1      -98.1450    1.8620    7.7000 C.ar  412  TYR412      0.0417
    149  CE2      -98.6310   -0.0520    6.3430 C.ar  412  TYR412      0.0417
    150  CZ       -97.8990    0.5530    7.3590 C.ar  412  TYR412      0.1957
    151  OH       -96.9180   -0.1330    8.0410 O.3   412  TYR412     -0.2866
@<TRIPOS>BOND
     1    30    29    2
     2    29    28    1
     3    41    40    2
     4    35    36    1
     5    25    24    1
     6    46    45    2
     7    47    44    1
     8    27    28    1
     9    36    37    1
    10    36    39    1
    11    43    44    1
    12    43    37   am
    13    28    31    1
    14    26    24    1
    15    40    42   am
    16    40    39    1
    17    24    23    2
    18    45    44    1
    19    45    48   am
    20    37    38    2
    21    50    49    1
    22    50    51    2
    23    49    48    1
    24    49    52    1
    25    31    32    1
    26     1     2    1
    27    32    33    1
    28    32    34    1
    29    23    22    1
    30    12    11    2
    31    22    21    1
    32     2     3    1
    33     2     5    1
    34    53    52    1
    35    52    54    1
    36     8     6    1
    37     3     4    2
    38     3     9   am
    39    15    14    1
    40    15     9    1
    41    17    18    1
    42    17    20    1
    43    17    16    1
    44    14    13    1
    45    18    19    2
    46     6     5    1
    47     6     7    1
    48    11    16   am
    49    11    10    1
    50     9    10    1
    51    20    21    1
    52    10    13    1
    53   143   142    2
    54   113   112    2
    55   109   107    1
    56   144   145    1
    57   144   141    1
    58   112   111    1
    59   142   141    1
    60   147   145   ar
    61   147   149   ar
    62   106   105    2
    63   145   146   ar
    64   141   140    1
    65   149   150   ar
    66   105   104    1
    67   107   104    1
    68   107   108    1
    69   111   114    1
    70   111   110    1
    71   114   115    1
    72   146   148   ar
    73   104   103    1
    74   150   148   ar
    75   150   151    1
    76   116   115    1
    77   116   117    1
    78    87    86    2
    79   119   118    1
    80   103    99   am
    81   100    99    2
    82    85    86    1
    83    85    84    1
    84    77    76    2
    85    86    88   am
    86   117   118    2
    87   118   120    1
    88    99    98    1
    89    91    90    2
    90    76    84   am
    91    76    75    1
    92    88    89    1
    93    90    89    1
    94    90    97   am
    95    72    73   ar
    96    72    70   ar
    97    89    92    1
    98    98    97    1
    99    98   101    1
   100    73    71   ar
   101    66    65    2
   102    75    78    1
   103    75    74    1
   104    70    68   ar
   105   101   102    1
   106    78    79    1
   107    71    69   ar
   108    65    74   am
   109    65    64    1
   110    92    93    1
   111    68    69   ar
   112    68    67    1
   113    93    94    1
   114    79    81   ar
   115    79    80   ar
   116    81    83   ar
   117   135   133    1
   118    64    67    1
   119    64    63    1
   120    80    82   ar
   121    83    82   ar
   122    94    95    1
   123    63    61   am
   124   133   130    1
   125   133   134    1
   126   129   130    1
   127    62    61    2
   128    95    96    1
   129   130   131    1
   130    61    60    1
   131    60    59    1
   132   131   132    2
   133    55    56    1
   134    59    57   am
   135    57    56    1
   136    57    58    2
   137   128   126   ar
   138   125   126    1
   139   125   122    1
   140   126   127   ar
   141   121   122    1
   142   136   137    1
   143   122   123    1
   144   123   124    2
   145   137   138    1
   146   138   139    2
