@<TRIPOS>MOLECULE
tmp/4yj1A00.pdb
 140 137 0 0 0
SMALL
GASTEIGER

@<TRIPOS>ATOM
      1  N         25.8520  -55.2700   14.4740 N.3   207  LEU207     -0.1231
      2  CA        26.6220  -54.0960   14.0980 C.3   207  LEU207      0.1678
      3  C         26.1530  -53.4290   12.8110 C.2   207  LEU207      0.2434
      4  O         26.1340  -52.2020   12.7510 O.2   207  LEU207     -0.2733
      5  CB        28.1160  -54.3950   14.0300 C.3   207  LEU207      0.0284
      6  CG        28.6950  -55.0640   15.2900 C.3   207  LEU207      0.0019
      7  CD1       30.1880  -55.2770   15.0340 C.3   207  LEU207      0.0001
      8  CD2       28.4660  -54.1890   16.5910 C.3   207  LEU207      0.0001
      9  N         25.7770  -54.2100   11.7950 N.am  208  PRO208     -0.2718
     10  CA        25.4330  -53.5320   10.5300 C.3   208  PRO208      0.1535
     11  C         24.1310  -52.7580   10.6430 C.2   208  PRO208      0.2598
     12  O         23.3090  -53.0570   11.4920 O.2   208  PRO208     -0.2715
     13  CB        25.3100  -54.6850    9.5040 C.3   208  PRO208      0.0310
     14  CG        24.9920  -55.8790   10.3270 C.3   208  PRO208      0.0237
     15  CD        25.6960  -55.6810   11.6730 C.3   208  PRO208      0.0939
     16  N         23.9790  -51.7700    9.7860 N.am  209  ARG209     -0.1978
     17  CA        22.8820  -50.8030    9.8900 C.3   209  ARG209      0.1597
     18  C         21.9410  -51.0990    8.7430 C.2   209  ARG209      0.2287
     19  O         22.3630  -51.5560    7.6960 O.2   209  ARG209     -0.2864
     20  CB        23.4090  -49.3650    9.7090 C.3   209  ARG209      0.0334
     21  CG        24.3510  -48.9400   10.8270 C.3   209  ARG209      0.0492
     22  CD        23.5750  -48.9080   12.1560 C.3   209  ARG209      0.2205
     23  NE        23.6910  -50.1170   12.9500 N.pl3 209  ARG209     -0.0865
     24  CZ        23.0210  -50.3300   14.0780 C.cat 209  ARG209      0.5346
     25  NH1       22.1810  -49.4220   14.5660 N.pl3 209  ARG209      0.1354
     26  NH2       23.2040  -51.4620   14.7470 N.pl3 209  ARG209      0.1354
     27  N         20.3820  -53.4740   11.2000 N.3   218  LEU218     -0.1245
     28  CA        19.9910  -54.3290   10.0910 C.3   218  LEU218      0.1561
     29  C         19.0100  -55.3770   10.6080 C.2   218  LEU218      0.2260
     30  O         19.3090  -56.0870   11.5610 O.2   218  LEU218     -0.2867
     31  CB        21.2010  -55.0810    9.5740 C.3   218  LEU218      0.0270
     32  CG        20.8590  -55.9970    8.4100 C.3   218  LEU218      0.0019
     33  CD1       20.3420  -55.1250    7.2560 C.3   218  LEU218      0.0001
     34  CD2       22.0820  -56.8800    8.0190 C.3   218  LEU218      0.0001
     35  N         19.0720  -61.0200    8.3210 N.3   221  ASN221     -0.1225
     36  CA        20.2590  -61.7450    7.8910 C.3   221  ASN221      0.1785
     37  C         21.5110  -61.2040    8.5830 C.2   221  ASN221      0.2597
     38  O         22.6320  -61.2750    8.0390 O.2   221  ASN221     -0.2718
     39  CB        20.4190  -61.6500    6.3690 C.3   221  ASN221      0.1169
     40  CG        21.3990  -62.7120    5.8010 C.2   221  ASN221      0.2627
     41  OD1       21.3840  -63.8790    6.2490 O.2   221  ASN221     -0.2716
     42  ND2       22.2530  -62.3150    4.8180 N.am  221  ASN221     -0.0877
     43  N         21.3130  -60.6420    9.7750 N.am  222  ALA222     -0.1966
     44  CA        22.4290  -60.0590   10.5210 C.3   222  ALA222      0.1728
     45  C         23.0560  -61.1480   11.3410 C.2   222  ALA222      0.2616
     46  O         22.3530  -61.9320   11.9620 O.2   222  ALA222     -0.2715
     47  CB        21.9560  -58.9270   11.4150 C.3   222  ALA222      0.0334
     48  N         24.3760  -61.1880   11.3430 N.am  223  VAL223     -0.1977
     49  CA        25.1260  -62.1460   12.1290 C.3   223  VAL223      0.1596
     50  C         25.5080  -61.5270   13.4790 C.2   223  VAL223      0.2287
     51  O         26.3300  -60.6230   13.5380 O.2   223  VAL223     -0.2864
     52  CB        26.4250  -62.5330   11.3460 C.3   223  VAL223      0.0276
     53  CG1       27.2930  -63.4380   12.1660 C.3   223  VAL223      0.0022
     54  CG2       26.0630  -63.1660   10.0010 C.3   223  VAL223      0.0022
     55  N         38.4950  -59.8450    3.9130 N.3   259  GLY259     -0.1210
     56  CA        38.2670  -59.4100    2.5520 C.3   259  GLY259      0.1956
     57  C         37.3770  -58.1650    2.6010 C.2   259  GLY259      0.2612
     58  O         36.6070  -57.9410    3.5600 O.2   259  GLY259     -0.2717
     59  N         37.5110  -57.3310    1.5840 N.am  260  GLY260     -0.1942
     60  CA        36.5060  -56.2910    1.3970 C.3   260  GLY260      0.2014
     61  C         35.0840  -56.8360    1.4770 C.2   260  GLY260      0.2639
     62  O         34.7710  -57.9020    0.9410 O.2   260  GLY260     -0.2714
     63  N         34.2470  -56.1040    2.2030 N.am  261  PHE261     -0.1959
     64  CA        32.8220  -56.4060    2.3720 C.3   261  PHE261      0.1771
     65  C         32.5530  -57.6070    3.2420 C.2   261  PHE261      0.2620
     66  O         31.4250  -58.0940    3.2720 O.2   261  PHE261     -0.2715
     67  CB        32.1320  -56.5250    1.0070 C.3   261  PHE261      0.0574
     68  CG        32.5120  -55.3870    0.0940 C.ar  261  PHE261     -0.0200
     69  CD1       32.8480  -54.1320    0.6570 C.ar  261  PHE261     -0.0042
     70  CD2       32.6310  -55.5650   -1.2660 C.ar  261  PHE261     -0.0042
     71  CE1       33.2730  -53.0600   -0.1280 C.ar  261  PHE261     -0.0003
     72  CE2       33.0280  -54.5020   -2.0730 C.ar  261  PHE261     -0.0003
     73  CZ        33.3650  -53.2450   -1.4890 C.ar  261  PHE261     -0.0000
     74  N         33.5630  -58.0370    4.0020 N.am  262  HIS262     -0.1959
     75  CA        33.3730  -59.1620    4.9100 C.3   262  HIS262      0.1787
     76  C         33.0910  -58.7160    6.3440 C.2   262  HIS262      0.2621
     77  O         32.9770  -59.5530    7.2380 O.2   262  HIS262     -0.2715
     78  CB        34.5910  -60.1460    4.7970 C.3   262  HIS262      0.0785
     79  CG        34.5040  -61.0330    3.5910 C.ar  262  HIS262      0.0821
     80  ND1       33.9710  -62.3060    3.6320 N.ar  262  HIS262     -0.2267
     81  CD2       34.8370  -60.8100    2.2940 C.ar  262  HIS262      0.1154
     82  CE1       34.0160  -62.8450    2.4220 C.ar  262  HIS262      0.1986
     83  NE2       34.5300  -61.9550    1.5930 N.ar  262  HIS262     -0.2212
     84  N         32.9720  -57.4040    6.5700 N.am  263  GLY263     -0.1940
     85  CA        32.4400  -56.8960    7.8450 C.3   263  GLY263      0.2014
     86  C         33.4080  -56.0100    8.6560 C.2   263  GLY263      0.2639
     87  O         33.0480  -55.5020    9.7430 O.2   263  GLY263     -0.2714
     88  N         34.6220  -55.8180    8.1360 N.am  264  LYS264     -0.1963
     89  CA        35.6700  -55.0320    8.8180 C.3   264  LYS264      0.1728
     90  C         35.2240  -53.6110    9.1180 C.2   264  LYS264      0.2617
     91  O         35.3670  -53.1620   10.2650 O.2   264  LYS264     -0.2715
     92  CB        36.9510  -54.8830    7.9720 C.3   264  LYS264      0.0311
     93  CG        37.5250  -56.1050    7.4240 C.3   264  LYS264      0.0038
     94  CD        38.8140  -55.8490    6.6810 C.3   264  LYS264      0.0206
     95  CE        38.5920  -55.1950    5.3210 C.3   264  LYS264      0.1093
     96  NZ        39.9710  -55.2550    4.7490 N.3   264  LYS264     -0.1314
     97  N         34.7700  -52.8700    8.1010 N.am  265  SER265     -0.1936
     98  CA        34.4440  -51.4650    8.3060 C.3   265  SER265      0.2055
     99  C         33.2220  -51.3330    9.1790 C.2   265  SER265      0.2643
    100  O         33.0940  -50.3620    9.9030 O.2   265  SER265     -0.2714
    101  CB        34.2050  -50.6800    7.0030 C.3   265  SER265      0.2130
    102  OG        35.3850  -50.5940    6.2400 O.3   265  SER265     -0.2179
    103  N         32.3120  -52.3000    9.1110 N.am  266  THR266     -0.1950
    104  CA        31.1150  -52.2150    9.8940 C.3   266  THR266      0.1897
    105  C         31.4980  -52.3340   11.3680 C.2   266  THR266      0.2313
    106  O         30.9290  -51.6650   12.2190 O.2   266  THR266     -0.2863
    107  CB        30.1600  -53.3560    9.4730 C.3   266  THR266      0.1794
    108  OG1       29.7220  -53.1100    8.1310 O.3   266  THR266     -0.2208
    109  CG2       28.9850  -53.4320   10.3780 C.3   266  THR266      0.0378
    110  N         33.1250  -48.9570   12.3330 N.3   269  ARG269     -0.1245
    111  CA        32.1370  -47.8560   12.4880 C.3   269  ARG269      0.1563
    112  C         31.4250  -47.9570   13.8320 C.2   269  ARG269      0.2260
    113  O         31.1240  -46.9340   14.4550 O.2   269  ARG269     -0.2867
    114  CB        31.0720  -47.8760   11.3610 C.3   269  ARG269      0.0307
    115  CG        31.5760  -47.1660   10.0740 C.3   269  ARG269      0.0489
    116  CD        30.4870  -47.0820    9.0040 C.3   269  ARG269      0.2205
    117  NE        30.9550  -47.4610    7.6720 N.pl3 269  ARG269     -0.0865
    118  CZ        30.7850  -48.6630    7.1190 C.cat 269  ARG269      0.5346
    119  NH1       30.1570  -49.6360    7.7690 N.pl3 269  ARG269      0.1354
    120  NH2       31.2420  -48.8900    5.8910 N.pl3 269  ARG269      0.1354
    121  N         37.9550  -60.8030    9.7680 N.3   418  MET418     -0.1245
    122  CA        36.5190  -60.9760    9.5640 C.3   418  MET418      0.1570
    123  C         36.3130  -61.7070    8.2680 C.2   418  MET418      0.2261
    124  O         36.8540  -61.3090    7.2430 O.2   418  MET418     -0.2867
    125  CB        35.8070  -59.6520    9.4240 C.3   418  MET418      0.0387
    126  CG        36.0340  -58.7390   10.5340 C.3   418  MET418      0.0595
    127  SD        34.7820  -58.8240   11.7780 S.3   418  MET418     -0.1393
    128  CE        33.3980  -59.6730   11.0720 C.3   418  MET418      0.0692
    129  N         31.3390  -61.9310    7.9510 N.3   421  TYR421     -0.1241
    130  CA        30.8000  -61.2980    9.1640 C.3   421  TYR421      0.1605
    131  C         31.0990  -62.0490   10.4400 C.2   421  TYR421      0.2264
    132  O         30.6310  -61.6360   11.4880 O.2   421  TYR421     -0.2867
    133  CB        29.2650  -61.0310    9.0950 C.3   421  TYR421      0.0534
    134  CG        28.7840  -60.5070    7.7660 C.ar  421  TYR421     -0.0201
    135  CD1       29.5170  -59.5630    7.0590 C.ar  421  TYR421     -0.0009
    136  CD2       27.5960  -61.0010    7.1840 C.ar  421  TYR421     -0.0009
    137  CE1       29.0720  -59.0890    5.7820 C.ar  421  TYR421      0.0417
    138  CE2       27.1480  -60.5500    5.9180 C.ar  421  TYR421      0.0417
    139  CZ        27.8950  -59.6010    5.2220 C.ar  421  TYR421      0.1957
    140  OH        27.4560  -59.1650    3.9790 O.3   421  TYR421     -0.2866
@<TRIPOS>BOND
     1    72    73   ar
     2    72    70   ar
     3    73    71   ar
     4    70    68   ar
     5    71    69   ar
     6    68    69   ar
     7    68    67    1
     8    62    61    2
     9    67    64    1
    10    60    61    1
    11    60    59    1
    12    61    63   am
    13    59    57   am
    14    83    81   ar
    15    83    82   ar
    16    63    64    1
    17    81    79   ar
    18    64    65    1
    19    82    80   ar
    20    56    57    1
    21    56    55    1
    22    57    58    2
    23    65    66    2
    24    65    74   am
    25    79    80   ar
    26    79    78    1
    27   140   139    1
    28    74    75    1
    29    96    95    1
    30    78    75    1
    31    42    40   am
    32    75    76    1
    33   139   137   ar
    34   139   138   ar
    35    95    94    1
    36   137   135   ar
    37    40    41    2
    38    40    39    1
    39   120   118    1
    40   138   136   ar
    41   102   101    1
    42    76    84   am
    43    76    77    2
    44    39    36    1
    45    84    85    1
    46    94    93    1
    47   101    98    1
    48   135   134   ar
    49   118   117    2
    50   118   119    1
    51   136   134   ar
    52   124   123    2
    53    33    32    1
    54    93    92    1
    55   117   116    1
    56    19    18    2
    57   134   133    1
    58    85    86    1
    59    36    35    1
    60    36    37    1
    61   129   130    1
    62    92    89    1
    63    34    32    1
    64    38    37    2
    65    97    98    1
    66    97    90   am
    67   108   107    1
    68    88    86   am
    69    88    89    1
    70   123   122    1
    71    98    99    1
    72    32    31    1
    73    37    43   am
    74    86    87    2
    75    18    17    1
    76    89    90    1
    77   116   115    1
    78   133   130    1
    79   103    99   am
    80   103   104    1
    81    90    91    2
    82   130   131    1
    83    99   100    2
    84   125   122    1
    85   125   126    1
    86   107   104    1
    87   107   109    1
    88    13    14    1
    89    13    10    1
    90   122   121    1
    91    31    28    1
    92    20    17    1
    93    20    21    1
    94    43    44    1
    95    16    17    1
    96    16    11   am
    97   104   105    1
    98    54    52    1
    99   115   114    1
   100    28    29    1
   101    28    27    1
   102    14    15    1
   103   131   132    2
   104    44    45    1
   105    44    47    1
   106    10    11    1
   107    10     9    1
   108   126   127    1
   109    29    30    2
   110    11    12    2
   111    21    22    1
   112   128   127    1
   113    45    48   am
   114    45    46    2
   115    48    49    1
   116    52    49    1
   117    52    53    1
   118   114   111    1
   119   105   106    2
   120    15     9    1
   121     9     3   am
   122    49    50    1
   123    22    23    1
   124   110   111    1
   125   111   112    1
   126     4     3    2
   127     3     2    1
   128    23    24    2
   129    50    51    2
   130   112   113    2
   131     5     2    1
   132     5     6    1
   133    24    25    1
   134    24    26    1
   135     2     1    1
   136     7     6    1
   137     6     8    1
