@<TRIPOS>MOLECULE
tmp/4yj2B01.pdb
 202 189 0 0 0
SMALL
GASTEIGER

@<TRIPOS>ATOM
      1  N        -23.7250   70.6230  -27.6730 N.3     4  ILE4       -0.1245
      2  CA       -23.5900   69.1760  -27.5580 C.3     4  ILE4        0.1561
      3  C        -23.6790   68.7330  -26.1010 C.2     4  ILE4        0.2260
      4  O        -22.9720   69.2550  -25.2390 O.2     4  ILE4       -0.2867
      5  CB       -22.2570   68.6850  -28.1570 C.3     4  ILE4        0.0252
      6  CG1      -22.2560   68.8630  -29.6770 C.3     4  ILE4        0.0019
      7  CG2      -22.0070   67.2270  -27.7920 C.3     4  ILE4        0.0019
      8  CD1      -20.9220   68.5530  -30.3280 C.3     4  ILE4        0.0001
      9  N        -19.4500   72.8630  -26.0790 N.3    50  TYR50      -0.1241
     10  CA       -19.2820   71.8870  -25.0090 C.3    50  TYR50       0.1605
     11  C        -19.3930   72.4980  -23.6140 C.2    50  TYR50       0.2264
     12  O        -19.3850   71.7760  -22.6170 O.2    50  TYR50      -0.2867
     13  CB       -17.9350   71.1740  -25.1530 C.3    50  TYR50       0.0534
     14  CG       -17.9320   70.0980  -26.2150 C.ar   50  TYR50      -0.0201
     15  CD1      -18.3730   68.8130  -25.9270 C.ar   50  TYR50      -0.0009
     16  CD2      -17.4960   70.3670  -27.5040 C.ar   50  TYR50      -0.0009
     17  CE1      -18.3770   67.8250  -26.8930 C.ar   50  TYR50       0.0417
     18  CE2      -17.4960   69.3850  -28.4770 C.ar   50  TYR50       0.0417
     19  CZ       -17.9380   68.1160  -28.1660 C.ar   50  TYR50       0.1957
     20  OH       -17.9400   67.1350  -29.1300 O.3    50  TYR50      -0.2866
     21  N        -23.5940   62.8140  -27.0580 N.3   134  GLN134     -0.1245
     22  CA       -22.2710   62.2140  -27.1360 C.3   134  GLN134      0.1566
     23  C        -22.0220   61.3370  -25.9140 C.2   134  GLN134      0.2260
     24  O        -22.0650   61.8180  -24.7830 O.2   134  GLN134     -0.2867
     25  CB       -21.2140   63.3150  -27.2500 C.3   134  GLN134      0.0367
     26  CG       -19.7890   62.8870  -26.9850 C.3   134  GLN134      0.0905
     27  CD       -18.8130   64.0340  -27.1700 C.2   134  GLN134      0.2608
     28  OE1      -18.8500   64.7380  -28.1800 O.2   134  GLN134     -0.2717
     29  NE2      -17.9400   64.2360  -26.1890 N.am  134  GLN134     -0.0878
     30  N        -24.3110   59.9960  -31.0280 N.3   165  ASN165     -0.1240
     31  CA       -23.0070   59.4060  -31.3140 C.3   165  ASN165      0.1653
     32  C        -22.3260   58.8630  -30.0610 C.2   165  ASN165      0.2266
     33  O        -22.5580   59.3500  -28.9540 O.2   165  ASN165     -0.2867
     34  CB       -22.0950   60.4280  -31.9970 C.3   165  ASN165      0.1155
     35  CG       -22.6170   60.8550  -33.3560 C.2   165  ASN165      0.2627
     36  OD1      -23.4720   60.1900  -33.9420 O.2   165  ASN165     -0.2716
     37  ND2      -22.0980   61.9660  -33.8690 N.am  165  ASN165     -0.0877
     38  N        -18.5070   57.1700  -28.3250 N.3   167  PHE167     -0.1241
     39  CA       -17.1220   56.7330  -28.3430 C.3   167  PHE167      0.1605
     40  C        -17.0590   55.4450  -27.5360 C.2   167  PHE167      0.2264
     41  O        -17.0400   55.4730  -26.3060 O.2   167  PHE167     -0.2867
     42  CB       -16.1970   57.8070  -27.7720 C.3   167  PHE167      0.0534
     43  CG       -16.1980   59.0860  -28.5620 C.ar  167  PHE167     -0.0203
     44  CD1      -17.1710   60.0500  -28.3470 C.ar  167  PHE167     -0.0042
     45  CD2      -15.2310   59.3210  -29.5270 C.ar  167  PHE167     -0.0042
     46  CE1      -17.1780   61.2250  -29.0780 C.ar  167  PHE167     -0.0003
     47  CE2      -15.2320   60.4950  -30.2590 C.ar  167  PHE167     -0.0003
     48  CZ       -16.2070   61.4470  -30.0360 C.ar  167  PHE167     -0.0000
     49  N        -23.3040   57.5890  -35.2530 N.3   198  GLU198     -0.1245
     50  CA       -21.8740   57.3550  -35.3910 C.3   198  GLU198      0.1567
     51  C        -21.3320   56.6880  -34.1380 C.2   198  GLU198      0.2260
     52  O        -21.6070   57.1270  -33.0230 O.2   198  GLU198     -0.2867
     53  CB       -21.1200   58.6620  -35.6430 C.3   198  GLU198      0.0388
     54  CG       -21.4470   59.3530  -36.9520 C.3   198  GLU198      0.1160
     55  CD       -20.4830   60.4820  -37.2600 C.2   198  GLU198      0.3649
     56  OE1      -19.5200   60.6690  -36.4870 O.co2 198  GLU198     -0.2457
     57  OE2      -20.6860   61.1780  -38.2760 O.co2 198  GLU198     -0.2457
     58  N        -17.5660   55.5320  -32.7340 N.3   200  TYR200     -0.1241
     59  CA       -16.1250   55.4360  -32.8880 C.3   200  TYR200      0.1605
     60  C        -15.6130   54.2180  -32.1310 C.2   200  TYR200      0.2264
     61  O        -15.6120   54.1840  -30.8980 O.2   200  TYR200     -0.2867
     62  CB       -15.4530   56.7220  -32.4100 C.3   200  TYR200      0.0534
     63  CG       -15.7730   57.8940  -33.3040 C.ar  200  TYR200     -0.0201
     64  CD1      -14.9200   58.2530  -34.3380 C.ar  200  TYR200     -0.0009
     65  CD2      -16.9450   58.6210  -33.1370 C.ar  200  TYR200     -0.0009
     66  CE1      -15.2140   59.3140  -35.1690 C.ar  200  TYR200      0.0417
     67  CE2      -17.2480   59.6840  -33.9650 C.ar  200  TYR200      0.0417
     68  CZ       -16.3780   60.0240  -34.9780 C.ar  200  TYR200      0.1957
     69  OH       -16.6690   61.0800  -35.8070 O.3   200  TYR200     -0.2866
     70  N        -11.0260   64.5160  -33.1490 N.3   236  VAL236     -0.1231
     71  CA       -12.3150   64.2850  -33.7920 C.3   236  VAL236      0.1692
     72  C        -13.2410   65.4860  -33.6050 C.2   236  VAL236      0.2592
     73  O        -13.9970   65.8470  -34.5070 O.2   236  VAL236     -0.2718
     74  CB       -12.9980   63.0100  -33.2360 C.3   236  VAL236      0.0266
     75  CG1      -14.4060   62.8540  -33.7960 C.3   236  VAL236      0.0020
     76  CG2      -12.1590   61.7750  -33.5440 C.3   236  VAL236      0.0020
     77  N        -13.1590   66.1160  -32.4380 N.am  237  THR237     -0.1953
     78  CA       -14.0450   67.2260  -32.1010 C.3   237  THR237      0.1897
     79  C        -13.4280   68.5910  -32.4020 C.2   237  THR237      0.2313
     80  O        -14.0220   69.6260  -32.0940 O.2   237  THR237     -0.2863
     81  CB       -14.4370   67.1890  -30.6110 C.3   237  THR237      0.1794
     82  OG1      -13.2670   67.3680  -29.8010 O.3   237  THR237     -0.2208
     83  CG2      -15.0950   65.8600  -30.2640 C.3   237  THR237      0.0378
     84  N        -12.8040   70.3040  -35.2660 N.3   239  CYS239     -0.1221
     85  CA       -13.5070   71.1590  -36.2180 C.3   239  CYS239      0.1808
     86  C        -14.8140   71.6870  -35.6350 C.2   239  CYS239      0.2601
     87  O        -15.3250   72.7190  -36.0710 O.2   239  CYS239     -0.2717
     88  CB       -13.7810   70.4030  -37.5180 C.3   239  CYS239      0.0970
     89  SG       -14.9510   69.0420  -37.3450 S.3   239  CYS239     -0.0800
     90  N        -15.3510   70.9760  -34.6480 N.am  240  LEU240     -0.1979
     91  CA       -16.5830   71.3920  -33.9880 C.3   240  LEU240      0.1596
     92  C        -16.3230   72.4360  -32.9080 C.2   240  LEU240      0.2287
     93  O        -17.1960   73.2430  -32.5930 O.2   240  LEU240     -0.2864
     94  CB       -17.2960   70.1870  -33.3720 C.3   240  LEU240      0.0297
     95  CG       -17.8660   69.1420  -34.3300 C.3   240  LEU240      0.0022
     96  CD1      -18.4750   68.0040  -33.5450 C.3   240  LEU240      0.0001
     97  CD2      -18.9010   69.7610  -35.2510 C.3   240  LEU240      0.0001
     98  N        -14.5080   74.3670  -42.1910 N.3   246  LEU246     -0.1245
     99  CA       -15.6170   73.4340  -42.0540 C.3   246  LEU246      0.1561
    100  C        -16.7460   74.0250  -41.2140 C.2   246  LEU246      0.2260
    101  O        -16.5900   74.2530  -40.0140 O.2   246  LEU246     -0.2867
    102  CB       -15.1280   72.1190  -41.4410 C.3   246  LEU246      0.0270
    103  CG       -16.0580   70.9110  -41.5520 C.3   246  LEU246      0.0019
    104  CD1      -16.4520   70.6680  -43.0010 C.3   246  LEU246      0.0001
    105  CD2      -15.3920   69.6770  -40.9660 C.3   246  LEU246      0.0001
    106  N        -23.1830   67.9750  -36.3230 N.3   250  LEU250     -0.1245
    107  CA       -23.0990   66.5190  -36.2710 C.3   250  LEU250      0.1561
    108  C        -23.8800   65.8600  -37.4050 C.2   250  LEU250      0.2260
    109  O        -23.4230   64.8830  -37.9940 O.2   250  LEU250     -0.2867
    110  CB       -23.6050   66.0020  -34.9220 C.3   250  LEU250      0.0270
    111  CG       -22.7760   66.3780  -33.6930 C.3   250  LEU250      0.0019
    112  CD1      -23.4440   65.8880  -32.4140 C.3   250  LEU250      0.0001
    113  CD2      -21.3720   65.8160  -33.8150 C.3   250  LEU250      0.0001
    114  N        -22.1500   66.2180  -40.8530 N.3   253  LEU253     -0.1245
    115  CA       -20.9780   65.3530  -40.8280 C.3   253  LEU253      0.1561
    116  C        -21.3870   63.8890  -40.9480 C.2   253  LEU253      0.2260
    117  O        -20.7000   63.0940  -41.5870 O.2   253  LEU253     -0.2867
    118  CB       -20.1670   65.5790  -39.5500 C.3   253  LEU253      0.0270
    119  CG       -19.5270   66.9640  -39.4100 C.3   253  LEU253      0.0019
    120  CD1      -18.8540   67.1190  -38.0530 C.3   253  LEU253      0.0001
    121  CD2      -18.5440   67.2450  -40.5470 C.3   253  LEU253      0.0001
    122  N        -22.4070   62.9550  -44.6910 N.3   256  ASN256     -0.1225
    123  CA       -21.3110   62.7560  -45.6330 C.3   256  ASN256      0.1785
    124  C        -20.4470   61.5360  -45.3200 C.2   256  ASN256      0.2597
    125  O        -19.6020   61.1490  -46.1250 O.2   256  ASN256     -0.2718
    126  CB       -20.4290   64.0070  -45.6800 C.3   256  ASN256      0.1169
    127  CG       -21.1630   65.2200  -46.2200 C.2   256  ASN256      0.2627
    128  OD1      -21.9430   65.1190  -47.1670 O.2   256  ASN256     -0.2716
    129  ND2      -20.9160   66.3770  -45.6160 N.am  256  ASN256     -0.0877
    130  N        -20.6610   60.9290  -44.1570 N.am  257  MET257     -0.1979
    131  CA       -19.8290   59.8070  -43.7280 C.3   257  MET257      0.1605
    132  C        -20.5690   58.4710  -43.7200 C.2   257  MET257      0.2287
    133  O        -19.9450   57.4140  -43.8100 O.2   257  MET257     -0.2864
    134  CB       -19.2540   60.0770  -42.3340 C.3   257  MET257      0.0413
    135  CG       -18.1580   61.1280  -42.3030 C.3   257  MET257      0.0598
    136  SD       -16.6780   60.6170  -43.1970 S.3   257  MET257     -0.1393
    137  CE       -16.0530   59.3320  -42.1190 C.3   257  MET257      0.0692
    138  N        -16.9110   53.5250  -37.0340 N.3   266  PHE266     -0.1241
    139  CA       -15.7160   54.1440  -37.5940 C.3   266  PHE266      0.1605
    140  C        -14.4210   53.6600  -36.9490 C.2   266  PHE266      0.2264
    141  O        -14.3950   53.2890  -35.7750 O.2   266  PHE266     -0.2867
    142  CB       -15.8020   55.6680  -37.4620 C.3   266  PHE266      0.0534
    143  CG       -16.9660   56.2830  -38.1900 C.ar  266  PHE266     -0.0203
    144  CD1      -17.6060   55.6030  -39.2140 C.ar  266  PHE266     -0.0042
    145  CD2      -17.4120   57.5510  -37.8550 C.ar  266  PHE266     -0.0042
    146  CE1      -18.6740   56.1740  -39.8840 C.ar  266  PHE266     -0.0003
    147  CE2      -18.4770   58.1260  -38.5230 C.ar  266  PHE266     -0.0003
    148  CZ       -19.1090   57.4370  -39.5370 C.ar  266  PHE266     -0.0000
    149  N        -13.8370   58.4990  -45.9630 N.3   307  VAL307     -0.1231
    150  CA       -12.7150   58.8250  -45.0900 C.3   307  VAL307      0.1692
    151  C        -12.7160   60.3070  -44.7360 C.2   307  VAL307      0.2592
    152  O        -12.8930   61.1610  -45.6040 O.2   307  VAL307     -0.2718
    153  CB       -11.3610   58.4640  -45.7390 C.3   307  VAL307      0.0266
    154  CG1      -10.2020   58.9610  -44.8810 C.3   307  VAL307      0.0020
    155  CG2      -11.2570   56.9660  -45.9660 C.3   307  VAL307      0.0020
    156  N        -12.5290   60.6050  -43.4560 N.am  308  ALA308     -0.1966
    157  CA       -12.3590   61.9790  -43.0070 C.3   308  ALA308      0.1728
    158  C        -10.9740   62.1480  -42.3980 C.2   308  ALA308      0.2616
    159  O        -10.4930   61.2650  -41.6900 O.2   308  ALA308     -0.2715
    160  CB       -13.4360   62.3550  -42.0050 C.3   308  ALA308      0.0334
    161  N        -10.3330   63.2770  -42.6810 N.am  309  ALA309     -0.1963
    162  CA        -9.0130   63.5640  -42.1300 C.3   309  ALA309      0.1728
    163  C         -8.9330   65.0060  -41.6440 C.2   309  ALA309      0.2616
    164  O         -9.2630   65.9380  -42.3770 O.2   309  ALA309     -0.2715
    165  CB        -7.9320   63.2910  -43.1640 C.3   309  ALA309      0.0334
    166  N         -8.4930   65.1830  -40.4020 N.am  310  ILE310     -0.1977
    167  CA        -8.3950   66.5100  -39.8070 C.3   310  ILE310      0.1596
    168  C         -6.9500   66.8500  -39.4520 C.2   310  ILE310      0.2287
    169  O         -6.3160   66.1550  -38.6590 O.2   310  ILE310     -0.2864
    170  CB        -9.2700   66.6350  -38.5390 C.3   310  ILE310      0.0276
    171  CG1      -10.7480   66.4150  -38.8730 C.3   310  ILE310      0.0022
    172  CG2       -9.0740   67.9920  -37.8860 C.3   310  ILE310      0.0022
    173  CD1      -11.2130   64.9760  -38.7360 C.3   310  ILE310      0.0001
    174  N        -12.5510   63.3820  -47.5320 N.3   344  LYS344     -0.1231
    175  CA       -12.6320   64.8160  -47.2830 C.3   344  LYS344      0.1693
    176  C        -11.6950   65.2470  -46.1610 C.2   344  LYS344      0.2593
    177  O        -11.5020   64.5250  -45.1830 O.2   344  LYS344     -0.2718
    178  CB       -14.0720   65.2170  -46.9600 C.3   344  LYS344      0.0285
    179  CG       -15.0310   65.0060  -48.1190 C.3   344  LYS344      0.0035
    180  CD       -14.4970   65.6560  -49.3870 C.3   344  LYS344      0.0206
    181  CE       -15.4630   65.5010  -50.5490 C.3   344  LYS344      0.1093
    182  NZ       -14.9360   66.1460  -51.7850 N.3   344  LYS344     -0.1314
    183  N        -11.1240   66.4370  -46.3120 N.am  345  THR345     -0.1939
    184  CA       -10.0760   66.9160  -45.4220 C.3   345  THR345      0.2028
    185  C        -10.3790   68.3100  -44.8810 C.2   345  THR345      0.2642
    186  O        -10.8230   69.1880  -45.6200 O.2   345  THR345     -0.2714
    187  CB        -8.7160   66.9460  -46.1470 C.3   345  THR345      0.1808
    188  OG1       -8.4070   65.6370  -46.6410 O.3   345  THR345     -0.2208
    189  CG2       -7.6120   67.4030  -45.2100 C.3   345  THR345      0.0379
    190  N        -10.1370   68.5050  -43.5900 N.am  346  ALA346     -0.1977
    191  CA       -10.2950   69.8140  -42.9700 C.3   346  ALA346      0.1597
    192  C         -9.0420   70.1890  -42.1840 C.2   346  ALA346      0.2287
    193  O         -8.3730   69.3250  -41.6170 O.2   346  ALA346     -0.2864
    194  CB       -11.5190   69.8320  -42.0660 C.3   346  ALA346      0.0319
    195  N        -10.4730   59.4920  -39.4560 N.3   362  ILE362     -0.1245
    196  CA       -11.7850   58.8870  -39.2510 C.3   362  ILE362      0.1561
    197  C        -12.1630   58.0570  -40.4700 C.2   362  ILE362      0.2260
    198  O        -12.5510   58.6020  -41.5030 O.2   362  ILE362     -0.2867
    199  CB       -12.8820   59.9370  -39.0020 C.3   362  ILE362      0.0252
    200  CG1      -12.4610   60.9160  -37.9050 C.3   362  ILE362      0.0019
    201  CG2      -14.1920   59.2550  -38.6380 C.3   362  ILE362      0.0019
    202  CD1      -13.4760   62.0090  -37.6460 C.3   362  ILE362      0.0001
@<TRIPOS>BOND
     1   182   181    1
     2   181   180    1
     3   180   179    1
     4   179   178    1
     5   174   175    1
     6   175   178    1
     7   175   176    1
     8   128   127    2
     9   188   187    1
    10   183   176   am
    11   183   184    1
    12   127   126    1
    13   127   129   am
    14   176   177    2
    15   187   184    1
    16   187   189    1
    17   125   124    2
    18   155   153    1
    19   149   150    1
    20   153   150    1
    21   153   154    1
    22   126   123    1
    23   123   124    1
    24   123   122    1
    25   186   185    2
    26   152   151    2
    27   184   185    1
    28   124   130   am
    29   150   151    1
    30   185   190   am
    31   151   156   am
    32   130   131    1
    33   133   132    2
    34   131   132    1
    35   131   134    1
    36   190   191    1
    37   156   157    1
    38   136   135    1
    39   136   137    1
    40   165   162    1
    41   157   158    1
    42   157   160    1
    43   104   103    1
    44   191   192    1
    45   191   194    1
    46   161   158   am
    47   161   162    1
    48   158   159    2
    49   164   163    2
    50   134   135    1
    51    98    99    1
    52   192   193    2
    53   162   163    1
    54    99   102    1
    55    99   100    1
    56   163   166   am
    57   117   116    2
    58   103   102    1
    59   103   105    1
    60   198   197    2
    61   100   101    2
    62   116   115    1
    63   114   115    1
    64   115   118    1
    65   121   119    1
    66   197   196    1
    67   166   167    1
    68   146   148   ar
    69   146   144   ar
    70   167   168    1
    71   167   170    1
    72   118   119    1
    73   148   147   ar
    74   195   196    1
    75   168   169    2
    76   119   120    1
    77   196   199    1
    78   144   143   ar
    79   199   201    1
    80   199   200    1
    81   171   173    1
    82   171   170    1
    83   170   172    1
    84   147   145   ar
    85    57    55   ar
    86   143   145   ar
    87   143   142    1
    88   109   108    2
    89   200   202    1
    90   139   142    1
    91   139   138    1
    92   139   140    1
    93    88    89    1
    94    88    85    1
    95   108   107    1
    96    55    54    1
    97    55    56   ar
    98    54    53    1
    99   140   141    2
   100   106   107    1
   101   107   110    1
   102    85    86    1
   103    85    84    1
   104    87    86    2
   105    69    68    1
   106    53    50    1
   107    86    90   am
   108    50    49    1
   109    50    51    1
   110    97    95    1
   111    66    68   ar
   112    66    64   ar
   113    68    67   ar
   114   110   111    1
   115    90    91    1
   116    73    72    2
   117    64    63   ar
   118    95    96    1
   119    95    94    1
   120    51    52    2
   121    91    94    1
   122    91    92    1
   123    67    65   ar
   124    36    35    2
   125    37    35   am
   126   113   111    1
   127    75    74    1
   128    71    72    1
   129    71    74    1
   130    71    70    1
   131   111   112    1
   132    72    77   am
   133    76    74    1
   134    35    34    1
   135    63    65   ar
   136    63    62    1
   137    92    93    2
   138    59    58    1
   139    59    62    1
   140    59    60    1
   141    77    78    1
   142    79    78    1
   143    79    80    2
   144    60    61    2
   145    78    81    1
   146    34    31    1
   147    31    30    1
   148    31    32    1
   149    81    83    1
   150    81    82    1
   151     8     6    1
   152    47    48   ar
   153    47    45   ar
   154    32    33    2
   155    48    46   ar
   156     6     5    1
   157    45    43   ar
   158    20    19    1
   159    46    44   ar
   160    43    44   ar
   161    43    42    1
   162    18    19   ar
   163    18    16   ar
   164    39    38    1
   165    39    42    1
   166    39    40    1
   167    28    27    2
   168    19    17   ar
   169     5     7    1
   170     5     2    1
   171     1     2    1
   172     2     3    1
   173    40    41    2
   174    16    14   ar
   175    25    22    1
   176    25    26    1
   177    27    26    1
   178    27    29   am
   179    22    21    1
   180    22    23    1
   181    17    15   ar
   182    14    15   ar
   183    14    13    1
   184     3     4    2
   185     9    10    1
   186    23    24    2
   187    13    10    1
   188    10    11    1
   189    11    12    2
