@<TRIPOS>MOLECULE
tmp/4yj3B01.pdb
 175 165 0 0 0
SMALL
GASTEIGER

@<TRIPOS>ATOM
      1  N         11.1660  222.4480   33.0860 N.3   236  VAL236     -0.1245
      2  CA        12.4670  222.2340   33.7080 C.3   236  VAL236      0.1561
      3  C         13.3700  223.4550   33.5420 C.2   236  VAL236      0.2260
      4  O         14.0390  223.8820   34.4860 O.2   236  VAL236     -0.2867
      5  CB        13.1690  220.9940   33.1140 C.3   236  VAL236      0.0252
      6  CG1       14.5980  220.8840   33.6270 C.3   236  VAL236      0.0019
      7  CG2       12.3790  219.7330   33.4340 C.3   236  VAL236      0.0019
      8  N         13.1550  228.3830   35.1850 N.3   239  CYS239     -0.1221
      9  CA        13.9950  229.2770   35.9680 C.3   239  CYS239      0.1808
     10  C         15.2730  229.6410   35.2180 C.2   239  CYS239      0.2601
     11  O         15.8730  230.6860   35.4660 O.2   239  CYS239     -0.2717
     12  CB        14.3360  228.6320   37.3090 C.3   239  CYS239      0.0970
     13  SG        14.9240  226.9370   37.1470 S.3   239  CYS239     -0.0800
     14  N         15.6830  228.7740   34.3000 N.am  240  LEU240     -0.1979
     15  CA        16.8850  229.0110   33.5120 C.3   240  LEU240      0.1596
     16  C         16.6410  230.0720   32.4460 C.2   240  LEU240      0.2287
     17  O         17.5540  230.8020   32.0620 O.2   240  LEU240     -0.2864
     18  CB        17.3630  227.7100   32.8650 C.3   240  LEU240      0.0297
     19  CG        17.8240  226.6140   33.8280 C.3   240  LEU240      0.0022
     20  CD1       18.0230  225.2960   33.0970 C.3   240  LEU240      0.0001
     21  CD2       19.1040  227.0330   34.5310 C.3   240  LEU240      0.0001
     22  N         15.7210  232.7600   42.6800 N.3   246  LEU246     -0.1231
     23  CA        16.6090  231.6710   43.0590 C.3   246  LEU246      0.1693
     24  C         17.9140  231.7280   42.2700 C.2   246  LEU246      0.2592
     25  O         18.9220  231.1550   42.6840 O.2   246  LEU246     -0.2718
     26  CB        15.9150  230.3230   42.8440 C.3   246  LEU246      0.0284
     27  CG        16.4300  229.1330   43.6550 C.3   246  LEU246      0.0019
     28  CD1       16.2220  229.3660   45.1460 C.3   246  LEU246      0.0001
     29  CD2       15.7500  227.8460   43.2080 C.3   246  LEU246      0.0001
     30  N         17.8790  232.4290   41.1380 N.am  247  ASN247     -0.1960
     31  CA        19.0320  232.5640   40.2470 C.3   247  ASN247      0.1819
     32  C         19.6250  231.2130   39.8570 C.2   247  ASN247      0.2621
     33  O         20.6310  230.7760   40.4170 O.2   247  ASN247     -0.2715
     34  CB        20.1080  233.4440   40.8920 C.3   247  ASN247      0.1195
     35  CG        21.2330  233.7900   39.9320 C.2   247  ASN247      0.2630
     36  OD1       21.1430  234.7570   39.1750 O.2   247  ASN247     -0.2716
     37  ND2       22.3010  232.9990   39.9600 N.am  247  ASN247     -0.0877
     38  N         18.9920  230.5550   38.8920 N.am  248  ALA248     -0.1963
     39  CA        19.4230  229.2360   38.4480 C.3   248  ALA248      0.1728
     40  C         20.5580  229.3360   37.4340 C.2   248  ALA248      0.2616
     41  O         20.4770  230.1060   36.4770 O.2   248  ALA248     -0.2715
     42  CB        18.2500  228.4750   37.8570 C.3   248  ALA248      0.0334
     43  N         21.6140  228.5550   37.6450 N.am  249  ASP249     -0.1957
     44  CA        22.7450  228.5440   36.7220 C.3   249  ASP249      0.1840
     45  C         23.1960  227.1200   36.4140 C.2   249  ASP249      0.2621
     46  O         24.3740  226.8780   36.1420 O.2   249  ASP249     -0.2715
     47  CB        23.9150  229.3580   37.2860 C.3   249  ASP249      0.1450
     48  CG        24.5630  228.6980   38.4870 C.2   249  ASP249      0.3671
     49  OD1       23.8450  228.0220   39.2510 O.co2 249  ASP249     -0.2456
     50  OD2       25.7920  228.8530   38.6630 O.co2 249  ASP249     -0.2456
     51  N         22.2520  226.1830   36.4770 N.am  250  LEU250     -0.1977
     52  CA        22.4750  224.7810   36.1120 C.3   250  LEU250      0.1596
     53  C         23.4630  224.0580   37.0330 C.2   250  LEU250      0.2287
     54  O         23.2120  222.9240   37.4400 O.2   250  LEU250     -0.2864
     55  CB        22.9500  224.6780   34.6560 C.3   250  LEU250      0.0297
     56  CG        22.4600  223.4910   33.8230 C.3   250  LEU250      0.0022
     57  CD1       22.7030  223.7490   32.3470 C.3   250  LEU250      0.0001
     58  CD2       23.1330  222.1970   34.2500 C.3   250  LEU250      0.0001
     59  N         24.2480  224.8140   40.1170 N.3   252  LYS252     -0.1231
     60  CA        23.6040  224.6730   41.4180 C.3   252  LYS252      0.1693
     61  C         22.6640  223.4760   41.4200 C.2   252  LYS252      0.2591
     62  O         22.5630  222.7540   42.4130 O.2   252  LYS252     -0.2718
     63  CB        22.8340  225.9430   41.7890 C.3   252  LYS252      0.0285
     64  CG        23.7090  227.1030   42.2260 C.3   252  LYS252      0.0035
     65  CD        22.8700  228.3370   42.5170 C.3   252  LYS252      0.0206
     66  CE        23.7440  229.5210   42.9000 C.3   252  LYS252      0.1093
     67  NZ        22.9370  230.7290   43.2330 N.3   252  LYS252     -0.1314
     68  N         21.9830  223.2710   40.2970 N.am  253  LEU253     -0.1980
     69  CA        21.0470  222.1640   40.1510 C.3   253  LEU253      0.1596
     70  C         21.7580  220.8250   40.3190 C.2   253  LEU253      0.2287
     71  O         21.1920  219.8710   40.8530 O.2   253  LEU253     -0.2864
     72  CB        20.3530  222.2310   38.7880 C.3   253  LEU253      0.0297
     73  CG        19.2750  221.1880   38.4890 C.3   253  LEU253      0.0022
     74  CD1       18.0860  221.3520   39.4210 C.3   253  LEU253      0.0001
     75  CD2       18.8360  221.2840   37.0380 C.3   253  LEU253      0.0001
     76  N         22.8180  220.3090   44.1410 N.3   256  ASN256     -0.1225
     77  CA        21.6970  220.0880   45.0470 C.3   256  ASN256      0.1785
     78  C         20.9150  218.8040   44.7870 C.2   256  ASN256      0.2597
     79  O         20.5160  218.1160   45.7250 O.2   256  ASN256     -0.2718
     80  CB        20.7440  221.2790   44.9850 C.3   256  ASN256      0.1169
     81  CG        21.3620  222.5420   45.5360 C.2   256  ASN256      0.2627
     82  OD1       21.3120  222.7940   46.7380 O.2   256  ASN256     -0.2716
     83  ND2       21.9520  223.3450   44.6600 N.am  256  ASN256     -0.0877
     84  N         20.6890  218.4840   43.5170 N.am  257  MET257     -0.1979
     85  CA        19.8680  217.3300   43.1690 C.3   257  MET257      0.1605
     86  C         20.6640  216.0290   43.1290 C.2   257  MET257      0.2287
     87  O         20.0850  214.9430   43.1200 O.2   257  MET257     -0.2864
     88  CB        19.1810  217.5540   41.8200 C.3   257  MET257      0.0413
     89  CG        18.1360  218.6540   41.8330 C.3   257  MET257      0.0598
     90  SD        16.7290  218.2710   42.8910 S.3   257  MET257     -0.1393
     91  CE        16.1270  216.7750   42.1160 C.3   257  MET257      0.0692
     92  N         16.2430  213.7940   46.5880 N.3   306  THR306     -0.1203
     93  CA        16.0440  215.2300   46.4540 C.3   306  THR306      0.1994
     94  C         14.8430  215.5120   45.5570 C.2   306  THR306      0.2618
     95  O         14.5590  214.7530   44.6300 O.2   306  THR306     -0.2717
     96  CB        17.2920  215.9240   45.8770 C.3   306  THR306      0.1784
     97  OG1       17.6900  215.2690   44.6670 O.3   306  THR306     -0.2211
     98  CG2       18.4390  215.8720   46.8720 C.3   306  THR306      0.0376
     99  N         14.1350  216.6010   45.8400 N.am  307  VAL307     -0.1965
    100  CA        12.9480  216.9640   45.0750 C.3   307  VAL307      0.1727
    101  C         12.9300  218.4500   44.7330 C.2   307  VAL307      0.2616
    102  O         13.0370  219.2990   45.6150 O.2   307  VAL307     -0.2715
    103  CB        11.6580  216.6120   45.8410 C.3   307  VAL307      0.0290
    104  CG1       10.4500  217.2480   45.1720 C.3   307  VAL307      0.0023
    105  CG2       11.4890  215.1050   45.9380 C.3   307  VAL307      0.0023
    106  N         12.7950  218.7570   43.4470 N.am  308  ALA308     -0.1963
    107  CA        12.6930  220.1390   42.9960 C.3   308  ALA308      0.1728
    108  C         11.3950  220.3560   42.2280 C.2   308  ALA308      0.2616
    109  O         11.0830  219.6110   41.3000 O.2   308  ALA308     -0.2715
    110  CB        13.8870  220.5070   42.1360 C.3   308  ALA308      0.0334
    111  N         10.6410  221.3770   42.6180 N.am  309  ALA309     -0.1963
    112  CA         9.3680  221.6720   41.9700 C.3   309  ALA309      0.1728
    113  C          9.2860  223.1370   41.5590 C.2   309  ALA309      0.2616
    114  O          9.7310  224.0230   42.2890 O.2   309  ALA309     -0.2715
    115  CB         8.2110  221.3120   42.8890 C.3   309  ALA309      0.0334
    116  N          8.7180  223.3840   40.3830 N.am  310  ILE310     -0.1977
    117  CA         8.5700  224.7430   39.8740 C.3   310  ILE310      0.1596
    118  C          7.1140  225.0400   39.5240 C.2   310  ILE310      0.2287
    119  O          6.4450  224.2400   38.8680 O.2   310  ILE310     -0.2864
    120  CB         9.4610  224.9810   38.6340 C.3   310  ILE310      0.0276
    121  CG1        9.1680  226.3450   38.0050 C.3   310  ILE310      0.0022
    122  CG2        9.2710  223.8750   37.6120 C.3   310  ILE310      0.0022
    123  CD1        9.5390  227.5150   38.8840 C.3   310  ILE310      0.0001
    124  N         15.3610  218.9210   54.6660 N.3   341  ASN341     -0.1225
    125  CA        14.7360  219.8420   53.7200 C.3   341  ASN341      0.1785
    126  C         15.0880  219.5300   52.2710 C.2   341  ASN341      0.2597
    127  O         15.4530  220.4220   51.5060 O.2   341  ASN341     -0.2718
    128  CB        15.1260  221.2840   54.0490 C.3   341  ASN341      0.1169
    129  CG        14.6980  221.6980   55.4440 C.2   341  ASN341      0.2627
    130  OD1       15.5310  222.0060   56.2970 O.2   341  ASN341     -0.2716
    131  ND2       13.3910  221.7080   55.6830 N.am  341  ASN341     -0.0877
    132  N         14.9650  218.2590   51.8990 N.am  342  ASN342     -0.1960
    133  CA        15.3190  217.8050   50.5580 C.3   342  ASN342      0.1819
    134  C         14.2540  218.1090   49.5060 C.2   342  ASN342      0.2621
    135  O         14.2230  217.4830   48.4460 O.2   342  ASN342     -0.2715
    136  CB        15.6090  216.3010   50.5720 C.3   342  ASN342      0.1195
    137  CG        14.5020  215.4930   51.2290 C.2   342  ASN342      0.2630
    138  OD1       13.4480  216.0240   51.5790 O.2   342  ASN342     -0.2716
    139  ND2       14.7380  214.1970   51.3940 N.am  342  ASN342     -0.0877
    140  N         13.3770  219.0640   49.8050 N.am  343  VAL343     -0.1963
    141  CA        12.3440  219.4820   48.8640 C.3   343  VAL343      0.1727
    142  C         12.2850  221.0020   48.7630 C.2   343  VAL343      0.2616
    143  O         11.8110  221.6750   49.6790 O.2   343  VAL343     -0.2715
    144  CB        10.9500  218.9570   49.2660 C.3   343  VAL343      0.0290
    145  CG1        9.9030  219.4240   48.2670 C.3   343  VAL343      0.0023
    146  CG2       10.9530  217.4390   49.3670 C.3   343  VAL343      0.0023
    147  N         12.7700  221.5390   47.6470 N.am  344  LYS344     -0.1977
    148  CA        12.7450  222.9790   47.4160 C.3   344  LYS344      0.1596
    149  C         11.7240  223.3370   46.3430 C.2   344  LYS344      0.2287
    150  O         11.4460  222.5400   45.4470 O.2   344  LYS344     -0.2864
    151  CB        14.1340  223.4880   47.0210 C.3   344  LYS344      0.0298
    152  CG        15.1960  223.3090   48.1020 C.3   344  LYS344      0.0038
    153  CD        14.7960  223.9800   49.4120 C.3   344  LYS344      0.0206
    154  CE        15.7910  223.6720   50.5220 C.3   344  LYS344      0.1093
    155  NZ        15.3290  224.1870   51.8410 N.3   344  LYS344     -0.1314
    156  N         10.2520  226.7290   43.8420 N.3   346  ALA346     -0.1245
    157  CA        10.2920  228.1060   43.3670 C.3   346  ALA346      0.1562
    158  C          9.0700  228.4040   42.5090 C.2   346  ALA346      0.2260
    159  O          8.4390  227.4900   41.9770 O.2   346  ALA346     -0.2867
    160  CB        11.5670  228.3680   42.5910 C.3   346  ALA346      0.0290
    161  N          5.8330  221.7010   37.1730 N.3   360  THR360     -0.1218
    162  CA         6.7530  220.7000   36.6450 C.3   360  THR360      0.1862
    163  C          7.5470  220.0470   37.7740 C.2   360  THR360      0.2287
    164  O          8.0270  220.7240   38.6840 O.2   360  THR360     -0.2866
    165  CB         7.7180  221.3160   35.6160 C.3   360  THR360      0.1770
    166  OG1        6.9630  221.9210   34.5600 O.3   360  THR360     -0.2211
    167  CG2        8.6330  220.2540   35.0300 C.3   360  THR360      0.0375
    168  N         10.5920  217.4680   39.3170 N.3   362  ILE362     -0.1245
    169  CA        11.8940  216.8280   39.1620 C.3   362  ILE362      0.1561
    170  C         12.2990  216.1810   40.4780 C.2   362  ILE362      0.2260
    171  O         12.3960  216.8570   41.5020 O.2   362  ILE362     -0.2867
    172  CB        12.9820  217.8230   38.7250 C.3   362  ILE362      0.0252
    173  CG1       12.7590  218.2550   37.2770 C.3   362  ILE362      0.0019
    174  CG2       14.3610  217.2020   38.8720 C.3   362  ILE362      0.0019
    175  CD1       13.8800  219.0930   36.7200 C.3   362  ILE362      0.0001
@<TRIPOS>BOND
     1    17    16    2
     2    57    56    1
     3    16    15    1
     4    18    15    1
     5    18    19    1
     6     1     2    1
     7    20    19    1
     8     5     7    1
     9     5     6    1
    10     5     2    1
    11    15    14    1
    12     3     2    1
    13     3     4    2
    14    56    58    1
    15    56    55    1
    16    19    21    1
    17    14    10   am
    18   166   165    1
    19    55    52    1
    20   167   165    1
    21     8     9    1
    22    10    11    2
    23    10     9    1
    24   165   162    1
    25     9    12    1
    26    52    51    1
    27    52    53    1
    28    46    45    2
    29    45    51   am
    30    45    44    1
    31    41    40    2
    32   162   161    1
    33   162   163    1
    34   175   173    1
    35    44    47    1
    36    44    43    1
    37    53    54    2
    38    75    73    1
    39    13    12    1
    40   173   172    1
    41    47    48    1
    42    40    43   am
    43    40    39    1
    44   122   120    1
    45   163   164    2
    46    42    39    1
    47   121   120    1
    48   121   123    1
    49    39    38    1
    50    48    50   ar
    51    48    49   ar
    52    73    72    1
    53    73    74    1
    54   120   117    1
    55   172   174    1
    56   172   169    1
    57    72    69    1
    58   119   118    2
    59    38    32   am
    60   169   168    1
    61   169   170    1
    62    36    35    2
    63   118   117    1
    64    32    31    1
    65    32    33    2
    66   117   116    1
    67    35    37   am
    68    35    34    1
    69    59    60    1
    70    69    68    1
    71    69    70    1
    72    31    34    1
    73    31    30    1
    74    68    61   am
    75    70    71    2
    76   116   113   am
    77   170   171    2
    78    30    24   am
    79   109   108    2
    80    60    61    1
    81    60    63    1
    82    61    62    2
    83   113   112    1
    84   113   114    2
    85    63    64    1
    86    88    89    1
    87    88    85    1
    88    89    90    1
    89   112   111    1
    90   112   115    1
    91   159   158    2
    92    91    90    1
    93   110   107    1
    94    64    65    1
    95   108   111   am
    96   108   107    1
    97    24    25    2
    98    24    23    1
    99   158   157    1
   100    65    66    1
   101   160   157    1
   102    22    23    1
   103    26    23    1
   104    26    27    1
   105    66    67    1
   106   107   106    1
   107    87    86    2
   108    86    85    1
   109    85    84    1
   110    29    27    1
   111   157   156    1
   112   106   101   am
   113    84    78   am
   114    27    28    1
   115    76    77    1
   116    95    94    2
   117    83    81   am
   118    97    96    1
   119   101   100    1
   120   101   102    2
   121    78    77    1
   122    78    79    2
   123    80    77    1
   124    80    81    1
   125   100    99    1
   126   100   103    1
   127   104   103    1
   128   150   149    2
   129    81    82    2
   130    94    99   am
   131    94    93    1
   132   103   105    1
   133    96    93    1
   134    96    98    1
   135   149   148    1
   136    93    92    1
   137   151   148    1
   138   151   152    1
   139   148   147    1
   140   147   142   am
   141   152   153    1
   142   145   144    1
   143   135   134    2
   144   142   141    1
   145   142   143    2
   146   141   144    1
   147   141   140    1
   148   144   146    1
   149   153   154    1
   150   134   140   am
   151   134   133    1
   152   154   155    1
   153   133   136    1
   154   133   132    1
   155   136   137    1
   156   137   139   am
   157   137   138    2
   158   127   126    2
   159   132   126   am
   160   126   125    1
   161   125   128    1
   162   125   124    1
   163   128   129    1
   164   129   131   am
   165   129   130    2
