@<TRIPOS>MOLECULE
tmp/4yjeA00.pdb
 234 219 0 0 0
SMALL
GASTEIGER

@<TRIPOS>ATOM
      1  N        -20.5320  -19.2520   27.3260 N.3    56  PHE56      -0.1241
      2  CA       -20.5680  -19.9830   26.0560 C.3    56  PHE56       0.1605
      3  C        -22.0030  -20.1750   25.5660 C.2    56  PHE56       0.2264
      4  O        -22.2220  -20.5360   24.4130 O.2    56  PHE56      -0.2867
      5  CB       -19.8440  -21.3370   26.1570 C.3    56  PHE56       0.0534
      6  CG       -18.3500  -21.2310   26.0440 C.ar   56  PHE56      -0.0203
      7  CD1      -17.7400  -21.0930   24.7970 C.ar   56  PHE56      -0.0042
      8  CD2      -17.5530  -21.2580   27.1830 C.ar   56  PHE56      -0.0042
      9  CE1      -16.3520  -20.9770   24.6840 C.ar   56  PHE56      -0.0003
     10  CE2      -16.1570  -21.1400   27.0810 C.ar   56  PHE56      -0.0003
     11  CZ       -15.5600  -20.9960   25.8340 C.ar   56  PHE56      -0.0000
     12  N        -25.5650  -15.5030   28.4200 N.3    61  ARG61      -0.1245
     13  CA       -25.0360  -14.2020   28.0290 C.3    61  ARG61       0.1563
     14  C        -26.1170  -13.1220   28.1210 C.2    61  ARG61       0.2260
     15  O        -25.8440  -12.0120   28.5810 O.2    61  ARG61      -0.2867
     16  CB       -24.4430  -14.2400   26.6160 C.3    61  ARG61       0.0307
     17  CG       -23.1550  -15.0490   26.4780 C.3    61  ARG61       0.0489
     18  CD       -22.3720  -14.6550   25.2150 C.3    61  ARG61       0.2205
     19  NE       -23.0530  -15.0690   23.9840 N.pl3  61  ARG61      -0.0865
     20  CZ       -22.8390  -16.2190   23.3430 C.cat  61  ARG61       0.5346
     21  NH1      -21.9570  -17.1020   23.8010 N.pl3  61  ARG61       0.1354
     22  NH2      -23.5030  -16.4840   22.2260 N.pl3  61  ARG61       0.1354
     23  N         -6.9310  -14.9830   32.2510 N.3    97  ARG97      -0.1245
     24  CA        -7.3560  -15.8260   31.1290 C.3    97  ARG97       0.1563
     25  C         -8.8680  -16.0530   31.1310 C.2    97  ARG97       0.2260
     26  O         -9.5260  -15.8510   30.1140 O.2    97  ARG97      -0.2867
     27  CB        -6.6210  -17.1670   31.1590 C.3    97  ARG97       0.0307
     28  CG        -5.1810  -17.0960   30.6750 C.3    97  ARG97       0.0489
     29  CD        -4.5080  -18.4750   30.7070 C.3    97  ARG97       0.2205
     30  NE        -5.3380  -19.4790   30.0450 N.pl3  97  ARG97      -0.0865
     31  CZ        -5.8300  -20.5720   30.6220 C.cat  97  ARG97       0.5346
     32  NH1       -5.5610  -20.8610   31.8910 N.pl3  97  ARG97       0.1354
     33  NH2       -6.5870  -21.3950   29.9110 N.pl3  97  ARG97       0.1354
     34  N        -11.5100  -14.6680   28.4430 N.3   101  MET101     -0.1245
     35  CA       -12.3590  -15.5850   27.6850 C.3   101  MET101      0.1570
     36  C        -13.8230  -15.1670   27.7490 C.2   101  MET101      0.2261
     37  O        -14.5240  -15.1830   26.7190 O.2   101  MET101     -0.2867
     38  CB       -12.1710  -17.0260   28.1610 C.3   101  MET101      0.0387
     39  CG       -10.7890  -17.5650   27.8100 C.3   101  MET101      0.0595
     40  SD       -10.4690  -19.1120   28.6680 S.3   101  MET101     -0.1393
     41  CE       -11.4760  -20.2400   27.7140 C.3   101  MET101      0.0692
     42  N        -14.3530  -12.1950   25.5450 N.3   104  THR104     -0.1203
     43  CA       -14.4000  -12.6260   24.1380 C.3   104  THR104      0.1994
     44  C        -15.8000  -13.1080   23.7920 C.2   104  THR104      0.2617
     45  O        -16.3790  -12.6770   22.7920 O.2   104  THR104     -0.2717
     46  CB       -13.3570  -13.7370   23.8450 C.3   104  THR104      0.1784
     47  OG1      -12.0490  -13.2560   24.1740 O.3   104  THR104     -0.2211
     48  CG2      -13.3690  -14.1440   22.3640 C.3   104  THR104      0.0376
     49  N        -16.3510  -13.9960   24.6240 N.am  105  ASN105     -0.1974
     50  CA       -17.6900  -14.5170   24.3900 C.3   105  ASN105      0.1688
     51  C        -18.7650  -13.4380   24.4460 C.2   105  ASN105      0.2292
     52  O        -19.7030  -13.4590   23.6490 O.2   105  ASN105     -0.2864
     53  CB       -18.0190  -15.6390   25.3860 C.3   105  ASN105      0.1181
     54  CG       -17.2010  -16.8860   25.1350 C.2   105  ASN105      0.2629
     55  OD1      -16.5890  -17.0330   24.0750 O.2   105  ASN105     -0.2716
     56  ND2      -17.1850  -17.7930   26.1070 N.am  105  ASN105     -0.0877
     57  N        -18.6620  -11.2870   21.1920 N.3   108  PHE108     -0.1227
     58  CA       -18.9860  -11.9990   19.9520 C.3   108  PHE108      0.1736
     59  C        -20.3440  -11.5400   19.4100 C.2   108  PHE108      0.2596
     60  O        -21.3720  -11.7130   20.0570 O.2   108  PHE108     -0.2718
     61  CB       -18.9750  -13.5180   20.1680 C.3   108  PHE108      0.0547
     62  CG       -19.2590  -14.3100   18.9140 C.ar  108  PHE108     -0.0202
     63  CD1      -18.2260  -14.6650   18.0570 C.ar  108  PHE108     -0.0042
     64  CD2      -20.5610  -14.6830   18.5870 C.ar  108  PHE108     -0.0042
     65  CE1      -18.4800  -15.3830   16.8930 C.ar  108  PHE108     -0.0003
     66  CE2      -20.8290  -15.4050   17.4210 C.ar  108  PHE108     -0.0003
     67  CZ       -19.7880  -15.7550   16.5760 C.ar  108  PHE108     -0.0000
     68  N        -20.3250  -10.9320   18.2260 N.am  109  GLY109     -0.1957
     69  CA       -21.5450  -10.4190   17.5800 C.3   109  GLY109      0.1869
     70  C        -22.3250   -9.3540   18.3430 C.2   109  GLY109      0.2309
     71  O        -23.4690   -9.0590   17.9860 O.2   109  GLY109     -0.2863
     72  N        -19.1100   -4.3690   22.6680 N.3   114  LYS114     -0.1245
     73  CA       -17.8520   -3.9230   22.0910 C.3   114  LYS114      0.1561
     74  C        -17.6240   -2.4500   22.4190 C.2   114  LYS114      0.2260
     75  O        -16.5230   -2.0640   22.8320 O.2   114  LYS114     -0.2867
     76  CB       -17.8500   -4.1330   20.5860 C.3   114  LYS114      0.0271
     77  CG       -17.7380   -5.5910   20.1680 C.3   114  LYS114      0.0035
     78  CD       -17.6410   -5.6810   18.6560 C.3   114  LYS114      0.0206
     79  CE       -17.8140   -7.1030   18.1660 C.3   114  LYS114      0.1093
     80  NZ       -17.4410   -7.1740   16.7280 N.3   114  LYS114     -0.1314
     81  N         -2.8830  -15.2530   23.8720 N.3   140  GLN140     -0.1231
     82  CA        -3.8920  -15.7620   22.9480 C.3   140  GLN140      0.1698
     83  C         -5.2610  -15.1940   23.2820 C.2   140  GLN140      0.2592
     84  O         -5.9930  -14.7360   22.4000 O.2   140  GLN140     -0.2718
     85  CB        -3.9360  -17.2950   23.0180 C.3   140  GLN140      0.0381
     86  CG        -4.8580  -17.9340   21.9550 C.3   140  GLN140      0.0905
     87  CD        -6.3420  -17.9300   22.3540 C.2   140  GLN140      0.2608
     88  OE1       -6.6810  -18.0350   23.5370 O.2   140  GLN140     -0.2717
     89  NE2       -7.2280  -17.8140   21.3640 N.am  140  GLN140     -0.0878
     90  N         -5.6050  -15.2520   24.5650 N.am  141  VAL141     -0.1980
     91  CA        -6.8960  -14.7790   25.0600 C.3   141  VAL141      0.1595
     92  C         -7.0710  -13.2690   24.8170 C.2   141  VAL141      0.2287
     93  O         -8.1000  -12.8300   24.2990 O.2   141  VAL141     -0.2864
     94  CB        -7.0530  -15.1290   26.5680 C.3   141  VAL141      0.0276
     95  CG1       -8.2320  -14.3840   27.1860 C.3   141  VAL141      0.0022
     96  CG2       -7.2230  -16.6190   26.7520 C.3   141  VAL141      0.0022
     97  N         -7.6690  -12.3680   21.2240 N.3   144  SER144     -0.1217
     98  CA        -9.0620  -12.6530   20.8190 C.3   144  SER144      0.1889
     99  C        -10.0400  -11.5470   21.2220 C.2   144  SER144      0.2288
    100  O        -10.9620  -11.2170   20.4740 O.2   144  SER144     -0.2866
    101  CB        -9.5550  -13.9870   21.3840 C.3   144  SER144      0.2089
    102  OG        -8.8000  -15.0440   20.8170 O.3   144  SER144     -0.2183
    103  N         -9.3180   -8.8160   18.8170 N.3   147  ARG147     -0.1231
    104  CA        -9.8170   -9.2270   17.5100 C.3   147  ARG147      0.1694
    105  C        -11.3020   -8.9030   17.3670 C.2   147  ARG147      0.2592
    106  O        -11.7330   -8.3380   16.3500 O.2   147  ARG147     -0.2718
    107  CB        -9.6060  -10.7280   17.2780 C.3   147  ARG147      0.0321
    108  CG       -10.2150  -11.2080   15.9540 C.3   147  ARG147      0.0489
    109  CD       -11.1510  -12.3470   16.2100 C.3   147  ARG147      0.2205
    110  NE       -11.6280  -12.9930   14.9800 N.pl3 147  ARG147     -0.0865
    111  CZ       -11.1520  -14.1370   14.5070 C.cat 147  ARG147      0.5346
    112  NH1      -10.1550  -14.7600   15.1270 N.pl3 147  ARG147      0.1354
    113  NH2      -11.6740  -14.6640   13.4120 N.pl3 147  ARG147      0.1354
    114  N        -12.0760   -9.2940   18.3760 N.am  148  ASN148     -0.1974
    115  CA       -13.5000   -8.9830   18.4230 C.3   148  ASN148      0.1688
    116  C        -13.7700   -7.4740   18.4180 C.2   148  ASN148      0.2292
    117  O        -14.5770   -6.9960   17.6390 O.2   148  ASN148     -0.2864
    118  CB       -14.1710   -9.6730   19.6220 C.3   148  ASN148      0.1181
    119  CG       -14.4290  -11.1510   19.3680 C.2   148  ASN148      0.2629
    120  OD1      -13.9420  -11.7090   18.3800 O.2   148  ASN148     -0.2716
    121  ND2      -15.2060  -11.7890   20.2460 N.am  148  ASN148     -0.0877
    122  N        -13.3230   -5.8730   15.0330 N.3   151  TRP151     -0.1241
    123  CA       -14.2920   -6.1940   14.0000 C.3   151  TRP151      0.1605
    124  C        -15.4910   -5.2620   14.0890 C.2   151  TRP151      0.2264
    125  O        -16.1270   -5.1480   15.1400 O.2   151  TRP151     -0.2867
    126  CB       -14.7430   -7.6530   14.0850 C.3   151  TRP151      0.0550
    127  CG       -15.7250   -8.0350   12.9960 C.ar  151  TRP151      0.0003
    128  CD1      -17.0220   -8.4330   13.1610 C.ar  151  TRP151      0.0946
    129  CD2      -15.4750   -8.0440   11.5820 C.ar  151  TRP151      0.0152
    130  NE1      -17.5970   -8.6950   11.9320 N.ar  151  TRP151     -0.2442
    131  CE2      -16.6650   -8.4740   10.9500 C.ar  151  TRP151      0.0810
    132  CE3      -14.3500   -7.7530   10.7900 C.ar  151  TRP151      0.0012
    133  CZ2      -16.7720   -8.6060    9.5540 C.ar  151  TRP151      0.0191
    134  CZ3      -14.4550   -7.8890    9.3970 C.ar  151  TRP151      0.0001
    135  CH2      -15.6620   -8.3040    8.8000 C.ar  151  TRP151      0.0015
    136  N         -4.3340  -16.2650   16.8900 N.3   185  SER185     -0.1217
    137  CA        -5.1930  -15.2510   17.5000 C.3   185  SER185      0.1889
    138  C         -4.6420  -13.8370   17.2890 C.2   185  SER185      0.2288
    139  O         -5.3930  -12.9250   16.9660 O.2   185  SER185     -0.2866
    140  CB        -5.4280  -15.5460   18.9830 C.3   185  SER185      0.2089
    141  OG        -6.0800  -16.8010   19.1170 O.3   185  SER185     -0.2183
    142  N         -4.9840  -12.7580   13.5230 N.3   188  SER188     -0.1217
    143  CA        -6.4020  -12.4740   13.2860 C.3   188  SER188      0.1889
    144  C         -6.8000  -11.0990   13.7840 C.2   188  SER188      0.2288
    145  O         -7.5520  -10.3740   13.1100 O.2   188  SER188     -0.2866
    146  CB        -7.2850  -13.5310   13.9350 C.3   188  SER188      0.2089
    147  OG        -7.1660  -14.7530   13.2470 O.3   188  SER188     -0.2183
    148  N         -5.2800   -8.5950   11.4940 N.3   191  TRP191     -0.1227
    149  CA        -6.0220   -8.6050   10.2430 C.3   191  TRP191      0.1737
    150  C         -7.1890   -7.6160   10.3140 C.2   191  TRP191      0.2595
    151  O         -7.3280   -6.7570    9.4360 O.2   191  TRP191     -0.2718
    152  CB        -6.4760  -10.0380    9.9030 C.3   191  TRP191      0.0564
    153  CG        -7.0680  -10.2110    8.5490 C.ar  191  TRP191      0.0003
    154  CD1       -7.1970   -9.2610    7.5680 C.ar  191  TRP191      0.0946
    155  CD2       -7.5780  -11.4270    7.9970 C.ar  191  TRP191      0.0152
    156  NE1       -7.7800   -9.8100    6.4510 N.ar  191  TRP191     -0.2442
    157  CE2       -8.0200  -11.1380    6.6840 C.ar  191  TRP191      0.0810
    158  CE3       -7.7070  -12.7380    8.4850 C.ar  191  TRP191      0.0012
    159  CZ2       -8.5840  -12.1120    5.8510 C.ar  191  TRP191      0.0191
    160  CZ3       -8.2640  -13.7120    7.6480 C.ar  191  TRP191      0.0001
    161  CH2       -8.6990  -13.3840    6.3510 C.ar  191  TRP191      0.0015
    162  N         -7.9990   -7.7090   11.3730 N.am  192  ASN192     -0.1974
    163  CA        -9.1080   -6.7730   11.5570 C.3   192  ASN192      0.1688
    164  C         -8.6560   -5.3200   11.7480 C.2   192  ASN192      0.2292
    165  O         -9.2390   -4.4040   11.1630 O.2   192  ASN192     -0.2864
    166  CB        -9.9990   -7.1910   12.7340 C.3   192  ASN192      0.1181
    167  CG       -10.8470   -8.4190   12.4330 C.2   192  ASN192      0.2629
    168  OD1      -10.9800   -8.8500   11.2830 O.2   192  ASN192     -0.2716
    169  ND2      -11.4400   -8.9850   13.4820 N.am  192  ASN192     -0.0877
    170  N         -7.4130   -3.0300    8.7410 N.3   195  ALA195     -0.1245
    171  CA        -8.4230   -2.4890    7.8430 C.3   195  ALA195      0.1562
    172  C         -8.9290   -1.0960    8.2550 C.2   195  ALA195      0.2260
    173  O         -9.5330   -0.3980    7.4370 O.2   195  ALA195     -0.2867
    174  CB        -9.5860   -3.4740    7.7080 C.3   195  ALA195      0.0290
    175  N         -2.0850    0.8880    9.1870 N.3   201  LYS201     -0.1245
    176  CA        -1.3130    0.2010    8.1520 C.3   201  LYS201      0.1561
    177  C          0.1540    0.6190    8.2520 C.2   201  LYS201      0.2260
    178  O          1.0510   -0.2260    8.1720 O.2   201  LYS201     -0.2867
    179  CB        -1.8590    0.4940    6.7430 C.3   201  LYS201      0.0271
    180  CG        -3.2630   -0.0320    6.4530 C.3   201  LYS201      0.0035
    181  CD        -3.8160    0.6250    5.1780 C.3   201  LYS201      0.0206
    182  CE        -5.2100    0.1360    4.8000 C.3   201  LYS201      0.1093
    183  NZ        -6.1590    0.1650    5.9400 N.3   201  LYS201     -0.1314
    184  N         -3.8850  -11.7800    4.8430 N.3   235  GLY235     -0.1225
    185  CA        -4.9190  -10.7660    5.0260 C.3   235  GLY235      0.1811
    186  C         -4.3350   -9.4450    5.4790 C.2   235  GLY235      0.2280
    187  O         -4.7020   -8.3950    4.9620 O.2   235  GLY235     -0.2866
    188  N         -2.4500   -8.0010    2.5150 N.3   238  ARG238     -0.1231
    189  CA        -3.3890   -7.4000    1.5600 C.3   238  ARG238      0.1694
    190  C         -3.8270   -6.0130    2.0240 C.2   238  ARG238      0.2592
    191  O         -3.8760   -5.0620    1.2290 O.2   238  ARG238     -0.2718
    192  CB        -4.6160   -8.2870    1.3500 C.3   238  ARG238      0.0321
    193  CG        -5.5960   -7.7620    0.2890 C.3   238  ARG238      0.0489
    194  CD        -6.7520   -6.9590    0.8940 C.3   238  ARG238      0.2205
    195  NE        -7.6350   -6.4270   -0.1460 N.pl3 238  ARG238     -0.0865
    196  CZ        -7.4300   -5.2900   -0.8050 C.cat 238  ARG238      0.5346
    197  NH1       -6.3680   -4.5360   -0.5360 N.pl3 238  ARG238      0.1354
    198  NH2       -8.2920   -4.8980   -1.7310 N.pl3 238  ARG238      0.1354
    199  N         -4.1610   -5.9110    3.3050 N.am  239  ASN239     -0.1974
    200  CA        -4.6780   -4.6520    3.8420 C.3   239  ASN239      0.1688
    201  C         -3.6320   -3.5410    3.8350 C.2   239  ASN239      0.2292
    202  O         -3.9530   -2.3840    3.5350 O.2   239  ASN239     -0.2864
    203  CB        -5.2630   -4.8650    5.2430 C.3   239  ASN239      0.1181
    204  CG        -6.6400   -5.5300    5.2140 C.2   239  ASN239      0.2629
    205  OD1       -7.2260   -5.7490    4.1440 O.2   239  ASN239     -0.2716
    206  ND2       -7.1630   -5.8510    6.3980 N.am  239  ASN239     -0.0877
    207  N         -1.5010   -1.3110    0.0410 N.3   242  SER242     -0.1217
    208  CA        -1.6730    0.0020   -0.5740 C.3   242  SER242      0.1889
    209  C         -0.5670    0.9740   -0.1400 C.2   242  SER242      0.2288
    210  O         -0.1340    1.8120   -0.9350 O.2   242  SER242     -0.2866
    211  CB        -3.0710    0.5790   -0.2900 C.3   242  SER242      0.2089
    212  OG        -3.2620    0.7780    1.0960 O.3   242  SER242     -0.2183
    213  N         -8.4590  -14.5320   -2.6780 N.3   276  SER276     -0.1202
    214  CA        -9.0020  -13.1700   -2.4960 C.3   276  SER276      0.2020
    215  C         -7.9330  -12.2150   -1.9500 C.2   276  SER276      0.2618
    216  O         -7.7430  -11.0910   -2.4680 O.2   276  SER276     -0.2717
    217  CB       -10.2190  -13.1950   -1.5640 C.3   276  SER276      0.2103
    218  OG       -11.2930  -13.9160   -2.1490 O.3   276  SER276     -0.2182
    219  N         -7.2090  -12.6650   -0.9260 N.am  277  ASN277     -0.1974
    220  CA        -6.1070  -11.8720   -0.3680 C.3   277  ASN277      0.1688
    221  C         -5.0270  -11.5830   -1.3980 C.2   277  ASN277      0.2292
    222  O         -4.5920  -10.4470   -1.5330 O.2   277  ASN277     -0.2864
    223  CB        -5.4880  -12.5460    0.8610 C.3   277  ASN277      0.1181
    224  CG        -6.3830  -12.4670    2.0830 C.2   277  ASN277      0.2629
    225  OD1       -7.3120  -11.6600    2.1350 O.2   277  ASN277     -0.2716
    226  ND2       -6.1130  -13.3150    3.0730 N.am  277  ASN277     -0.0877
    227  N        -14.4540   -9.7820   -5.0020 N.3   315  MET315     -0.1245
    228  CA       -13.0890   -9.3630   -4.6640 C.3   315  MET315      0.1570
    229  C        -12.0440   -9.9320   -5.6240 C.2   315  MET315      0.2261
    230  O        -11.0860   -9.2320   -5.9850 O.2   315  MET315     -0.2867
    231  CB       -12.7190   -9.7380   -3.2220 C.3   315  MET315      0.0387
    232  CG       -13.3570   -8.8580   -2.1560 C.3   315  MET315      0.0595
    233  SD       -12.6450   -9.2020   -0.5350 S.3   315  MET315     -0.1393
    234  CE       -13.5790   -8.0750    0.4960 C.3   315  MET315      0.0692
@<TRIPOS>BOND
     1   230   229    2
     2   229   228    1
     3   227   228    1
     4   228   231    1
     5   231   232    1
     6   213   214    1
     7   214   215    1
     8   214   217    1
     9   216   215    2
    10   232   233    1
    11   218   217    1
    12   215   219   am
    13   198   196    1
    14   222   221    2
    15   221   220    1
    16   210   209    2
    17   219   220    1
    18   196   197    1
    19   196   195    2
    20   208   211    1
    21   208   209    1
    22   208   207    1
    23   233   234    1
    24   220   223    1
    25   211   212    1
    26   195   194    1
    27   193   194    1
    28   193   192    1
    29   223   224    1
    30   191   190    2
    31   192   189    1
    32   189   190    1
    33   189   188    1
    34   190   199   am
    35   224   225    2
    36   224   226   am
    37   199   200    1
    38   202   201    2
    39   201   200    1
    40   200   203    1
    41   205   204    2
    42   182   181    1
    43   182   183    1
    44   184   185    1
    45   187   186    2
    46   185   186    1
    47   181   180    1
    48   204   203    1
    49   204   206   am
    50   159   161   ar
    51   159   157   ar
    52   161   160   ar
    53   156   157   ar
    54   156   154   ar
    55   180   179    1
    56   157   155   ar
    57   179   176    1
    58   173   172    2
    59   154   153   ar
    60   160   158   ar
    61   174   171    1
    62   171   172    1
    63   171   170    1
    64   155   158   ar
    65   155   153   ar
    66   176   177    1
    67   176   175    1
    68   178   177    2
    69   153   152    1
    70   135   134   ar
    71   135   133   ar
    72   134   132   ar
    73   151   150    2
    74   133   131   ar
    75   152   149    1
    76   149   150    1
    77   149   148    1
    78   150   162   am
    79   132   129   ar
    80   131   129   ar
    81   131   130   ar
    82   165   164    2
    83   168   167    2
    84   162   163    1
    85   163   164    1
    86   163   166    1
    87   129   127   ar
    88   130   128   ar
    89   167   166    1
    90   167   169   am
    91   127   128   ar
    92   127   126    1
    93   145   144    2
    94   147   146    1
    95   143   142    1
    96   143   144    1
    97   143   146    1
    98   113   111    1
    99   123   126    1
   100   123   124    1
   101   123   122    1
   102   124   125    2
   103   111   110    2
   104   111   112    1
   105   110   109    1
   106   108   109    1
   107   108   107    1
   108   106   105    2
   109    67    65   ar
   110    67    66   ar
   111    80    79    1
   112   136   137    1
   113    65    63   ar
   114   139   138    2
   115   107   104    1
   116   138   137    1
   117   105   104    1
   118   105   114   am
   119    66    64   ar
   120   137   140    1
   121   104   103    1
   122    69    68    1
   123    69    70    1
   124   117   116    2
   125    71    70    2
   126    63    62   ar
   127    79    78    1
   128    68    59   am
   129   114   115    1
   130   120   119    2
   131   116   115    1
   132   115   118    1
   133    64    62   ar
   134    78    77    1
   135    62    61    1
   136   140   141    1
   137   119   118    1
   138   119   121   am
   139    59    58    1
   140    59    60    2
   141    58    61    1
   142    58    57    1
   143    77    76    1
   144   100    99    2
   145    76    73    1
   146   102   101    1
   147    98    99    1
   148    98    97    1
   149    98   101    1
   150    89    87   am
   151    86    87    1
   152    86    85    1
   153    73    74    1
   154    73    72    1
   155    22    20    1
   156    87    88    2
   157    48    46    1
   158    84    83    2
   159    74    75    2
   160    45    44    2
   161    82    85    1
   162    82    83    1
   163    82    81    1
   164    83    90   am
   165    20    21    1
   166    20    19    2
   167    52    51    2
   168    44    43    1
   169    44    49   am
   170    46    43    1
   171    46    47    1
   172    19    18    1
   173    55    54    2
   174    43    42    1
   175    93    92    2
   176    50    51    1
   177    50    49    1
   178    50    53    1
   179     4     3    2
   180    90    91    1
   181     9     7   ar
   182     9    11   ar
   183     7     6   ar
   184    92    91    1
   185    91    94    1
   186    54    53    1
   187    54    56   am
   188    18    17    1
   189     3     2    1
   190    11    10   ar
   191     6     5    1
   192     6     8   ar
   193     2     5    1
   194     2     1    1
   195    17    16    1
   196    94    96    1
   197    94    95    1
   198    16    13    1
   199    37    36    2
   200    10     8   ar
   201    35    36    1
   202    35    38    1
   203    35    34    1
   204    41    40    1
   205    39    38    1
   206    39    40    1
   207    13    14    1
   208    13    12    1
   209    14    15    2
   210    33    31    1
   211    30    31    2
   212    30    29    1
   213    26    25    2
   214    31    32    1
   215    28    29    1
   216    28    27    1
   217    24    25    1
   218    24    27    1
   219    24    23    1
