@<TRIPOS>MOLECULE
tmp/4yjgB00.pdb
 116 107 0 0 0
SMALL
GASTEIGER

@<TRIPOS>ATOM
      1  N         27.3050   48.9630   13.0430 N.3    49  ALA49      -0.1245
      2  CA        26.5860   47.7020   13.1470 C.3    49  ALA49       0.1562
      3  C         27.4240   46.5520   12.6150 C.2    49  ALA49       0.2260
      4  O         27.4270   45.5000   13.2180 O.2    49  ALA49      -0.2867
      5  CB        25.2370   47.7740   12.4410 C.3    49  ALA49       0.0290
      6  N         27.6410   45.4970    9.0200 N.3    51  LEU51      -0.1245
      7  CA        27.0740   44.7510    7.9050 C.3    51  LEU51       0.1561
      8  C         27.2630   45.4810    6.5890 C.2    51  LEU51       0.2260
      9  O         27.3130   46.7210    6.5510 O.2    51  LEU51      -0.2867
     10  CB        25.5730   44.5020    8.0990 C.3    51  LEU51       0.0270
     11  CG        24.9040   43.6690    6.9880 C.3    51  LEU51       0.0019
     12  CD1       25.1230   42.1660    7.1870 C.3    51  LEU51       0.0001
     13  CD2       23.4280   43.9670    6.9070 C.3    51  LEU51       0.0001
     14  N         25.6010   46.6020    3.4530 N.3    53  GLN53      -0.1245
     15  CA        24.3680   46.8590    2.7350 C.3    53  GLN53       0.1566
     16  C         24.2340   48.3610    2.5060 C.2    53  GLN53       0.2260
     17  O         24.2700   49.1340    3.4600 O.2    53  GLN53      -0.2867
     18  CB        23.1590   46.3450    3.5040 C.3    53  GLN53       0.0367
     19  CG        21.8690   46.3420    2.6920 C.3    53  GLN53       0.0905
     20  CD        20.7270   45.6430    3.4020 C.2    53  GLN53       0.2608
     21  OE1       19.7780   46.2750    3.8330 O.2    53  GLN53      -0.2717
     22  NE2       20.8240   44.3320    3.5390 N.am   53  GLN53      -0.0878
     23  N         23.3330   57.8870   15.5940 N.3   200  GLY200     -0.1210
     24  CA        22.8130   56.5660   15.7560 C.3   200  GLY200      0.1956
     25  C         23.1950   55.9810   17.1070 C.2   200  GLY200      0.2612
     26  O         24.3430   56.0860   17.5540 O.2   200  GLY200     -0.2717
     27  N         22.2270   55.3270   17.7340 N.am  201  GLN201     -0.1965
     28  CA        22.4350   54.6850   19.0270 C.3   201  GLN201      0.1733
     29  C         22.1890   53.1830   18.8910 C.2   201  GLN201      0.2616
     30  O         21.3140   52.7460   18.1440 O.2   201  GLN201     -0.2715
     31  CB        21.4910   55.3130   20.0650 C.3   201  GLN201      0.0408
     32  CG        21.8240   55.0170   21.5070 C.3   201  GLN201      0.0908
     33  CD        21.0230   55.8970   22.4440 C.2   201  GLN201      0.2608
     34  OE1       21.0940   57.1290   22.3840 O.2   201  GLN201     -0.2717
     35  NE2       20.2600   55.2700   23.3160 N.am  201  GLN201     -0.0878
     36  N         23.0020   52.3890   19.5750 N.am  202  ILE202     -0.1977
     37  CA        22.8790   50.9440   19.4790 C.3   202  ILE202      0.1596
     38  C         23.0110   50.3110   20.8430 C.2   202  ILE202      0.2287
     39  O         23.6560   50.8590   21.7420 O.2   202  ILE202     -0.2864
     40  CB        23.9430   50.3040   18.5370 C.3   202  ILE202      0.0276
     41  CG1       25.3550   50.6320   19.0130 C.3   202  ILE202      0.0022
     42  CG2       23.7480   50.7620   17.1040 C.3   202  ILE202      0.0022
     43  CD1       26.4160   49.7480   18.4120 C.3   202  ILE202      0.0001
     44  N         16.5100   43.1780    9.2090 N.3   215  ILE215     -0.1245
     45  CA        16.4350   44.6220    9.0360 C.3   215  ILE215      0.1561
     46  C         15.0300   45.0260    8.5670 C.2   215  ILE215      0.2260
     47  O         14.5850   44.6240    7.5040 O.2   215  ILE215     -0.2867
     48  CB        17.4720   45.1230    8.0270 C.3   215  ILE215      0.0252
     49  CG1       18.8820   44.7380    8.5010 C.3   215  ILE215      0.0019
     50  CG2       17.3870   46.6430    7.8970 C.3   215  ILE215      0.0019
     51  CD1       19.9460   44.9890    7.4590 C.3   215  ILE215      0.0001
     52  N         16.9310   53.3310    8.7360 N.3   224  TYR224     -0.1241
     53  CA        17.4540   52.8670   10.0300 C.3   224  TYR224      0.1605
     54  C         16.7400   53.4640   11.2500 C.2   224  TYR224      0.2264
     55  O         17.1880   53.2990   12.3900 O.2   224  TYR224     -0.2867
     56  CB        18.9900   52.9860   10.0990 C.3   224  TYR224      0.0534
     57  CG        19.6620   52.3230    8.8900 C.ar  224  TYR224     -0.0201
     58  CD1       19.3110   51.0330    8.4890 C.ar  224  TYR224     -0.0009
     59  CD2       20.6160   52.9930    8.1370 C.ar  224  TYR224     -0.0009
     60  CE1       19.8930   50.4370    7.3860 C.ar  224  TYR224      0.0417
     61  CE2       21.2060   52.3970    7.0390 C.ar  224  TYR224      0.0417
     62  CZ        20.8410   51.1200    6.6610 C.ar  224  TYR224      0.1957
     63  OH        21.4330   50.5180    5.5590 O.3   224  TYR224     -0.2866
     64  N         16.3830   46.9900   13.8030 N.3   228  LEU228     -0.1245
     65  CA        17.3150   46.1990   13.0100 C.3   228  LEU228      0.1561
     66  C         18.1860   45.3760   13.9380 C.2   228  LEU228      0.2260
     67  O         18.5840   45.8480   15.0050 O.2   228  LEU228     -0.2867
     68  CB        18.1900   47.0960   12.1430 C.3   228  LEU228      0.0270
     69  CG        19.0990   48.0400   12.9320 C.3   228  LEU228      0.0019
     70  CD1       20.4760   47.4410   13.1580 C.3   228  LEU228      0.0001
     71  CD2       19.2190   49.3600   12.1770 C.3   228  LEU228      0.0001
     72  N         21.6180   42.7750   13.9320 N.3   230  ILE230     -0.1245
     73  CA        22.7830   42.3480   13.1690 C.3   230  ILE230      0.1561
     74  C         23.7460   41.5210   14.0240 C.2   230  ILE230      0.2260
     75  O         24.5000   42.0410   14.8160 O.2   230  ILE230     -0.2867
     76  CB        23.5040   43.5610   12.5560 C.3   230  ILE230      0.0252
     77  CG1       22.5570   44.2720   11.5700 C.3   230  ILE230      0.0019
     78  CG2       24.7200   43.1030   11.7930 C.3   230  ILE230      0.0019
     79  CD1       23.0080   45.6550   11.1600 C.3   230  ILE230      0.0001
     80  N         19.6050   47.9670   16.7320 N.3   239  GLY239     -0.1210
     81  CA        19.4840   49.3650   16.3540 C.3   239  GLY239      0.1956
     82  C         18.0620   49.7620   16.0430 C.2   239  GLY239      0.2612
     83  O         17.1380   48.9770   16.2310 O.2   239  GLY239     -0.2717
     84  N         17.8940   50.9970   15.5830 N.am  240  GLY240     -0.1942
     85  CA        16.5800   51.5140   15.2370 C.3   240  GLY240      0.2014
     86  C         16.3960   53.0270   15.3070 C.2   240  GLY240      0.2640
     87  O         15.2830   53.5030   15.1490 O.2   240  GLY240     -0.2714
     88  N         17.4710   53.7740   15.5370 N.am  241  THR241     -0.1936
     89  CA        17.4430   55.2320   15.4180 C.3   241  THR241      0.2028
     90  C         18.6140   55.7290   14.5730 C.2   241  THR241      0.2642
     91  O         19.7420   55.2470   14.6970 O.2   241  THR241     -0.2714
     92  CB        17.5020   55.9540   16.7890 C.3   241  THR241      0.1808
     93  OG1       18.8010   55.7840   17.3820 O.3   241  THR241     -0.2208
     94  CG2       16.4400   55.4210   17.7090 C.3   241  THR241      0.0379
     95  N         18.3290   56.7180   13.7380 N.am  242  PHE242     -0.1973
     96  CA        19.3280   57.3560   12.9020 C.3   242  PHE242      0.1639
     97  C         18.7370   58.7060   12.5580 C.2   242  PHE242      0.2290
     98  O         17.9300   58.7950   11.6390 O.2   242  PHE242     -0.2864
     99  CB        19.5440   56.5180   11.6380 C.3   242  PHE242      0.0560
    100  CG        20.7240   56.9290   10.8010 C.ar  242  PHE242     -0.0200
    101  CD1       20.6490   56.8620    9.4080 C.ar  242  PHE242     -0.0042
    102  CD2       21.9260   57.3130   11.3800 C.ar  242  PHE242     -0.0042
    103  CE1       21.7400   57.1910    8.6210 C.ar  242  PHE242     -0.0003
    104  CE2       23.0140   57.6560   10.5920 C.ar  242  PHE242     -0.0003
    105  CZ        22.9210   57.6040    9.2150 C.ar  242  PHE242     -0.0000
    106  N         25.7480   56.4510    6.6420 N.3   313  GLY313     -0.1225
    107  CA        25.6140   55.1670    7.3260 C.3   313  GLY313      0.1811
    108  C         26.0630   53.9560    6.5010 C.2   313  GLY313      0.2280
    109  O         25.5350   52.8660    6.6960 O.2   313  GLY313     -0.2866
    110  N         30.4860   49.6980    4.0630 N.3   317  THR317     -0.1218
    111  CA        29.9590   49.1600    2.8230 C.3   317  THR317      0.1862
    112  C         30.7210   49.6450    1.5780 C.2   317  THR317      0.2287
    113  O         30.9210   48.8860    0.6420 O.2   317  THR317     -0.2866
    114  CB        28.4720   49.5310    2.6900 C.3   317  THR317      0.1770
    115  OG1       27.7430   48.9280    3.7700 O.3   317  THR317     -0.2211
    116  CG2       27.9040   49.0340    1.3650 C.3   317  THR317      0.0375
@<TRIPOS>BOND
     1   113   112    2
     2   116   114    1
     3   112   111    1
     4    16    15    1
     5    16    17    2
     6   114   111    1
     7   114   115    1
     8    19    20    1
     9    19    18    1
    10    15    14    1
    11    15    18    1
    12   111   110    1
    13    20    22   am
    14    20    21    2
    15    63    62    1
    16   108   109    2
    17   108   107    1
    18     9     8    2
    19     8     7    1
    20   106   107    1
    21    62    61   ar
    22    62    60   ar
    23    13    11    1
    24    11    12    1
    25    11    10    1
    26    61    59   ar
    27    60    58   ar
    28    51    49    1
    29    47    46    2
    30    50    48    1
    31     7    10    1
    32     7     6    1
    33    48    49    1
    34    48    45    1
    35    59    57   ar
    36    58    57   ar
    37    46    45    1
    38   103   105   ar
    39   103   101   ar
    40    52    53    1
    41    57    56    1
    42    45    44    1
    43   105   104   ar
    44   101   100   ar
    45    53    56    1
    46    53    54    1
    47   104   102   ar
    48   100   102   ar
    49   100    99    1
    50    79    77    1
    51    54    55    2
    52    77    76    1
    53    99    96    1
    54    98    97    2
    55    78    76    1
    56    68    69    1
    57    68    65    1
    58    71    69    1
    59     5     2    1
    60    76    73    1
    61    97    96    1
    62     3     2    1
    63     3     4    2
    64    96    95    1
    65    69    70    1
    66    65    64    1
    67    65    66    1
    68     1     2    1
    69    73    72    1
    70    73    74    1
    71    95    90   am
    72    66    67    2
    73    74    75    2
    74    90    91    2
    75    90    89    1
    76    87    86    2
    77    85    86    1
    78    85    84    1
    79    86    88   am
    80    89    88    1
    81    89    92    1
    82    84    82   am
    83    23    24    1
    84    24    25    1
    85    82    83    2
    86    82    81    1
    87    81    80    1
    88    92    93    1
    89    92    94    1
    90    42    40    1
    91    25    26    2
    92    25    27   am
    93    27    28    1
    94    30    29    2
    95    43    41    1
    96    40    41    1
    97    40    37    1
    98    29    28    1
    99    29    36   am
   100    28    31    1
   101    37    36    1
   102    37    38    1
   103    31    32    1
   104    38    39    2
   105    32    33    1
   106    34    33    2
   107    33    35   am
