@<TRIPOS>MOLECULE
tmp/4yjhA00.pdb
 107 97 0 0 0
SMALL
GASTEIGER

@<TRIPOS>ATOM
      1  N        -24.7450  -16.5490   16.5630 N.3    49  ALA49      -0.1245
      2  CA       -25.1440  -17.8130   15.9640 C.3    49  ALA49       0.1562
      3  C        -24.0720  -18.9000   16.1130 C.2    49  ALA49       0.2260
      4  O        -24.4040  -20.0740   16.2330 O.2    49  ALA49      -0.2867
      5  CB       -25.4710  -17.5860   14.4930 C.3    49  ALA49       0.0290
      6  N        -20.9200  -19.3690   13.9950 N.3    51  LEU51      -0.1245
      7  CA       -20.4090  -20.0000   12.7760 C.3    51  LEU51       0.1561
      8  C        -19.3070  -19.2100   12.0940 C.2    51  LEU51       0.2260
      9  O        -19.3770  -17.9770   12.0070 O.2    51  LEU51      -0.2867
     10  CB       -21.5410  -20.1680   11.7620 C.3    51  LEU51       0.0270
     11  CG       -21.1190  -20.7380   10.3950 C.3    51  LEU51       0.0019
     12  CD1      -20.9150  -22.2510   10.4550 C.3    51  LEU51       0.0001
     13  CD2      -22.1240  -20.3870    9.3230 C.3    51  LEU51       0.0001
     14  N        -17.9030  -17.7790    9.0670 N.3    53  GLN53      -0.1245
     15  CA       -18.1950  -17.3670    7.7130 C.3    53  GLN53       0.1566
     16  C        -18.1720  -15.8470    7.6250 C.2    53  GLN53       0.2260
     17  O        -18.9570  -15.1700    8.2930 O.2    53  GLN53      -0.2867
     18  CB       -19.5730  -17.8740    7.2640 C.3    53  GLN53       0.0367
     19  CG       -19.8090  -17.6800    5.7720 C.3    53  GLN53       0.0905
     20  CD       -21.0830  -18.3160    5.2860 C.2    53  GLN53       0.2608
     21  OE1      -22.0300  -17.6200    4.9300 O.2    53  GLN53      -0.2717
     22  NE2      -21.1150  -19.6370    5.2660 N.am   53  GLN53      -0.0878
     23  N        -29.4600   -7.6950   15.7450 N.3   200  GLY200     -0.1225
     24  CA       -29.9030   -8.9940   15.2660 C.3   200  GLY200      0.1811
     25  C        -30.6760   -9.7230   16.3470 C.2   200  GLY200      0.2280
     26  O        -30.2590   -9.7490   17.5070 O.2   200  GLY200     -0.2866
     27  N        -32.5660  -13.4630   17.4560 N.3   202  ILE202     -0.1245
     28  CA       -32.4560  -14.8900   17.1830 C.3   202  ILE202      0.1561
     29  C        -33.3870  -15.7030   18.0590 C.2   202  ILE202      0.2260
     30  O        -33.7290  -15.2970   19.1760 O.2   202  ILE202     -0.2867
     31  CB       -31.0200  -15.4250   17.4340 C.3   202  ILE202      0.0252
     32  CG1      -30.6340  -15.3000   18.9130 C.3   202  ILE202      0.0019
     33  CG2      -30.0160  -14.7000   16.5500 C.3   202  ILE202      0.0019
     34  CD1      -29.6520  -16.3530   19.3590 C.3   202  ILE202      0.0001
     35  N        -27.9880  -21.1050    5.1700 N.3   215  ILE215     -0.1245
     36  CA       -28.0400  -19.6600    5.1260 C.3   215  ILE215      0.1561
     37  C        -28.5660  -19.1930    3.7790 C.2   215  ILE215      0.2260
     38  O        -28.0140  -19.5230    2.7220 O.2   215  ILE215     -0.2867
     39  CB       -26.6430  -19.0540    5.3670 C.3   215  ILE215      0.0252
     40  CG1      -26.1160  -19.4620    6.7400 C.3   215  ILE215      0.0019
     41  CG2      -26.6920  -17.5320    5.2950 C.3   215  ILE215      0.0019
     42  CD1      -24.6160  -19.3000    6.8720 C.3   215  ILE215      0.0001
     43  N        -27.6740  -11.0470    6.1920 N.3   224  TYR224     -0.1241
     44  CA       -28.3910  -11.6380    7.3290 C.3   224  TYR224      0.1605
     45  C        -29.7880  -11.0900    7.5890 C.2   224  TYR224      0.2264
     46  O        -30.3360  -11.2370    8.6920 O.2   224  TYR224     -0.2867
     47  CB       -27.5110  -11.6480    8.5870 C.3   224  TYR224      0.0534
     48  CG       -26.1550  -12.2950    8.3270 C.ar  224  TYR224     -0.0201
     49  CD1      -26.0650  -13.5230    7.6790 C.ar  224  TYR224     -0.0009
     50  CD2      -24.9710  -11.6680    8.6980 C.ar  224  TYR224     -0.0009
     51  CE1      -24.8400  -14.1100    7.4140 C.ar  224  TYR224      0.0417
     52  CE2      -23.7390  -12.2500    8.4380 C.ar  224  TYR224      0.0417
     53  CZ       -23.6790  -13.4690    7.7960 C.ar  224  TYR224      0.1957
     54  OH       -22.4630  -14.0570    7.5370 O.3   224  TYR224     -0.2866
     55  N        -31.8380  -17.8450    8.2300 N.3   228  LEU228     -0.1245
     56  CA       -30.6170  -18.6270    8.4070 C.3   228  LEU228      0.1561
     57  C        -30.7710  -19.5880    9.5540 C.2   228  LEU228      0.2260
     58  O        -31.4560  -19.3000   10.5240 O.2   228  LEU228     -0.2867
     59  CB       -29.4180  -17.7170    8.6400 C.3   228  LEU228      0.0270
     60  CG       -29.5360  -16.7980    9.8440 C.3   228  LEU228      0.0019
     61  CD1      -28.8480  -17.4000   11.0550 C.3   228  LEU228      0.0001
     62  CD2      -28.9390  -15.4500    9.5230 C.3   228  LEU228      0.0001
     63  N        -28.5560  -22.3350   11.9780 N.3   230  ILE230     -0.1245
     64  CA       -27.2240  -22.7540   12.3750 C.3   230  ILE230      0.1561
     65  C        -27.2470  -23.6760   13.5710 C.2   230  ILE230      0.2260
     66  O        -27.5160  -23.2500   14.6990 O.2   230  ILE230     -0.2867
     67  CB       -26.3160  -21.5480   12.6070 C.3   230  ILE230      0.0252
     68  CG1      -26.1350  -20.8090   11.2760 C.3   230  ILE230      0.0019
     69  CG2      -24.9530  -21.9970   13.1120 C.3   230  ILE230      0.0019
     70  CD1      -25.7480  -19.3660   11.4260 C.3   230  ILE230      0.0001
     71  N        -32.3160  -17.4070   12.6350 N.3   239  GLY239     -0.1209
     72  CA       -32.2380  -15.9650   12.4380 C.3   239  GLY239      0.1959
     73  C        -32.8100  -15.4910   11.1210 C.2   239  GLY239      0.2652
     74  O        -33.3350  -16.2830   10.3500 O.2   239  GLY239     -0.2714
     75  N        -32.7080  -14.1810   10.8810 N.am  240  GLY240     -0.1718
     76  CA       -33.1990  -13.5550    9.6550 C.2   240  GLY240      0.1480
     77  C        -33.3960  -12.0460    9.7130 C.2   240  GLY240      0.2821
     78  O        -34.0700  -11.4720    8.8500 O.2   240  GLY240     -0.2669
     79  N        -32.8520  -11.4050   10.7410 N.am  241  THR241     -0.1902
     80  CA       -32.8720   -9.9390   10.8230 C.3   241  THR241      0.2031
     81  C        -31.5130   -9.4290   11.2670 C.2   241  THR241      0.2642
     82  O        -30.8590  -10.0360   12.1180 O.2   241  THR241     -0.2714
     83  CB       -33.9320   -9.3790   11.8110 C.3   241  THR241      0.1808
     84  OG1      -33.4550   -9.4890   13.1660 O.3   241  THR241     -0.2208
     85  CG2      -35.2600  -10.0890   11.6570 C.3   241  THR241      0.0379
     86  N        -31.1030   -8.3130   10.6750 N.am  242  PHE242     -0.1973
     87  CA       -29.8400   -7.6750   11.0120 C.3   242  PHE242      0.1639
     88  C        -29.9230   -6.2290   10.5730 C.2   242  PHE242      0.2290
     89  O        -29.4340   -5.8640    9.5050 O.2   242  PHE242     -0.2864
     90  CB       -28.6890   -8.3670   10.3010 C.3   242  PHE242      0.0560
     91  CG       -27.3440   -8.0200   10.8590 C.ar  242  PHE242     -0.0200
     92  CD1      -26.2470   -7.9310   10.0240 C.ar  242  PHE242     -0.0042
     93  CD2      -27.1650   -7.8000   12.2160 C.ar  242  PHE242     -0.0042
     94  CE1      -24.9890   -7.6410   10.5200 C.ar  242  PHE242     -0.0003
     95  CE2      -25.9100   -7.5080   12.7200 C.ar  242  PHE242     -0.0003
     96  CZ       -24.8210   -7.4280   11.8700 C.ar  242  PHE242     -0.0000
     97  N        -20.8020   -8.3790   12.0640 N.3   313  GLY313     -0.1225
     98  CA       -21.4130   -9.6760   12.2130 C.3   313  GLY313      0.1811
     99  C        -20.4450  -10.8180   12.0030 C.2   313  GLY313      0.2280
    100  O        -20.8490  -11.9110   11.6000 O.2   313  GLY313     -0.2866
    101  N        -15.5070  -15.0690   13.7050 N.3   317  THR317     -0.1218
    102  CA       -14.8410  -15.4850   12.4790 C.3   317  THR317      0.1862
    103  C        -13.4430  -14.9000   12.3280 C.2   317  THR317      0.2287
    104  O        -12.5550  -15.5240   11.7600 O.2   317  THR317     -0.2866
    105  CB       -15.7030  -15.0270   11.2760 C.3   317  THR317      0.1770
    106  OG1      -16.9680  -15.7020   11.3200 O.3   317  THR317     -0.2211
    107  CG2      -15.0180  -15.3030    9.9460 C.3   317  THR317      0.0375
@<TRIPOS>BOND
     1    38    37    2
     2    37    36    1
     3    21    20    2
     4    36    35    1
     5    36    39    1
     6    22    20   am
     7    20    19    1
     8    41    39    1
     9    39    40    1
    10    19    18    1
    11    43    44    1
    12    40    42    1
    13    18    15    1
    14    44    45    1
    15    44    47    1
    16    51    49   ar
    17    51    53   ar
    18    54    53    1
    19    45    46    2
    20    16    15    1
    21    16    17    2
    22    49    48   ar
    23    15    14    1
    24    53    52   ar
    25    55    56    1
    26    48    47    1
    27    48    50   ar
    28    56    59    1
    29    56    57    1
    30    52    50   ar
    31    59    60    1
    32    78    77    2
    33    13    11    1
    34    89    88    2
    35    62    60    1
    36    57    58    2
    37    76    77    1
    38    76    75    2
    39    77    79   am
    40    60    61    1
    41   107   105    1
    42    92    94   ar
    43    92    91   ar
    44    90    91    1
    45    90    87    1
    46    74    73    2
    47    11    12    1
    48    11    10    1
    49    94    96   ar
    50    88    87    1
    51    86    87    1
    52    86    81   am
    53    79    80    1
    54    80    81    1
    55    80    83    1
    56    91    93   ar
    57    75    73    1
    58    73    72    1
    59    81    82    2
    60   105   106    1
    61   105   102    1
    62    68    70    1
    63    68    67    1
    64   100    99    2
    65    85    83    1
    66   104   103    2
    67    10     7    1
    68    83    84    1
    69    96    95   ar
    70    63    64    1
    71    99    98    1
    72     9     8    2
    73    97    98    1
    74     8     7    1
    75    93    95   ar
    76   103   102    1
    77    64    67    1
    78    64    65    1
    79    72    71    1
    80   102   101    1
    81    67    69    1
    82     7     6    1
    83    65    66    2
    84     5     2    1
    85    24    23    1
    86    24    25    1
    87     2     3    1
    88     2     1    1
    89     3     4    2
    90    25    26    2
    91    33    31    1
    92    28    31    1
    93    28    27    1
    94    28    29    1
    95    31    32    1
    96    29    30    2
    97    32    34    1
