@<TRIPOS>MOLECULE
tmp/4yjiA01.pdb
 137 130 0 0 0
SMALL
GASTEIGER

@<TRIPOS>ATOM
      1  N         36.4170    5.3850    7.2180 N.3    81  LEU81      -0.1231
      2  CA        36.3530    6.7410    6.6940 C.3    81  LEU81       0.1693
      3  C         35.1640    7.4430    7.3330 C.2    81  LEU81       0.2592
      4  O         34.0110    7.1130    7.0420 O.2    81  LEU81      -0.2718
      5  CB        36.2370    6.7460    5.1610 C.3    81  LEU81       0.0284
      6  CG        36.0850    8.1300    4.5270 C.3    81  LEU81       0.0019
      7  CD1       37.2370    9.0350    4.9370 C.3    81  LEU81       0.0001
      8  CD2       35.9950    8.0310    3.0020 C.3    81  LEU81       0.0001
      9  N         35.4610    8.4100    8.2030 N.am   82  PHE82      -0.1976
     10  CA        34.4670    9.0160    9.0920 C.3    82  PHE82       0.1639
     11  C         33.6930    7.9300    9.8440 C.2    82  PHE82       0.2290
     12  O         32.5060    8.0760   10.1210 O.2    82  PHE82      -0.2864
     13  CB        33.5110    9.9250    8.3200 C.3    82  PHE82       0.0560
     14  CG        34.1880   11.1240    7.7010 C.ar   82  PHE82      -0.0200
     15  CD1       34.5960   12.1890    8.4910 C.ar   82  PHE82      -0.0042
     16  CD2       34.4280   11.1720    6.3370 C.ar   82  PHE82      -0.0042
     17  CE1       35.2270   13.2940    7.9270 C.ar   82  PHE82      -0.0003
     18  CE2       35.0630   12.2720    5.7640 C.ar   82  PHE82      -0.0003
     19  CZ        35.4600   13.3330    6.5630 C.ar   82  PHE82      -0.0000
     20  N         40.9050   10.8350    3.7410 N.3   131  TYR131     -0.1227
     21  CA        39.6920   11.6250    3.4950 C.3   131  TYR131      0.1736
     22  C         38.8720   11.1540    2.2920 C.2   131  TYR131      0.2596
     23  O         38.0500   11.9060    1.7630 O.2   131  TYR131     -0.2718
     24  CB        40.0410   13.1090    3.3200 C.3   131  TYR131      0.0548
     25  CG        40.1420   13.8650    4.6240 C.ar  131  TYR131     -0.0200
     26  CD1       39.0200   14.0490    5.4260 C.ar  131  TYR131     -0.0009
     27  CD2       41.3520   14.4090    5.0580 C.ar  131  TYR131     -0.0009
     28  CE1       39.0940   14.7500    6.6250 C.ar  131  TYR131      0.0417
     29  CE2       41.4350   15.1120    6.2660 C.ar  131  TYR131      0.0417
     30  CZ        40.2990   15.2750    7.0400 C.ar  131  TYR131      0.1957
     31  OH        40.3440   15.9600    8.2380 O.3   131  TYR131     -0.2866
     32  N         39.0890    9.9090    1.8720 N.am  132  GLY132     -0.1957
     33  CA        38.3920    9.3390    0.7310 C.3   132  GLY132      0.1869
     34  C         38.7400   10.0000   -0.5980 C.2   132  GLY132      0.2309
     35  O         38.0470    9.8020   -1.5990 O.2   132  GLY132     -0.2863
     36  N         40.3470    9.9750   -3.3920 N.3   134  ARG134     -0.1245
     37  CA        40.8250    9.3710   -4.6420 C.3   134  ARG134      0.1563
     38  C         40.1070    8.0500   -4.9050 C.2   134  ARG134      0.2260
     39  O         39.5350    7.4520   -3.9800 O.2   134  ARG134     -0.2867
     40  CB        42.3430    9.1390   -4.6180 C.3   134  ARG134      0.0307
     41  CG        42.8380    8.3110   -3.4470 C.3   134  ARG134      0.0489
     42  CD        44.3680    8.2620   -3.4170 C.3   134  ARG134      0.2205
     43  NE        44.9350    9.5870   -3.1800 N.pl3 134  ARG134     -0.0865
     44  CZ        46.1450    9.9760   -3.5760 C.cat 134  ARG134      0.5346
     45  NH1       46.9350    9.1390   -4.2490 N.pl3 134  ARG134      0.1354
     46  NH2       46.5560   11.2150   -3.3060 N.pl3 134  ARG134      0.1354
     47  N         37.1870    4.7070   -2.7810 N.3   158  SER158     -0.1217
     48  CA        37.8670    4.6410   -1.4950 C.3   158  SER158      0.1889
     49  C         37.5060    3.4340   -0.6100 C.2   158  SER158      0.2288
     50  O         38.1760    3.1950    0.3900 O.2   158  SER158     -0.2866
     51  CB        37.6170    5.9390   -0.7170 C.3   158  SER158      0.2089
     52  OG        36.2460    6.2370   -0.6080 O.3   158  SER158     -0.2183
     53  N         31.2040    3.6810    1.6660 N.3   177  THR177     -0.1203
     54  CA        30.6110    5.0130    1.6210 C.3   177  THR177      0.1994
     55  C         30.9740    5.5770    0.2620 C.2   177  THR177      0.2618
     56  O         31.8780    5.0580   -0.3870 O.2   177  THR177     -0.2717
     57  CB        31.1070    5.9220    2.7470 C.3   177  THR177      0.1784
     58  OG1       32.4920    6.2300    2.5420 O.3   177  THR177     -0.2211
     59  CG2       30.9220    5.2390    4.1130 C.3   177  THR177      0.0376
     60  N         30.2600    6.5980   -0.1940 N.am  178  ASP178     -0.1959
     61  CA        30.3360    6.9700   -1.6050 C.3   178  ASP178      0.1840
     62  C         30.0800    8.4730   -1.7420 C.2   178  ASP178      0.2623
     63  O         28.9760    8.9510   -1.4760 O.2   178  ASP178     -0.2715
     64  CB        29.3190    6.1110   -2.3920 C.3   178  ASP178      0.1450
     65  CG        29.4560    6.2080   -3.9220 C.2   178  ASP178      0.3671
     66  OD1       29.4970    7.3290   -4.4640 O.co2 178  ASP178     -0.2456
     67  OD2       29.4720    5.1440   -4.5940 O.co2 178  ASP178     -0.2456
     68  N         31.1130    9.2180   -2.1440 N.am  179  GLY179     -0.1940
     69  CA        30.9930   10.6540   -2.3360 C.3   179  GLY179      0.2014
     70  C         31.3290   11.0350   -3.7730 C.2   179  GLY179      0.2639
     71  O         30.9480   12.1110   -4.2460 O.2   179  GLY179     -0.2714
     72  N         32.0330   10.1390   -4.4590 N.am  180  GLY180     -0.1954
     73  CA        32.3860   10.3140   -5.8630 C.3   180  GLY180      0.1869
     74  C         32.3830    8.9790   -6.5870 C.2   180  GLY180      0.2309
     75  O         32.8070    8.8840   -7.7430 O.2   180  GLY180     -0.2863
     76  N         32.6960    5.7530   -4.3890 N.3   182  ALA182     -0.1245
     77  CA        33.5100    4.8030   -3.6300 C.3   182  ALA182      0.1562
     78  C         32.8580    3.4490   -3.2950 C.2   182  ALA182      0.2260
     79  O         33.5550    2.5390   -2.8760 O.2   182  ALA182     -0.2867
     80  CB        33.9900    5.4470   -2.3660 C.3   182  ALA182      0.0290
     81  N         33.3010    2.1470   -7.5230 N.3   185  ILE185     -0.1245
     82  CA        34.6570    2.1030   -8.1100 C.3   185  ILE185      0.1561
     83  C         35.4100    0.8180   -7.7460 C.2   185  ILE185      0.2260
     84  O         35.8350    0.0810   -8.6450 O.2   185  ILE185     -0.2867
     85  CB        35.5050    3.3420   -7.6920 C.3   185  ILE185      0.0252
     86  CG1       34.8940    4.6480   -8.2330 C.3   185  ILE185      0.0019
     87  CG2       36.9720    3.1880   -8.1460 C.3   185  ILE185      0.0019
     88  CD1       35.2840    5.8650   -7.3940 C.3   185  ILE185      0.0001
     89  N         22.0890    9.1300    6.2100 N.3   204  PHE204     -0.1241
     90  CA        23.4780    9.5520    6.3110 C.3   204  PHE204      0.1605
     91  C         23.5530   10.6970    7.3060 C.2   204  PHE204      0.2264
     92  O         22.8760   11.7060    7.1240 O.2   204  PHE204     -0.2867
     93  CB        24.0240    9.9810    4.9480 C.3   204  PHE204      0.0534
     94  CG        25.5230   10.0300    4.8950 C.ar  204  PHE204     -0.0203
     95  CD1       26.2190   11.0850    5.4640 C.ar  204  PHE204     -0.0042
     96  CD2       26.2380    9.0130    4.2840 C.ar  204  PHE204     -0.0042
     97  CE1       27.6070   11.1180    5.4310 C.ar  204  PHE204     -0.0003
     98  CE2       27.6240    9.0460    4.2440 C.ar  204  PHE204     -0.0003
     99  CZ        28.3040   10.0950    4.8220 C.ar  204  PHE204     -0.0000
    100  N         26.3000   12.1620   -0.4260 N.3   217  LEU217     -0.1245
    101  CA        27.0820   11.0980    0.1950 C.3   217  LEU217      0.1561
    102  C         26.1670    9.9250    0.4970 C.2   217  LEU217      0.2260
    103  O         25.0490   10.1150    0.9830 O.2   217  LEU217     -0.2867
    104  CB        27.7460   11.5840    1.4940 C.3   217  LEU217      0.0270
    105  CG        28.4790   12.9210    1.3830 C.3   217  LEU217      0.0019
    106  CD1       29.0450   13.3530    2.7570 C.3   217  LEU217      0.0001
    107  CD2       29.5880   12.8150    0.3560 C.3   217  LEU217      0.0001
    108  N         33.8490   18.8120   -8.5500 N.3   317  TRP317     -0.1241
    109  CA        33.7050   17.7650   -7.5300 C.3   317  TRP317      0.1605
    110  C         34.7600   17.9080   -6.4320 C.2   317  TRP317      0.2264
    111  O         34.4450   17.8430   -5.2420 O.2   317  TRP317     -0.2867
    112  CB        33.7900   16.3740   -8.1570 C.3   317  TRP317      0.0550
    113  CG        33.5740   15.2520   -7.1570 C.ar  317  TRP317      0.0003
    114  CD1       32.3800   14.6770   -6.8130 C.ar  317  TRP317      0.0946
    115  CD2       34.5720   14.5990   -6.3640 C.ar  317  TRP317      0.0152
    116  NE1       32.5790   13.6980   -5.8620 N.ar  317  TRP317     -0.2442
    117  CE2       33.9160   13.6370   -5.5680 C.ar  317  TRP317      0.0810
    118  CE3       35.9600   14.7420   -6.2410 C.ar  317  TRP317      0.0012
    119  CZ2       34.6050   12.8070   -4.6750 C.ar  317  TRP317      0.0191
    120  CZ3       36.6370   13.9300   -5.3550 C.ar  317  TRP317      0.0001
    121  CH2       35.9600   12.9730   -4.5770 C.ar  317  TRP317      0.0015
    122  N         33.9550   18.5240   -2.3950 N.3   321  ILE321     -0.1245
    123  CA        34.4220   17.6120   -1.3510 C.3   321  ILE321      0.1561
    124  C         35.4360   18.2890   -0.4190 C.2   321  ILE321      0.2260
    125  O         35.4900   18.0000    0.7780 O.2   321  ILE321     -0.2867
    126  CB        35.0580   16.3400   -1.9790 C.3   321  ILE321      0.0252
    127  CG1       33.9730   15.4670   -2.5990 C.3   321  ILE321      0.0019
    128  CG2       35.8170   15.5190   -0.9390 C.3   321  ILE321      0.0019
    129  CD1       33.2040   14.6550   -1.5690 C.3   321  ILE321      0.0001
    130  N         40.2420   11.4390   -9.3500 N.3   423  ILE423     -0.1245
    131  CA        38.8180   11.1500   -9.5210 C.3   423  ILE423      0.1561
    132  C         38.3090   11.2960  -10.9660 C.2   423  ILE423      0.2260
    133  O         37.2050   10.8700  -11.2770 O.2   423  ILE423     -0.2867
    134  CB        37.9710   12.0750   -8.5890 C.3   423  ILE423      0.0252
    135  CG1       36.5790   11.4800   -8.3230 C.3   423  ILE423      0.0019
    136  CG2       37.8770   13.4920   -9.1700 C.3   423  ILE423      0.0019
    137  CD1       36.6000   10.2370   -7.4280 C.3   423  ILE423      0.0001
@<TRIPOS>BOND
     1   133   132    2
     2   132   131    1
     3   131   130    1
     4   131   134    1
     5   136   134    1
     6    84    83    2
     7   134   135    1
     8   108   109    1
     9   135   137    1
    10    86    85    1
    11    86    88    1
    12   112   109    1
    13   112   113    1
    14    87    85    1
    15    82    83    1
    16    82    85    1
    17    82    81    1
    18    75    74    2
    19   109   110    1
    20   113   114   ar
    21   113   115   ar
    22   114   116   ar
    23    74    73    1
    24   110   111    2
    25   115   118   ar
    26   115   117   ar
    27   118   120   ar
    28    73    72    1
    29   116   117   ar
    30   117   119   ar
    31   120   121   ar
    32    38    37    1
    33    38    39    2
    34   119   121   ar
    35    37    40    1
    36    37    36    1
    37    40    41    1
    38    67    65   ar
    39    66    65   ar
    40    72    70   am
    41    76    77    1
    42    45    44    1
    43    71    70    2
    44    65    64    1
    45    70    69    1
    46    77    78    1
    47    77    80    1
    48    44    46    1
    49    44    43    2
    50    41    42    1
    51    42    43    1
    52    78    79    2
    53    47    48    1
    54   127   126    1
    55   127   129    1
    56   122   123    1
    57    64    61    1
    58    69    68    1
    59    68    62   am
    60   126   123    1
    61   126   128    1
    62    62    61    1
    63    62    63    2
    64    61    60    1
    65    35    34    2
    66    48    51    1
    67    48    49    1
    68   123   124    1
    69    51    52    1
    70    49    50    2
    71    34    33    1
    72   100   101    1
    73   124   125    2
    74    56    55    2
    75    60    55   am
    76   101   102    1
    77   101   104    1
    78    55    54    1
    79   107   105    1
    80   102   103    2
    81    33    32    1
    82   105   104    1
    83   105   106    1
    84    54    53    1
    85    54    57    1
    86    23    22    2
    87    32    22   am
    88    22    21    1
    89    58    57    1
    90    57    59    1
    91     8     6    1
    92    24    21    1
    93    24    25    1
    94    21    20    1
    95    98    96   ar
    96    98    99   ar
    97    96    94   ar
    98     6     7    1
    99     6     5    1
   100    25    27   ar
   101    25    26   ar
   102    99    97   ar
   103    94    93    1
   104    94    95   ar
   105    93    90    1
   106    27    29   ar
   107     5     2    1
   108    26    28   ar
   109    97    95   ar
   110    18    16   ar
   111    18    19   ar
   112    89    90    1
   113    29    30   ar
   114    90    91    1
   115    16    14   ar
   116    19    17   ar
   117    28    30   ar
   118     2     1    1
   119     2     3    1
   120    30    31    1
   121     4     3    2
   122    92    91    2
   123     3     9   am
   124    14    13    1
   125    14    15   ar
   126    17    15   ar
   127     9    10    1
   128    13    10    1
   129    10    11    1
   130    11    12    2
