@<TRIPOS>MOLECULE
tmp/4yjkA00.pdb
 104 99 0 0 0
SMALL
GASTEIGER

@<TRIPOS>ATOM
      1  N         40.3310   55.5320   27.4490 N.3    91  THR91      -0.1203
      2  CA        40.3020   57.0030   27.5630 C.3    91  THR91       0.1994
      3  C         39.3810   57.2910   28.7270 C.2    91  THR91       0.2619
      4  O         38.6050   56.4330   29.1000 O.2    91  THR91      -0.2717
      5  CB        39.7310   57.6780   26.3370 C.3    91  THR91       0.1784
      6  OG1       38.3520   57.3060   26.1830 O.3    91  THR91      -0.2211
      7  CG2       40.5740   57.3310   25.1100 C.3    91  THR91       0.0376
      8  N         39.4380   58.4960   29.2870 N.am   92  THR92      -0.1938
      9  CA        38.8120   58.7240   30.5830 C.3    92  THR92       0.2028
     10  C         38.6360   60.2500   30.7420 C.2    92  THR92       0.2642
     11  O         39.3420   61.0050   30.0870 O.2    92  THR92      -0.2714
     12  CB        39.6030   58.1260   31.7710 C.3    92  THR92       0.1808
     13  OG1       38.7670   58.1530   32.9390 O.3    92  THR92      -0.2208
     14  CG2       40.8750   58.8950   32.0550 C.3    92  THR92       0.0379
     15  N         37.6320   60.6060   31.5260 N.am   93  GLY93      -0.1954
     16  CA        37.3790   61.9830   31.9510 C.3    93  GLY93       0.1869
     17  C         37.8700   62.1390   33.3890 C.2    93  GLY93       0.2309
     18  O         37.3410   61.4760   34.3420 O.2    93  GLY93      -0.2863
     19  N         27.3230   57.1810   30.2550 N.3   159  PHE159     -0.1241
     20  CA        28.2390   58.2720   29.9440 C.3   159  PHE159      0.1605
     21  C         27.5870   59.5700   30.3340 C.2   159  PHE159      0.2264
     22  O         28.3050   60.4930   30.6270 O.2   159  PHE159     -0.2867
     23  CB        28.4700   58.3290   28.4060 C.3   159  PHE159      0.0534
     24  CG        29.4860   59.3840   27.9550 C.ar  159  PHE159     -0.0203
     25  CD1       30.8680   59.1260   27.9720 C.ar  159  PHE159     -0.0042
     26  CD2       29.0570   60.6000   27.4720 C.ar  159  PHE159     -0.0042
     27  CE1       31.7940   60.0890   27.5640 C.ar  159  PHE159     -0.0003
     28  CE2       29.9880   61.5800   27.0740 C.ar  159  PHE159     -0.0003
     29  CZ        31.3370   61.3190   27.1250 C.ar  159  PHE159     -0.0000
     30  N         27.6100   59.9150   34.9140 N.3   163  GLN163     -0.1245
     31  CA        28.7700   60.7750   35.0160 C.3   163  GLN163      0.1566
     32  C         28.2850   62.2140   35.1730 C.2   163  GLN163      0.2260
     33  O         29.0840   63.1700   34.9890 O.2   163  GLN163     -0.2867
     34  CB        29.6570   60.6140   33.7840 C.3   163  GLN163      0.0367
     35  CG        30.0780   59.1520   33.5810 C.3   163  GLN163      0.0905
     36  CD        31.1120   58.9480   32.4860 C.2   163  GLN163      0.2608
     37  OE1       31.9680   59.8180   32.2200 O.2   163  GLN163     -0.2717
     38  NE2       31.1270   57.7170   31.9060 N.am  163  GLN163     -0.0878
     39  N         26.4720   64.3280   33.6870 N.3   165  ARG165     -0.1245
     40  CA        26.3760   65.2580   32.5560 C.3   165  ARG165      0.1563
     41  C         24.9520   65.7950   32.4140 C.2   165  ARG165      0.2260
     42  O         24.0130   65.0570   32.4470 O.2   165  ARG165     -0.2867
     43  CB        26.8360   64.6200   31.2740 C.3   165  ARG165      0.0307
     44  CG        28.3370   64.3580   31.2140 C.3   165  ARG165      0.0489
     45  CD        28.7440   63.8650   29.8490 C.3   165  ARG165      0.2205
     46  NE        30.1590   63.9790   29.6690 N.pl3 165  ARG165     -0.0865
     47  CZ        31.0630   63.0540   29.9200 C.cat 165  ARG165      0.5346
     48  NH1       30.7170   61.8160   30.2420 N.pl3 165  ARG165      0.1354
     49  NH2       32.3130   63.3520   29.7690 N.pl3 165  ARG165      0.1354
     50  N         36.2300   59.1950   35.6900 N.3   192  TYR192     -0.1227
     51  CA        35.1450   58.3530   35.1660 C.3   192  TYR192      0.1736
     52  C         35.5630   57.5330   33.9720 C.2   192  TYR192      0.2598
     53  O         36.2080   58.0400   33.0660 O.2   192  TYR192     -0.2717
     54  CB        33.9860   59.2260   34.6810 C.3   192  TYR192      0.0548
     55  CG        33.0490   59.7830   35.7420 C.ar  192  TYR192     -0.0200
     56  CD1       32.2920   58.9630   36.5570 C.ar  192  TYR192     -0.0009
     57  CD2       32.8460   61.1830   35.8800 C.ar  192  TYR192     -0.0009
     58  CE1       31.4150   59.4620   37.5050 C.ar  192  TYR192      0.0417
     59  CE2       31.9230   61.6780   36.7950 C.ar  192  TYR192      0.0417
     60  CZ        31.2430   60.8590   37.6310 C.ar  192  TYR192      0.1957
     61  OH        30.3260   61.3570   38.5400 O.3   192  TYR192     -0.2866
     62  N         35.2050   56.2180   33.9750 N.am  193  GLU193     -0.1920
     63  CA        35.2680   55.3650   32.7770 C.3   193  GLU193      0.1949
     64  C         34.0630   54.4050   32.8110 C.2   193  GLU193      0.2658
     65  O         33.1820   54.5950   33.6530 O.2   193  GLU193     -0.2711
     66  CB        36.5210   54.4110   32.8410 C.2   193  GLU193      0.0111
     67  CG        37.8400   54.9680   33.3930 C.2   193  GLU193      0.0838
     68  CD        39.0920   54.1630   33.0790 C.2   193  GLU193      0.3877
     69  OE1       39.0410   53.0070   32.5770 O.co2 193  GLU193     -0.2406
     70  OE2       40.1740   54.7090   33.3590 O.co2 193  GLU193     -0.2406
     71  N         33.9900   53.4060   31.9310 N.am  194  MET194     -0.1974
     72  CA        32.7390   52.6570   31.8840 C.3   194  MET194      0.1605
     73  C         32.9110   51.1700   31.9610 C.2   194  MET194      0.2287
     74  O         31.9310   50.4480   31.9110 O.2   194  MET194     -0.2864
     75  CB        31.8690   53.0160   30.6950 C.3   194  MET194      0.0413
     76  CG        31.5550   54.5580   30.6780 C.3   194  MET194      0.0598
     77  SD        30.4890   55.0690   29.3530 S.3   194  MET194     -0.1393
     78  CE        29.0570   54.0270   29.5920 C.3   194  MET194      0.0692
     79  N         41.2260   62.5150   28.4400 N.3   217  ILE217     -0.1231
     80  CA        40.7630   63.2790   27.2820 C.3   217  ILE217      0.1692
     81  C         39.9430   64.5350   27.6010 C.2   217  ILE217      0.2591
     82  O         39.7410   65.3240   26.7050 O.2   217  ILE217     -0.2718
     83  CB        40.0650   62.4280   26.2280 C.3   217  ILE217      0.0266
     84  CG1       38.7180   61.7790   26.6840 C.3   217  ILE217      0.0019
     85  CG2       41.0170   61.3060   25.7680 C.3   217  ILE217      0.0020
     86  CD1       37.8040   61.3040   25.5370 C.3   217  ILE217      0.0001
     87  N         39.4770   64.6780   28.8520 N.am  218  VAL218     -0.1980
     88  CA        38.6640   65.7950   29.2910 C.3   218  VAL218      0.1595
     89  C         38.8240   65.9050   30.8050 C.2   218  VAL218      0.2287
     90  O         39.0190   64.9140   31.4460 O.2   218  VAL218     -0.2864
     91  CB        37.1870   65.6710   28.8990 C.3   218  VAL218      0.0276
     92  CG1       36.5090   64.5480   29.6820 C.3   218  VAL218      0.0022
     93  CG2       36.4570   66.9940   29.1470 C.3   218  VAL218      0.0022
     94  N         36.5040   67.1730   33.7690 N.3   220  ARG220     -0.1245
     95  CA        35.1190   67.4780   34.0250 C.3   220  ARG220      0.1563
     96  C         34.9060   68.7050   34.8950 C.2   220  ARG220      0.2260
     97  O         33.8580   69.2260   34.8920 O.2   220  ARG220     -0.2867
     98  CB        34.4170   66.2800   34.6450 C.3   220  ARG220      0.0307
     99  CG        34.3410   65.1350   33.6130 C.3   220  ARG220      0.0489
    100  CD        33.3790   65.3570   32.4400 C.3   220  ARG220      0.2205
    101  NE        32.1240   65.9160   32.9520 N.pl3 220  ARG220     -0.0865
    102  CZ        31.1450   65.2160   33.5140 C.cat 220  ARG220      0.5346
    103  NH1       31.2040   63.8970   33.5620 N.pl3 220  ARG220      0.1354
    104  NH2       30.0870   65.8320   33.9600 N.pl3 220  ARG220      0.1354
@<TRIPOS>BOND
     1     7     5    1
     2    86    84    1
     3    85    83    1
     4     6     5    1
     5    83    84    1
     6    83    80    1
     7     5     2    1
     8    82    81    2
     9    28    29   ar
    10    28    26   ar
    11    29    27   ar
    12    80    81    1
    13    80    79    1
    14     1     2    1
    15    26    24   ar
    16     2     3    1
    17    27    25   ar
    18    81    87   am
    19    24    25   ar
    20    24    23    1
    21    23    20    1
    22     3     4    2
    23     3     8   am
    24    87    88    1
    25    91    93    1
    26    91    88    1
    27    91    92    1
    28     8     9    1
    29    88    89    1
    30    77    78    1
    31    77    76    1
    32    46    45    1
    33    46    47    2
    34    49    47    1
    35    45    44    1
    36    47    48    1
    37    20    19    1
    38    20    21    1
    39    11    10    2
    40    21    22    2
    41     9    10    1
    42     9    12    1
    43    76    75    1
    44    75    72    1
    45    10    15   am
    46    89    90    2
    47    44    43    1
    48    43    40    1
    49    15    16    1
    50    12    14    1
    51    12    13    1
    52    72    71    1
    53    72    73    1
    54    38    36   am
    55    74    73    2
    56    71    64   am
    57    16    17    1
    58    37    36    2
    59    41    42    2
    60    41    40    1
    61   100   101    1
    62   100    99    1
    63    36    35    1
    64    40    39    1
    65    69    68   ar
    66    63    64    1
    67    63    66    1
    68    63    62    1
    69    64    65    2
    70    66    67    2
    71   101   102    2
    72    53    52    2
    73    68    70   ar
    74    68    67    1
    75    17    18    2
    76   102   103    1
    77   102   104    1
    78    35    34    1
    79    99    98    1
    80    94    95    1
    81    34    31    1
    82    52    62   am
    83    52    51    1
    84    95    98    1
    85    95    96    1
    86    54    51    1
    87    54    55    1
    88    97    96    2
    89    30    31    1
    90    33    32    2
    91    31    32    1
    92    51    50    1
    93    55    57   ar
    94    55    56   ar
    95    57    59   ar
    96    56    58   ar
    97    59    60   ar
    98    58    60   ar
    99    60    61    1
