@<TRIPOS>MOLECULE
tmp/4yjnA00.pdb
 193 182 0 0 0
SMALL
GASTEIGER

@<TRIPOS>ATOM
      1  N         -7.6910  -18.8350  -35.1190 N.3    15  LEU15      -0.1231
      2  CA        -7.7500  -19.2460  -33.7090 C.3    15  LEU15       0.1693
      3  C         -7.6420  -18.0420  -32.7800 C.2    15  LEU15       0.2593
      4  O         -8.1230  -18.0440  -31.6420 O.2    15  LEU15      -0.2718
      5  CB        -6.6160  -20.2440  -33.4450 C.3    15  LEU15       0.0284
      6  CG        -6.7500  -21.6080  -34.1360 C.3    15  LEU15       0.0019
      7  CD1       -5.5480  -22.4750  -33.8470 C.3    15  LEU15       0.0001
      8  CD2       -8.0070  -22.3240  -33.6680 C.3    15  LEU15       0.0001
      9  N         -6.9880  -17.0080  -33.2800 N.am   16  GLY16      -0.1942
     10  CA        -6.7880  -15.8120  -32.5080 C.3    16  GLY16       0.2014
     11  C         -5.4860  -15.1310  -32.8540 C.2    16  GLY16       0.2639
     12  O         -4.8390  -15.4350  -33.8400 O.2    16  GLY16      -0.2714
     13  N         -5.0980  -14.2270  -31.9750 N.am   17  LYS17      -0.1963
     14  CA        -4.0010  -13.3210  -32.1950 C.3    17  LYS17       0.1728
     15  C         -3.0690  -13.5010  -31.0080 C.2    17  LYS17       0.2616
     16  O         -3.4900  -13.4200  -29.8530 O.2    17  LYS17      -0.2715
     17  CB        -4.5860  -11.8960  -32.2780 C.3    17  LYS17       0.0311
     18  CG        -3.6920  -10.7530  -31.8510 C.3    17  LYS17       0.0038
     19  CD        -2.4550  -10.6690  -32.7230 C.3    17  LYS17       0.0206
     20  CE        -1.4940   -9.6270  -32.1720 C.3    17  LYS17       0.1093
     21  NZ        -0.1380   -9.7100  -32.7930 N.3    17  LYS17      -0.1314
     22  N         -1.8110  -13.7860  -31.2960 N.am   18  GLY18      -0.1955
     23  CA        -0.8350  -13.9240  -30.2530 C.3    18  GLY18       0.1869
     24  C          0.2580  -12.8850  -30.4030 C.2    18  GLY18       0.2309
     25  O          0.1900  -11.9710  -31.2490 O.2    18  GLY18      -0.2863
     26  N         -2.6340  -16.3940  -35.3160 N.3    23  VAL23      -0.1245
     27  CA        -2.6350  -17.8400  -35.3600 C.3    23  VAL23       0.1561
     28  C         -3.8500  -18.3830  -36.1260 C.2    23  VAL23       0.2260
     29  O         -4.9930  -18.1710  -35.7140 O.2    23  VAL23      -0.2867
     30  CB        -2.5880  -18.4420  -33.9680 C.3    23  VAL23       0.0252
     31  CG1       -2.4730  -19.9510  -34.0990 C.3    23  VAL23       0.0019
     32  CG2       -1.4100  -17.8580  -33.1950 C.3    23  VAL23       0.0019
     33  N         -1.7200  -25.4610  -36.0880 N.3    36  ALA36      -0.1245
     34  CA        -1.8320  -24.0380  -35.7580 C.3    36  ALA36       0.1562
     35  C         -0.6200  -23.3390  -36.3340 C.2    36  ALA36       0.2260
     36  O          0.5210  -23.6830  -36.0100 O.2    36  ALA36      -0.2867
     37  CB        -1.9340  -23.8660  -34.2490 C.3    36  ALA36       0.0290
     38  N          1.4990  -19.9660  -36.7360 N.3    38  LYS38      -0.1245
     39  CA         1.7370  -18.5660  -36.3720 C.3    38  LYS38       0.1561
     40  C          2.2890  -17.8080  -37.5670 C.2    38  LYS38       0.2260
     41  O          3.3280  -18.1450  -38.1060 O.2    38  LYS38      -0.2867
     42  CB         2.6640  -18.4080  -35.1700 C.3    38  LYS38       0.0271
     43  CG         2.9150  -16.9550  -34.7910 C.3    38  LYS38       0.0035
     44  CD         3.3840  -16.7890  -33.3460 C.3    38  LYS38       0.0206
     45  CE         2.2110  -16.8180  -32.3650 C.3    38  LYS38       0.1093
     46  NZ         2.5890  -16.4950  -30.9610 N.3    38  LYS38      -0.1314
     47  N         15.3100  -22.3280  -35.5270 N.3    58  VAL58      -0.1245
     48  CA        14.1970  -23.1390  -35.9950 C.3    58  VAL58       0.1561
     49  C         14.5290  -24.6270  -36.0970 C.2    58  VAL58       0.2260
     50  O         13.7100  -25.4770  -35.7180 O.2    58  VAL58      -0.2867
     51  CB        13.6380  -22.6270  -37.3260 C.3    58  VAL58       0.0252
     52  CG1       12.8080  -23.6920  -38.0290 C.3    58  VAL58       0.0019
     53  CG2       12.7820  -21.4140  -37.0470 C.3    58  VAL58       0.0019
     54  N         14.6210  -26.0410  -32.5410 N.3    61  LEU61      -0.1245
     55  CA        13.2580  -26.1340  -31.9600 C.3    61  LEU61       0.1561
     56  C         12.3940  -27.2760  -32.5440 C.2    61  LEU61       0.2260
     57  O         11.5000  -27.7620  -31.8780 O.2    61  LEU61      -0.2867
     58  CB        12.5390  -24.7980  -32.1660 C.3    61  LEU61       0.0270
     59  CG        13.0040  -23.6520  -31.2810 C.3    61  LEU61       0.0019
     60  CD1       12.4550  -22.3180  -31.7530 C.3    61  LEU61       0.0001
     61  CD2       12.5510  -23.9140  -29.8560 C.3    61  LEU61       0.0001
     62  N          5.0210  -26.3550  -26.5500 N.3    70  MET70      -0.1245
     63  CA         4.4220  -26.4770  -27.8600 C.3    70  MET70       0.1570
     64  C          5.3700  -27.1140  -28.8590 C.2    70  MET70       0.2261
     65  O          6.5320  -26.7700  -28.8670 O.2    70  MET70      -0.2867
     66  CB         4.0130  -25.1190  -28.4260 C.3    70  MET70       0.0387
     67  CG         3.3150  -25.4020  -29.7400 C.3    70  MET70       0.0595
     68  SD         3.0150  -24.0960  -30.8790 S.3    70  MET70      -0.1393
     69  CE         4.6730  -24.0080  -31.5520 C.3    70  MET70       0.0692
     70  N          6.8020  -27.7050  -32.4500 N.3    72  LEU72      -0.1245
     71  CA         6.9560  -27.1030  -33.7780 C.3    72  LEU72       0.1561
     72  C          7.2210  -28.1810  -34.8440 C.2    72  LEU72       0.2260
     73  O          8.0530  -29.0390  -34.6160 O.2    72  LEU72      -0.2867
     74  CB         8.0840  -26.0970  -33.7560 C.3    72  LEU72       0.0270
     75  CG         8.4110  -25.4530  -35.1060 C.3    72  LEU72       0.0019
     76  CD1        7.3710  -24.3950  -35.4570 C.3    72  LEU72       0.0001
     77  CD2        9.8070  -24.8560  -35.1220 C.3    72  LEU72       0.0001
     78  N          5.1030  -20.2650  -38.9060 N.3    84  LEU84      -0.1231
     79  CA         5.5300  -21.2610  -37.9120 C.3    84  LEU84       0.1693
     80  C          4.4020  -22.2730  -37.6770 C.2    84  LEU84       0.2592
     81  O          3.3540  -21.9350  -37.1280 O.2    84  LEU84      -0.2718
     82  CB         5.9390  -20.5340  -36.6440 C.3    84  LEU84       0.0284
     83  CG         7.0030  -19.4350  -36.8360 C.3    84  LEU84       0.0019
     84  CD1        6.9520  -18.4380  -35.7130 C.3    84  LEU84       0.0001
     85  CD2        8.4210  -19.9780  -36.9440 C.3    84  LEU84       0.0001
     86  N          4.6130  -23.4900  -38.1570 N.am   85  VAL85      -0.1966
     87  CA         3.5760  -24.5060  -38.1370 C.3    85  VAL85       0.1727
     88  C          3.7290  -25.4030  -36.9120 C.2    85  VAL85       0.2617
     89  O          4.7350  -26.1200  -36.7470 O.2    85  VAL85      -0.2715
     90  CB         3.6040  -25.3660  -39.4000 C.3    85  VAL85       0.0290
     91  CG1        2.4440  -26.3470  -39.3930 C.3    85  VAL85       0.0023
     92  CG2        3.6040  -24.4830  -40.6390 C.3    85  VAL85       0.0023
     93  N          2.7260  -25.3820  -36.0590 N.am   86  GLY86      -0.1940
     94  CA         2.8020  -26.1500  -34.8340 C.3    86  GLY86       0.2014
     95  C          1.5630  -26.9420  -34.5280 C.2    86  GLY86       0.2639
     96  O          0.5460  -26.8910  -35.2550 O.2    86  GLY86      -0.2714
     97  N          1.6620  -27.6340  -33.4070 N.am   87  GLU87      -0.1963
     98  CA         0.6270  -28.5210  -32.9710 C.3    87  GLU87       0.1733
     99  C         -0.5070  -27.6260  -32.5330 C.2    87  GLU87       0.2616
    100  O         -0.2610  -26.5990  -31.9050 O.2    87  GLU87      -0.2715
    101  CB         1.1140  -29.3590  -31.7910 C.3    87  GLU87       0.0429
    102  CG         0.2280  -30.5420  -31.4370 C.3    87  GLU87       0.1163
    103  CD         0.7620  -31.3870  -30.2780 C.2    87  GLU87       0.3649
    104  OE1        1.8450  -31.1160  -29.6980 O.co2  87  GLU87      -0.2457
    105  OE2        0.0400  -32.3420  -29.9170 O.co2  87  GLU87      -0.2457
    106  N         -1.7540  -28.0020  -32.8610 N.am   88  VAL88      -0.1963
    107  CA        -2.9670  -27.3080  -32.3590 C.3    88  VAL88       0.1727
    108  C         -3.3780  -27.7280  -30.9370 C.2    88  VAL88       0.2616
    109  O         -3.4620  -28.9280  -30.6630 O.2    88  VAL88      -0.2715
    110  CB        -4.2350  -27.6560  -33.1960 C.3    88  VAL88       0.0290
    111  CG1       -5.4320  -26.8390  -32.7410 C.3    88  VAL88       0.0023
    112  CG2       -4.0380  -27.3940  -34.6620 C.3    88  VAL88       0.0023
    113  N         -3.6640  -26.7580  -30.0810 N.am   89  TYR89      -0.1974
    114  CA        -4.1450  -26.9930  -28.7190 C.3    89  TYR89       0.1639
    115  C         -5.4580  -26.2900  -28.4940 C.2    89  TYR89       0.2290
    116  O         -5.5770  -25.1260  -28.7910 O.2    89  TYR89      -0.2864
    117  CB        -3.1270  -26.5470  -27.7070 C.3    89  TYR89       0.0560
    118  CG        -1.7770  -27.1610  -27.9350 C.ar   89  TYR89      -0.0198
    119  CD1       -1.6090  -28.5250  -27.9200 C.ar   89  TYR89      -0.0009
    120  CD2       -0.6720  -26.3780  -28.1800 C.ar   89  TYR89      -0.0009
    121  CE1       -0.3610  -29.0980  -28.1250 C.ar   89  TYR89       0.0417
    122  CE2        0.5760  -26.9460  -28.3550 C.ar   89  TYR89       0.0417
    123  CZ         0.7250  -28.3020  -28.3260 C.ar   89  TYR89       0.1957
    124  OH         1.9660  -28.8460  -28.5150 O.3    89  TYR89      -0.2866
    125  N         -7.4010  -23.6510  -24.4760 N.3    92  GLY92      -0.1210
    126  CA        -7.4710  -22.2360  -24.1950 C.3    92  GLY92       0.1956
    127  C         -6.4470  -21.8300  -23.1570 C.2    92  GLY92       0.2611
    128  O         -5.6460  -22.6550  -22.7460 O.2    92  GLY92      -0.2717
    129  N         -6.4880  -20.5840  -22.7370 N.am   93  GLU93      -0.1979
    130  CA        -5.5460  -20.1200  -21.7540 C.3    93  GLU93       0.1602
    131  C         -5.8330  -20.7650  -20.3810 C.2    93  GLU93       0.2287
    132  O         -7.0000  -21.0540  -20.0390 O.2    93  GLU93      -0.2864
    133  CB        -5.5480  -18.5980  -21.6760 C.3    93  GLU93       0.0415
    134  CG        -4.7960  -17.9580  -22.8350 C.3    93  GLU93       0.1163
    135  CD        -5.0900  -16.4660  -23.0120 C.2    93  GLU93       0.3649
    136  OE1       -5.3300  -15.7460  -22.0050 O.co2  93  GLU93      -0.2457
    137  OE2       -5.0780  -16.0020  -24.1760 O.co2  93  GLU93      -0.2457
    138  N         -0.9070  -15.8770  -20.4610 N.3   136  GLU136     -0.1245
    139  CA        -1.3090  -15.9910  -21.8780 C.3   136  GLU136      0.1567
    140  C         -0.4900  -17.0070  -22.6680 C.2   136  GLU136      0.2260
    141  O         -0.9340  -17.5000  -23.7100 O.2   136  GLU136     -0.2867
    142  CB        -1.1570  -14.6300  -22.5940 C.3   136  GLU136      0.0388
    143  CG        -2.2740  -13.6200  -22.3380 C.3   136  GLU136      0.1160
    144  CD        -2.5040  -12.6620  -23.5240 C.2   136  GLU136      0.3649
    145  OE1       -1.5060  -12.3330  -24.2280 O.co2 136  GLU136     -0.2457
    146  OE2       -3.6780  -12.2420  -23.7540 O.co2 136  GLU136     -0.2457
    147  N         -1.1510  -22.5290  -22.4140 N.3   139  LEU139     -0.1245
    148  CA        -2.3740  -23.1170  -22.9570 C.3   139  LEU139      0.1561
    149  C         -2.5210  -24.5150  -22.4090 C.2   139  LEU139      0.2260
    150  O         -1.5400  -25.2030  -22.1740 O.2   139  LEU139     -0.2867
    151  CB        -2.2690  -23.2020  -24.4880 C.3   139  LEU139      0.0270
    152  CG        -1.9340  -21.9600  -25.2930 C.3   139  LEU139      0.0019
    153  CD1       -2.1160  -22.3170  -26.7590 C.3   139  LEU139      0.0001
    154  CD2       -2.8410  -20.7950  -24.8940 C.3   139  LEU139      0.0001
    155  N          3.7510  -21.8170  -24.9660 N.3   152  ILE152     -0.1231
    156  CA         3.9390  -21.2900  -26.3140 C.3   152  ILE152      0.1692
    157  C          4.9600  -20.1610  -26.3370 C.2   152  ILE152      0.2592
    158  O          5.2370  -19.5060  -25.3290 O.2   152  ILE152     -0.2718
    159  CB         2.6180  -20.7910  -26.8960 C.3   152  ILE152      0.0266
    160  CG1        1.9920  -19.7190  -26.0090 C.3   152  ILE152      0.0019
    161  CG2        1.6770  -21.9680  -27.0290 C.3   152  ILE152      0.0020
    162  CD1        0.7360  -19.0930  -26.5730 C.3   152  ILE152      0.0001
    163  N          5.5500  -19.9610  -27.5140 N.am  153  ASP153     -0.1960
    164  CA         6.4470  -18.8070  -27.8010 C.3   153  ASP153      0.1840
    165  C          7.8470  -18.8900  -27.2130 C.2   153  ASP153      0.2622
    166  O          8.5830  -17.9280  -27.2040 O.2   153  ASP153     -0.2715
    167  CB         5.7880  -17.4460  -27.4440 C.3   153  ASP153      0.1450
    168  CG         4.5210  -17.1190  -28.2920 C.2   153  ASP153      0.3671
    169  OD1        4.2990  -17.7720  -29.3530 O.co2 153  ASP153     -0.2456
    170  OD2        3.7530  -16.1760  -27.8840 O.co2 153  ASP153     -0.2456
    171  N          8.2610  -20.0700  -26.7960 N.am  154  PHE154     -0.1960
    172  CA         9.6080  -20.2670  -26.3360 C.3   154  PHE154      0.1771
    173  C         10.4410  -20.0020  -27.5880 C.2   154  PHE154      0.2620
    174  O         10.3010  -20.7280  -28.5950 O.2   154  PHE154     -0.2715
    175  CB         9.8420  -21.6920  -25.8160 C.3   154  PHE154      0.0574
    176  CG        10.2890  -21.7250  -24.3950 C.ar  154  PHE154     -0.0200
    177  CD1       11.5150  -21.2020  -24.0840 C.ar  154  PHE154     -0.0042
    178  CD2        9.4810  -22.2450  -23.3540 C.ar  154  PHE154     -0.0042
    179  CE1       11.9760  -21.1810  -22.7680 C.ar  154  PHE154     -0.0003
    180  CE2        9.9320  -22.2230  -22.0360 C.ar  154  PHE154     -0.0003
    181  CZ        11.1810  -21.6790  -21.7420 C.ar  154  PHE154     -0.0000
    182  N         11.2950  -18.9850  -27.5520 N.am  155  GLY155     -0.1940
    183  CA        12.2430  -18.7870  -28.6420 C.3   155  GLY155      0.2014
    184  C         12.0530  -17.5270  -29.4820 C.2   155  GLY155      0.2638
    185  O         12.9530  -17.0610  -30.1480 O.2   155  GLY155     -0.2714
    186  N         10.8820  -16.9450  -29.4660 N.am  156  LEU156     -0.1977
    187  CA        10.6100  -15.8220  -30.3050 C.3   156  LEU156      0.1596
    188  C         11.2340  -14.5450  -29.8360 C.2   156  LEU156      0.2287
    189  O         11.5660  -13.7240  -30.6580 O.2   156  LEU156     -0.2864
    190  CB         9.1200  -15.6780  -30.4210 C.3   156  LEU156      0.0297
    191  CG         8.4050  -16.7710  -31.2060 C.3   156  LEU156      0.0022
    192  CD1        6.9680  -16.3140  -31.2860 C.3   156  LEU156      0.0001
    193  CD2        8.9800  -16.8860  -32.6060 C.3   156  LEU156      0.0001
@<TRIPOS>BOND
     1    92    90    1
     2    90    91    1
     3    90    87    1
     4    78    79    1
     5    86    87    1
     6    86    80   am
     7    87    88    1
     8    41    40    2
     9    52    51    1
    10    79    80    1
    11    79    82    1
    12    80    81    2
    13    40    39    1
    14    51    53    1
    15    51    48    1
    16    85    83    1
    17    88    89    2
    18    88    93   am
    19    83    82    1
    20    83    84    1
    21    38    39    1
    22    39    42    1
    23    35    36    2
    24    35    34    1
    25    28    29    2
    26    28    27    1
    27    49    48    1
    28    49    50    2
    29    33    34    1
    30    93    94    1
    31    48    47    1
    32    34    37    1
    33    76    75    1
    34    27    26    1
    35    27    30    1
    36    96    95    2
    37    42    43    1
    38    77    75    1
    39     1     2    1
    40    75    74    1
    41    72    73    2
    42    72    71    1
    43    94    95    1
    44    43    44    1
    45   112   110    1
    46    95    97   am
    47     6     7    1
    48     6     8    1
    49     6     5    1
    50    31    30    1
    51    30    32    1
    52    12    11    2
    53    71    74    1
    54    71    70    1
    55     2     5    1
    56     2     3    1
    57    97    98    1
    58    44    45    1
    59     9     3   am
    60     9    10    1
    61   110   111    1
    62   110   107    1
    63    98    99    1
    64    98   101    1
    65   106    99   am
    66   106   107    1
    67    11    10    1
    68    11    13   am
    69    21    20    1
    70     3     4    2
    71    19    20    1
    72    19    18    1
    73   193   191    1
    74    56    55    1
    75    56    57    2
    76    54    55    1
    77    99   100    2
    78    45    46    1
    79   107   108    1
    80    17    14    1
    81    17    18    1
    82    14    13    1
    83    14    15    1
    84    58    55    1
    85    58    59    1
    86   101   102    1
    87    60    59    1
    88    69    68    1
    89   102   103    1
    90    22    15   am
    91    22    23    1
    92   192   191    1
    93    59    61    1
    94    25    24    2
    95   191   190    1
    96    15    16    2
    97   108   109    2
    98   108   113   am
    99    68    67    1
   100   189   188    2
   101   190   187    1
   102    24    23    1
   103   187   188    1
   104   187   186    1
   105   103   105   ar
   106   103   104   ar
   107   185   184    2
   108   113   114    1
   109    67    66    1
   110   184   186   am
   111   184   183    1
   112   169   168   ar
   113    65    64    2
   114    64    63    1
   115   116   115    2
   116   114   115    1
   117   114   117    1
   118   183   182    1
   119   174   173    2
   120   124   123    1
   121    66    63    1
   122   122   123   ar
   123   122   120   ar
   124   123   121   ar
   125   168   170   ar
   126   168   167    1
   127   120   118   ar
   128   121   119   ar
   129   118   119   ar
   130   118   117    1
   131    63    62    1
   132   164   163    1
   133   164   167    1
   134   164   165    1
   135   173   182   am
   136   173   172    1
   137   163   157   am
   138   165   166    2
   139   165   171   am
   140   161   159    1
   141   159   156    1
   142   159   160    1
   143   171   172    1
   144   153   152    1
   145   162   160    1
   146   157   156    1
   147   157   158    2
   148   172   175    1
   149   156   155    1
   150   175   176    1
   151   152   154    1
   152   152   151    1
   153   151   148    1
   154   125   126    1
   155   176   177   ar
   156   176   178   ar
   157   145   144   ar
   158   126   127    1
   159   137   135   ar
   160   177   179   ar
   161   146   144   ar
   162   141   140    2
   163   144   143    1
   164   178   180   ar
   165   127   128    2
   166   127   129   am
   167   135   134    1
   168   135   136   ar
   169   148   147    1
   170   148   149    1
   171   134   133    1
   172   179   181   ar
   173   129   130    1
   174   140   139    1
   175   142   143    1
   176   142   139    1
   177   149   150    2
   178   180   181   ar
   179   139   138    1
   180   130   133    1
   181   130   131    1
   182   131   132    2
