@<TRIPOS>MOLECULE
tmp/4yjqA00.pdb
 180 169 0 0 0
SMALL
GASTEIGER

@<TRIPOS>ATOM
      1  N         39.2230   41.9660   26.1360 N.3    14  LEU14      -0.1231
      2  CA        39.7630   41.1580   27.2300 C.3    14  LEU14       0.1693
      3  C         39.9500   39.6970   26.8070 C.2    14  LEU14       0.2592
      4  O         39.0780   39.1250   26.1530 O.2    14  LEU14      -0.2718
      5  CB        38.8060   41.2460   28.4360 C.3    14  LEU14       0.0284
      6  CG        38.2680   42.6420   28.7630 C.3    14  LEU14       0.0019
      7  CD1       37.4370   42.6190   29.9950 C.3    14  LEU14       0.0001
      8  CD2       39.4120   43.6490   28.9360 C.3    14  LEU14       0.0001
      9  N         41.0740   39.0980   27.2040 N.am   15  GLY15      -0.1957
     10  CA        41.3870   37.7080   26.8810 C.3    15  GLY15       0.1869
     11  C         41.8550   37.5040   25.4560 C.2    15  GLY15       0.2309
     12  O         41.9400   38.4550   24.6780 O.2    15  GLY15      -0.2863
     13  N         35.2630   40.3500   24.1340 N.3    18  VAL18      -0.1245
     14  CA        34.8090   40.8020   25.4570 C.3    18  VAL18       0.1561
     15  C         35.2270   42.2290   25.7330 C.2    18  VAL18       0.2260
     16  O         36.4080   42.5460   25.6070 O.2    18  VAL18      -0.2867
     17  CB        35.3380   39.8650   26.5930 C.3    18  VAL18       0.0252
     18  CG1       34.8630   40.3350   27.9800 C.3    18  VAL18       0.0019
     19  CG2       34.9260   38.4120   26.3550 C.3    18  VAL18       0.0019
     20  N         30.3430   43.4880   31.9300 N.3    33  ALA33      -0.1231
     21  CA        31.2260   42.7930   30.9870 C.3    33  ALA33       0.1694
     22  C         30.3670   42.2480   29.8870 C.2    33  ALA33       0.2592
     23  O         29.2800   41.7310   30.1610 O.2    33  ALA33      -0.2718
     24  CB        31.9860   41.6860   31.6570 C.3    33  ALA33       0.0304
     25  N         30.7750   42.4340   28.6510 N.am   34  VAL34      -0.1966
     26  CA        29.9450   42.1460   27.5180 C.3    34  VAL34       0.1727
     27  C         30.6530   41.2540   26.5340 C.2    34  VAL34       0.2616
     28  O         31.7490   41.5980   26.0890 O.2    34  VAL34      -0.2715
     29  CB        29.5650   43.5090   26.8480 C.3    34  VAL34       0.0290
     30  CG1       28.5700   43.2970   25.7190 C.3    34  VAL34       0.0023
     31  CG2       28.9940   44.4930   27.8820 C.3    34  VAL34       0.0023
     32  N         30.0010   40.1680   26.1290 N.am   35  LYS35      -0.1977
     33  CA        30.4750   39.3340   25.0400 C.3    35  LYS35       0.1596
     34  C         29.8250   39.8370   23.7820 C.2    35  LYS35       0.2287
     35  O         28.6200   39.9880   23.7530 O.2    35  LYS35      -0.2864
     36  CB        30.1440   37.8570   25.2380 C.3    35  LYS35       0.0298
     37  CG        31.2270   37.1220   25.9740 C.3    35  LYS35       0.0038
     38  CD        30.9690   35.6540   26.0020 C.3    35  LYS35       0.0206
     39  CE        32.0630   35.0160   26.8410 C.3    35  LYS35       0.1093
     40  NZ        32.1210   33.5460   26.6390 N.3    35  LYS35      -0.1314
     41  N         23.2470   30.0880   27.0280 N.3    53  GLU53      -0.1245
     42  CA        23.7400   30.6010   28.2810 C.3    53  GLU53       0.1567
     43  C         22.7480   31.5860   28.8670 C.2    53  GLU53       0.2260
     44  O         22.4250   31.5240   30.0580 O.2    53  GLU53      -0.2867
     45  CB        25.1060   31.2670   28.0470 C.3    53  GLU53       0.0388
     46  CG        25.6620   31.8880   29.3090 C.3    53  GLU53       0.1160
     47  CD        27.1030   32.3450   29.2610 C.2    53  GLU53       0.3649
     48  OE1       27.5380   32.8870   28.2270 O.co2  53  GLU53      -0.2457
     49  OE2       27.7750   32.2290   30.3110 O.co2  53  GLU53      -0.2457
     50  N         20.9810   31.3700   32.4830 N.3    57  MET57      -0.1245
     51  CA        21.3120   32.3480   33.5130 C.3    57  MET57       0.1570
     52  C         20.0480   33.1820   33.8810 C.2    57  MET57       0.2261
     53  O         19.9280   33.5540   35.0690 O.2    57  MET57      -0.2867
     54  CB        22.6110   33.1600   33.1110 C.3    57  MET57       0.0387
     55  CG        23.8960   32.2440   33.1220 C.3    57  MET57       0.0595
     56  SD        25.3640   33.1120   32.5300 S.3    57  MET57      -0.1393
     57  CE        25.9520   33.7680   34.0750 C.3    57  MET57       0.0692
     58  N         27.4210   34.5450   38.5290 N.3    66  VAL66      -0.1245
     59  CA        27.3620   35.8240   37.8120 C.3    66  VAL66       0.1561
     60  C         25.9240   36.0910   37.3610 C.2    66  VAL66       0.2260
     61  O         25.2520   35.2000   36.8390 O.2    66  VAL66      -0.2867
     62  CB        28.3530   35.8320   36.6240 C.3    66  VAL66       0.0252
     63  CG1       28.1630   37.0260   35.7130 C.3    66  VAL66       0.0019
     64  CG2       29.7920   35.8420   37.1250 C.3    66  VAL66       0.0019
     65  N         25.9190   40.0580   24.8520 N.3    79  LEU79      -0.1245
     66  CA        25.4360   39.4110   26.0670 C.3    79  LEU79       0.1561
     67  C         26.0870   40.1520   27.2290 C.2    79  LEU79       0.2260
     68  O         27.3160   40.1450   27.3430 O.2    79  LEU79      -0.2867
     69  CB        25.7640   37.9140   26.0500 C.3    79  LEU79       0.0270
     70  CG        25.3660   37.1500   27.3100 C.3    79  LEU79       0.0019
     71  CD1       23.8780   37.2750   27.6100 C.3    79  LEU79       0.0001
     72  CD2       25.7240   35.6650   27.2090 C.3    79  LEU79       0.0001
     73  N         26.6840   41.0840   31.2180 N.3    81  MET81      -0.1230
     74  CA        26.7220   40.5580   32.5670 C.3    81  MET81       0.1702
     75  C         27.1850   41.5890   33.5650 C.2    81  MET81       0.2592
     76  O         27.9430   42.4900   33.2330 O.2    81  MET81      -0.2718
     77  CB        27.7310   39.4100   32.6540 C.3    81  MET81       0.0401
     78  CG        27.4470   38.2520   31.7100 C.3    81  MET81       0.0596
     79  SD        26.0370   37.2000   32.2450 S.3    81  MET81      -0.1393
     80  CE        25.7230   36.1590   30.8390 C.3    81  MET81       0.0692
     81  N         26.7890   41.4350   34.8240 N.am   82  GLU82      -0.1966
     82  CA        27.3950   42.2520   35.8570 C.3    82  GLU82       0.1733
     83  C         28.8750   41.8970   35.8930 C.2    82  GLU82       0.2616
     84  O         29.1940   40.6980   35.8640 O.2    82  GLU82      -0.2715
     85  CB        26.7770   41.9600   37.2130 C.3    82  GLU82       0.0429
     86  CG        25.3650   42.4670   37.3500 C.3    82  GLU82       0.1163
     87  CD        24.7640   42.2580   38.7160 C.2    82  GLU82       0.3649
     88  OE1       25.4300   41.6260   39.5670 O.co2  82  GLU82      -0.2457
     89  OE2       23.5990   42.6670   38.9130 O.co2  82  GLU82      -0.2457
     90  N         29.7740   42.8970   35.9050 N.am   83  MET83      -0.1963
     91  CA        31.2020   42.5810   35.8730 C.3    83  MET83       0.1736
     92  C         31.7630   42.1990   37.2450 C.2    83  MET83       0.2616
     93  O         31.5850   42.8940   38.2310 O.2    83  MET83      -0.2715
     94  CB        32.0300   43.7040   35.2590 C.3    83  MET83       0.0427
     95  CG        33.4860   43.2920   34.9550 C.3    83  MET83       0.0599
     96  SD        34.1690   44.6090   33.9960 S.3    83  MET83      -0.1393
     97  CE        35.8680   44.0710   33.8410 C.3    83  MET83       0.0692
     98  N         32.4930   41.0730   37.2610 N.am   84  ALA84      -0.1963
     99  CA        33.3140   40.6310   38.3870 C.3    84  ALA84       0.1728
    100  C         34.7130   41.1420   37.9990 C.2    84  ALA84       0.2616
    101  O         35.3990   40.5300   37.1610 O.2    84  ALA84      -0.2715
    102  CB        33.2240   39.1290   38.5520 C.3    84  ALA84       0.0334
    103  N         35.0900   42.2850   38.5250 N.am   85  GLU85      -0.1963
    104  CA        36.1760   43.0390   37.9170 C.3    85  GLU85       0.1733
    105  C         37.5610   42.4970   38.1080 C.2    85  GLU85       0.2616
    106  O         38.4030   42.7980   37.2630 O.2    85  GLU85      -0.2715
    107  CB        36.0860   44.4760   38.3320 C.3    85  GLU85       0.0429
    108  CG        34.7820   45.0990   37.8280 C.3    85  GLU85       0.1163
    109  CD        34.6120   46.5590   38.1650 C.2    85  GLU85       0.3649
    110  OE1       35.6190   47.2750   38.0440 O.co2  85  GLU85      -0.2457
    111  OE2       33.5000   47.0020   38.5280 O.co2  85  GLU85      -0.2457
    112  N         37.8160   41.6580   39.0860 N.am   86  LEU86      -0.1963
    113  CA        39.1600   41.1100   39.2030 C.3    86  LEU86       0.1728
    114  C         39.3970   39.9730   38.2060 C.2    86  LEU86       0.2617
    115  O         40.5440   39.6090   37.9830 O.2    86  LEU86      -0.2715
    116  CB        39.4430   40.6580   40.6250 C.3    86  LEU86       0.0311
    117  CG        39.6580   41.7760   41.6360 C.3    86  LEU86       0.0022
    118  CD1       39.8840   41.1920   42.9900 C.3    86  LEU86       0.0001
    119  CD2       40.8450   42.6560   41.2630 C.3    86  LEU86       0.0001
    120  N         38.3550   39.4470   37.5760 N.am   87  GLY87      -0.1941
    121  CA        38.5310   38.4990   36.5120 C.3    87  GLY87       0.1998
    122  C         38.7530   37.0660   36.9120 C.2    87  GLY87       0.2480
    123  O         38.5340   36.6980   38.0710 O.2    87  GLY87      -0.2729
    124  N         39.1900   36.2670   35.9270 N.am   88  PRO88      -0.2726
    125  CA        39.3620   34.8280   36.1730 C.3    88  PRO88       0.1402
    126  C         40.3200   34.4800   37.3050 C.2    88  PRO88       0.2269
    127  O         41.4110   35.0470   37.4380 O.2    88  PRO88      -0.2865
    128  CB        39.8650   34.2950   34.8330 C.3    88  PRO88       0.0296
    129  CG        39.3080   35.2930   33.8090 C.3    88  PRO88       0.0237
    130  CD        39.4160   36.6130   34.5060 C.3    88  PRO88       0.0939
    131  N         44.0710   33.2570   36.3750 N.3    91  LYS91      -0.1245
    132  CA        44.9640   34.3760   36.0570 C.3    91  LYS91       0.1561
    133  C         45.2900   35.1770   37.3050 C.2    91  LYS91       0.2260
    134  O         46.4340   35.6160   37.4960 O.2    91  LYS91      -0.2867
    135  CB        44.3510   35.2530   34.9630 C.3    91  LYS91       0.0271
    136  CG        44.2470   34.5510   33.6200 C.3    91  LYS91       0.0035
    137  CD        43.7950   35.4890   32.4940 C.3    91  LYS91       0.0206
    138  CE        44.0750   34.8910   31.1280 C.3    91  LYS91       0.1093
    139  NZ        43.6560   35.7840   30.0110 N.3    91  LYS91      -0.1314
    140  N         39.3460   29.0050   35.2960 N.3   131  ARG131     -0.1231
    141  CA        39.1620   30.1110   34.3310 C.3   131  ARG131      0.1694
    142  C         37.7190   30.6350   34.3410 C.2   131  ARG131      0.2592
    143  O         37.4790   31.7630   33.8890 O.2   131  ARG131     -0.2718
    144  CB        39.5520   29.6590   32.9010 C.3   131  ARG131      0.0321
    145  CG        38.6660   28.5210   32.3450 C.3   131  ARG131      0.0489
    146  CD        38.9830   28.0680   30.9080 C.3   131  ARG131      0.2205
    147  NE        38.1860   26.8530   30.6250 N.pl3 131  ARG131     -0.0865
    148  CZ        38.5300   25.6140   30.9680 C.cat 131  ARG131      0.5346
    149  NH1       39.7210   25.3670   31.4850 N.pl3 131  ARG131      0.1354
    150  NH2       37.7110   24.6060   30.7370 N.pl3 131  ARG131      0.1354
    151  N         36.7430   29.8490   34.8170 N.am  132  ASN132     -0.1974
    152  CA        35.3350   30.2350   34.8320 C.3   132  ASN132      0.1688
    153  C         34.8800   30.6180   36.2010 C.2   132  ASN132      0.2292
    154  O         33.6960   30.9580   36.3390 O.2   132  ASN132     -0.2864
    155  CB        34.5030   29.1080   34.2060 C.3   132  ASN132      0.1181
    156  CG        34.7740   28.9850   32.7340 C.2   132  ASN132      0.2629
    157  OD1       35.0770   30.0040   32.0690 O.2   132  ASN132     -0.2716
    158  ND2       34.6520   27.8030   32.1560 N.am  132  ASN132     -0.0877
    159  N         35.0800   33.8560   38.4700 N.3   134  LEU134     -0.1245
    160  CA        35.4540   35.2550   38.3470 C.3   134  LEU134      0.1561
    161  C         35.4050   35.9220   39.6860 C.2   134  LEU134      0.2260
    162  O         34.4950   35.6790   40.4760 O.2   134  LEU134     -0.2867
    163  CB        34.5520   35.9740   37.3730 C.3   134  LEU134      0.0270
    164  CG        34.3910   35.2630   36.0340 C.3   134  LEU134      0.0019
    165  CD1       33.5060   36.0490   35.0950 C.3   134  LEU134      0.0001
    166  CD2       35.7160   35.0310   35.3160 C.3   134  LEU134      0.0001
    167  N         30.8810   31.4310   36.4980 N.3   144  SER144     -0.1202
    168  CA        30.5040   31.9950   35.2160 C.3   144  SER144      0.2020
    169  C         30.5330   30.9040   34.1250 C.2   144  SER144      0.2618
    170  O         30.8240   29.7340   34.3950 O.2   144  SER144     -0.2717
    171  CB        31.4550   33.1250   34.8550 C.3   144  SER144      0.2103
    172  OG        32.7290   32.6190   34.4990 O.3   144  SER144     -0.2182
    173  N         30.2630   31.2990   32.8870 N.am  145  ASP145     -0.1973
    174  CA        30.3540   30.5130   31.6500 C.3   145  ASP145      0.1709
    175  C         29.4150   29.3130   31.6820 C.2   145  ASP145      0.2293
    176  O         29.8330   28.1710   31.8730 O.2   145  ASP145     -0.2864
    177  CB        31.7860   30.0600   31.3300 C.3   145  ASP145      0.1436
    178  CG        31.8510   29.4190   29.9550 C.2   145  ASP145      0.3671
    179  OD1       30.7760   29.3450   29.2650 O.co2 145  ASP145     -0.2456
    180  OD2       32.9760   29.0600   29.5220 O.co2 145  ASP145     -0.2456
@<TRIPOS>BOND
     1    35    34    2
     2    34    33    1
     3    13    14    1
     4    12    11    2
     5    65    66    1
     6    33    36    1
     7    33    32    1
     8    36    37    1
     9    11    10    1
    10    14    15    1
    11    14    17    1
    12    16    15    2
    13    30    29    1
    14    37    38    1
    15    38    39    1
    16    69    66    1
    17    69    70    1
    18    66    67    1
    19    28    27    2
    20    32    27   am
    21     1     2    1
    22     4     3    2
    23    19    17    1
    24    27    26    1
    25    17    18    1
    26    40    39    1
    27     3     9   am
    28     3     2    1
    29    29    26    1
    30    29    31    1
    31    10     9    1
    32    41    42    1
    33    72    70    1
    34    67    68    2
    35     2     5    1
    36    70    71    1
    37    26    25    1
    38    45    42    1
    39    45    46    1
    40    48    47   ar
    41    42    43    1
    42     5     6    1
    43    25    22   am
    44     6     8    1
    45     6     7    1
    46    43    44    2
    47    47    46    1
    48    47    49   ar
    49   179   178   ar
    50   180   178   ar
    51    22    23    2
    52    22    21    1
    53   178   177    1
    54   139   138    1
    55   147   146    1
    56   147   148    2
    57   150   148    1
    58    80    79    1
    59   146   145    1
    60   148   149    1
    61    21    24    1
    62    21    20    1
    63   138   137    1
    64    73    74    1
    65   177   174    1
    66   174   175    1
    67   174   173    1
    68   175   176    2
    69    78    79    1
    70    78    77    1
    71   157   156    2
    72   158   156   am
    73   145   144    1
    74    50    51    1
    75   137   136    1
    76    56    55    1
    77    56    57    1
    78    74    77    1
    79    74    75    1
    80   156   155    1
    81   173   169   am
    82   144   141    1
    83    54    55    1
    84    54    51    1
    85    76    75    2
    86    51    52    1
    87    75    81   am
    88   136   135    1
    89   129   130    1
    90   129   128    1
    91    97    96    1
    92    52    53    2
    93   143   142    2
    94    96    95    1
    95   169   170    2
    96   169   168    1
    97   155   152    1
    98   141   142    1
    99   141   140    1
   100   142   151   am
   101   172   171    1
   102   130   124    1
   103   151   152    1
   104    81    82    1
   105   152   153    1
   106   128   125    1
   107   171   168    1
   108    95    94    1
   109   135   132    1
   110   165   164    1
   111   168   167    1
   112    94    91    1
   113   166   164    1
   114    63    62    1
   115    82    83    1
   116    82    85    1
   117    84    83    2
   118    91    90    1
   119    91    92    1
   120    83    90   am
   121   124   125    1
   122   124   122   am
   123   164   163    1
   124   132   131    1
   125   132   133    1
   126   125   126    1
   127   153   154    2
   128   121   122    1
   129   121   120    1
   130    62    64    1
   131    62    59    1
   132    61    60    2
   133   122   123    2
   134   101   100    2
   135    85    86    1
   136    92    98   am
   137    92    93    2
   138    98    99    1
   139   106   105    2
   140   133   134    2
   141   126   127    2
   142    86    87    1
   143    60    59    1
   144   163   160    1
   145   120   114   am
   146    59    58    1
   147   108   109    1
   148   108   107    1
   149   104   105    1
   150   104   107    1
   151   104   103    1
   152   115   114    2
   153   100    99    1
   154   100   103   am
   155   110   109   ar
   156   105   112   am
   157   109   111   ar
   158   114   113    1
   159   160   159    1
   160   160   161    1
   161    99   102    1
   162    87    89   ar
   163    87    88   ar
   164   112   113    1
   165   113   116    1
   166   161   162    2
   167   116   117    1
   168   119   117    1
   169   117   118    1
