@<TRIPOS>MOLECULE
tmp/4yjrA00.pdb
 141 131 0 0 0
SMALL
GASTEIGER

@<TRIPOS>ATOM
      1  N         38.5370   43.1830   26.6530 N.3    14  LEU14      -0.1245
      2  CA        38.6940   42.6210   27.9880 C.3    14  LEU14       0.1561
      3  C         39.1580   41.1730   27.8970 C.2    14  LEU14       0.2260
      4  O         40.3580   40.9130   27.9140 O.2    14  LEU14      -0.2867
      5  CB        37.3380   42.7130   28.6890 C.3    14  LEU14       0.0270
      6  CG        37.3000   42.4170   30.1710 C.3    14  LEU14       0.0019
      7  CD1       37.8710   43.5710   30.9690 C.3    14  LEU14       0.0001
      8  CD2       35.8780   42.1460   30.6230 C.3    14  LEU14       0.0001
      9  N         35.1160   40.6760   23.7940 N.3    17  VAL17      -0.1245
     10  CA        34.6410   40.9130   25.1610 C.3    17  VAL17       0.1561
     11  C         35.0220   42.3240   25.5250 C.2    17  VAL17       0.2260
     12  O         36.2050   42.6700   25.4140 O.2    17  VAL17      -0.2867
     13  CB        35.2130   39.9020   26.1740 C.3    17  VAL17       0.0252
     14  CG1       34.6000   40.1110   27.5540 C.3    17  VAL17       0.0019
     15  CG2       34.9620   38.4740   25.7050 C.3    17  VAL17       0.0019
     16  N         30.1610   43.4020   31.8410 N.3    32  ALA32      -0.1245
     17  CA        31.0500   42.7240   30.8970 C.3    32  ALA32       0.1562
     18  C         30.1820   42.1880   29.7890 C.2    32  ALA32       0.2260
     19  O         29.0890   41.6850   30.0490 O.2    32  ALA32      -0.2867
     20  CB        31.7950   41.6070   31.5870 C.3    32  ALA32       0.0290
     21  N         29.8070   40.1400   25.9980 N.3    34  LYS34      -0.1245
     22  CA        30.2660   39.3190   24.8850 C.3    34  LYS34       0.1561
     23  C         29.5780   39.8340   23.6500 C.2    34  LYS34       0.2260
     24  O         28.3750   40.0210   23.6610 O.2    34  LYS34      -0.2867
     25  CB        29.9610   37.8430   25.1000 C.3    34  LYS34       0.0271
     26  CG        31.0500   37.1750   25.8730 C.3    34  LYS34       0.0035
     27  CD        30.8540   35.7070   25.9530 C.3    34  LYS34       0.0206
     28  CE        31.9380   35.1200   26.8260 C.3    34  LYS34       0.1093
     29  NZ        31.9970   33.6530   26.7100 N.3    34  LYS34      -0.1314
     30  N         23.1990   29.9880   26.9940 N.3    52  GLU52      -0.1245
     31  CA        23.7220   30.4770   28.2420 C.3    52  GLU52       0.1567
     32  C         22.7450   31.4740   28.8580 C.2    52  GLU52       0.2260
     33  O         22.4310   31.4070   30.0520 O.2    52  GLU52      -0.2867
     34  CB        25.0860   31.1330   27.9810 C.3    52  GLU52       0.0388
     35  CG        25.6840   31.7100   29.2430 C.3    52  GLU52       0.1160
     36  CD        27.1090   32.2230   29.1420 C.2    52  GLU52       0.3649
     37  OE1       27.4750   32.8360   28.1190 O.co2  52  GLU52      -0.2457
     38  OE2       27.8530   32.0620   30.1340 O.co2  52  GLU52      -0.2457
     39  N         21.0280   31.2540   32.5120 N.3    56  MET56      -0.1245
     40  CA        21.3760   32.2350   33.5290 C.3    56  MET56       0.1570
     41  C         20.1330   33.0780   33.9180 C.2    56  MET56       0.2261
     42  O         20.0230   33.4500   35.1080 O.2    56  MET56      -0.2867
     43  CB        22.6480   33.0550   33.1040 C.3    56  MET56       0.0387
     44  CG        23.9170   32.1590   33.0710 C.3    56  MET56       0.0595
     45  SD        25.3820   33.0240   32.4820 S.3    56  MET56      -0.1393
     46  CE        25.9960   33.6740   34.0130 C.3    56  MET56       0.0692
     47  N         27.3650   34.5020   38.4770 N.3    65  VAL65      -0.1245
     48  CA        27.2930   35.7580   37.7450 C.3    65  VAL65       0.1561
     49  C         25.8520   36.0110   37.3150 C.2    65  VAL65       0.2260
     50  O         25.1860   35.1130   36.7810 O.2    65  VAL65      -0.2867
     51  CB        28.2420   35.7470   36.5160 C.3    65  VAL65       0.0252
     52  CG1       28.0010   36.9220   35.5670 C.3    65  VAL65       0.0019
     53  CG2       29.7010   35.7860   36.9800 C.3    65  VAL65       0.0019
     54  N         25.6950   40.0320   24.7850 N.3    78  LEU78      -0.1245
     55  CA        25.2300   39.3800   26.0040 C.3    78  LEU78       0.1561
     56  C         25.9050   40.1280   27.1590 C.2    78  LEU78       0.2260
     57  O         27.1360   40.1230   27.2580 O.2    78  LEU78      -0.2867
     58  CB        25.5800   37.8920   25.9670 C.3    78  LEU78       0.0270
     59  CG        25.2130   37.1170   27.2280 C.3    78  LEU78       0.0019
     60  CD1       23.7150   37.2600   27.5650 C.3    78  LEU78       0.0001
     61  CD2       25.5460   35.6340   27.0720 C.3    78  LEU78       0.0001
     62  N         26.5010   41.0190   31.1780 N.3    80  MET80      -0.1230
     63  CA        26.5410   40.4810   32.5270 C.3    80  MET80       0.1702
     64  C         27.0140   41.5200   33.5320 C.2    80  MET80       0.2592
     65  O         27.7920   42.4090   33.1880 O.2    80  MET80      -0.2718
     66  CB        27.5420   39.3240   32.5550 C.3    80  MET80       0.0401
     67  CG        27.1460   38.1580   31.6520 C.3    80  MET80       0.0596
     68  SD        25.8600   37.0970   32.3360 S.3    80  MET80      -0.1393
     69  CE        25.1310   36.3180   30.8290 C.3    80  MET80       0.0692
     70  N         26.6310   41.3650   34.8040 N.am   81  GLU81      -0.1966
     71  CA        27.2580   42.1650   35.8420 C.3    81  GLU81       0.1733
     72  C         28.7180   41.7790   35.8490 C.2    81  GLU81       0.2616
     73  O         29.0120   40.5780   35.7890 O.2    81  GLU81      -0.2715
     74  CB        26.6440   41.8640   37.2050 C.3    81  GLU81       0.0429
     75  CG        25.2310   42.3690   37.3450 C.3    81  GLU81       0.1163
     76  CD        24.6480   42.1710   38.7230 C.2    81  GLU81       0.3649
     77  OE1       25.3070   41.5110   39.5560 O.co2  81  GLU81      -0.2457
     78  OE2       23.5160   42.6530   38.9570 O.co2  81  GLU81      -0.2457
     79  N         29.6360   42.7540   35.9020 N.am   82  MET82      -0.1963
     80  CA        31.0420   42.4420   35.8410 C.3    82  MET82       0.1736
     81  C         31.6380   42.0670   37.1920 C.2    82  MET82       0.2616
     82  O         31.4940   42.7930   38.1740 O.2    82  MET82      -0.2715
     83  CB        31.8470   43.5870   35.2020 C.3    82  MET82       0.0427
     84  CG        33.2880   43.2000   34.8880 C.3    82  MET82       0.0599
     85  SD        34.0070   44.5250   33.9240 S.3    82  MET82      -0.1393
     86  CE        35.6820   43.9650   33.8600 C.3    82  MET82       0.0692
     87  N         32.3920   40.9520   37.2220 N.am   83  ALA83      -0.1963
     88  CA        33.2200   40.5470   38.3480 C.3    83  ALA83       0.1728
     89  C         34.5960   41.0250   37.9270 C.2    83  ALA83       0.2616
     90  O         35.2560   40.3940   37.0740 O.2    83  ALA83      -0.2715
     91  CB        33.1330   39.0470   38.5470 C.3    83  ALA83       0.0334
     92  N         34.9860   42.2000   38.4180 N.am   84  GLU84      -0.1963
     93  CA        36.0640   42.9360   37.7890 C.3    84  GLU84       0.1733
     94  C         37.4470   42.3930   37.9550 C.2    84  GLU84       0.2616
     95  O         38.2790   42.6810   37.0850 O.2    84  GLU84      -0.2715
     96  CB        35.9900   44.3980   38.1820 C.3    84  GLU84       0.0429
     97  CG        34.6750   45.0400   37.7300 C.3    84  GLU84       0.1163
     98  CD        34.5150   46.5040   38.0690 C.2    84  GLU84       0.3649
     99  OE1       35.5230   47.2260   37.9340 O.co2  84  GLU84      -0.2457
    100  OE2       33.3950   46.9330   38.4470 O.co2  84  GLU84      -0.2457
    101  N         37.7350   41.6100   38.9860 N.am   85  LEU85      -0.1963
    102  CA        39.0900   41.0700   39.1060 C.3    85  LEU85       0.1728
    103  C         39.3520   39.9390   38.1110 C.2    85  LEU85       0.2617
    104  O         40.5160   39.5880   37.9050 O.2    85  LEU85      -0.2715
    105  CB        39.3650   40.6300   40.5200 C.3    85  LEU85       0.0311
    106  CG        39.6040   41.7510   41.5120 C.3    85  LEU85       0.0022
    107  CD1       39.7980   41.1780   42.8770 C.3    85  LEU85       0.0001
    108  CD2       40.8180   42.5850   41.1260 C.3    85  LEU85       0.0001
    109  N         38.3110   39.3600   37.5300 N.am   86  GLY86      -0.1941
    110  CA        38.4970   38.4010   36.4770 C.3    86  GLY86       0.1998
    111  C         38.7620   36.9820   36.8990 C.2    86  GLY86       0.2480
    112  O         38.5660   36.6220   38.0580 O.2    86  GLY86      -0.2729
    113  N         39.2560   36.1900   35.9410 N.am   87  PRO87      -0.2726
    114  CA        39.4400   34.7560   36.1950 C.3    87  PRO87       0.1402
    115  C         40.3610   34.4140   37.3480 C.2    87  PRO87       0.2269
    116  O         41.4430   34.9820   37.5030 O.2    87  PRO87      -0.2865
    117  CB        39.9920   34.2280   34.8680 C.3    87  PRO87       0.0296
    118  CG        39.4950   35.1860   33.8390 C.3    87  PRO87       0.0237
    119  CD        39.5060   36.5270   34.5220 C.3    87  PRO87       0.0939
    120  N         35.0850   33.8200   38.4120 N.3   133  LEU133     -0.1245
    121  CA        35.4400   35.2140   38.2630 C.3   133  LEU133      0.1561
    122  C         35.3770   35.9060   39.6030 C.2   133  LEU133      0.2260
    123  O         34.4320   35.7070   40.3700 O.2   133  LEU133     -0.2867
    124  CB        34.5290   35.8910   37.2530 C.3   133  LEU133      0.0270
    125  CG        34.4470   35.1980   35.9020 C.3   133  LEU133      0.0019
    126  CD1       33.5700   35.9590   34.9770 C.3   133  LEU133      0.0001
    127  CD2       35.8340   34.9800   35.2550 C.3   133  LEU133      0.0001
    128  N         30.8840   31.4030   36.4560 N.3   143  SER143     -0.1202
    129  CA        30.5270   31.9770   35.1670 C.3   143  SER143      0.2020
    130  C         30.5260   30.8760   34.0950 C.2   143  SER143      0.2618
    131  O         30.8240   29.7110   34.3730 O.2   143  SER143     -0.2717
    132  CB        31.5220   33.0740   34.8030 C.3   143  SER143      0.2103
    133  OG        32.7790   32.5290   34.4470 O.3   143  SER143     -0.2182
    134  N         30.2690   31.2730   32.8690 N.am  144  ASP144     -0.1973
    135  CA        30.3800   30.4750   31.6350 C.3   144  ASP144      0.1709
    136  C         29.4550   29.2600   31.6620 C.2   144  ASP144      0.2293
    137  O         29.8770   28.1220   31.8830 O.2   144  ASP144     -0.2864
    138  CB        31.8170   30.0360   31.3330 C.3   144  ASP144      0.1436
    139  CG        31.9140   29.4040   29.9440 C.2   144  ASP144      0.3671
    140  OD1       30.8400   29.2880   29.2400 O.co2 144  ASP144     -0.2456
    141  OD2       33.0490   29.1180   29.5040 O.co2 144  ASP144     -0.2456
@<TRIPOS>BOND
     1    23    24    2
     2    23    22    1
     3     9    10    1
     4    54    55    1
     5    22    25    1
     6    22    21    1
     7    25    26    1
     8    10    11    1
     9    10    13    1
    10    12    11    2
    11    15    13    1
    12    26    27    1
    13    27    28    1
    14    58    55    1
    15    58    59    1
    16    55    56    1
    17    13    14    1
    18     1     2    1
    19    29    28    1
    20    30    31    1
    21    61    59    1
    22    56    57    2
    23    59    60    1
    24     3     4    2
    25     3     2    1
    26    34    31    1
    27    34    35    1
    28     2     5    1
    29    37    36   ar
    30    31    32    1
    31     5     6    1
    32    32    33    2
    33    36    35    1
    34    36    38   ar
    35   140   139   ar
    36   141   139   ar
    37    18    19    2
    38    18    17    1
    39   139   138    1
    40     6     8    1
    41     6     7    1
    42    69    68    1
    43    17    20    1
    44    17    16    1
    45    62    63    1
    46   138   135    1
    47   135   136    1
    48   135   134    1
    49    67    68    1
    50    67    66    1
    51   136   137    2
    52    45    44    1
    53    45    46    1
    54    39    40    1
    55    63    66    1
    56    63    64    1
    57   134   130   am
    58    44    43    1
    59    43    40    1
    60    65    64    2
    61    40    41    1
    62    64    70   am
    63   118   119    1
    64   118   117    1
    65    86    85    1
    66    41    42    2
    67    85    84    1
    68   130   131    2
    69   130   129    1
    70   133   132    1
    71   119   113    1
    72   132   129    1
    73    70    71    1
    74   117   114    1
    75    84    83    1
    76   126   125    1
    77   129   128    1
    78    83    80    1
    79   127   125    1
    80    52    51    1
    81    73    72    2
    82    80    79    1
    83    80    81    1
    84    71    72    1
    85    71    74    1
    86    72    79   am
    87   125   124    1
    88   113   114    1
    89   113   111   am
    90   114   115    1
    91   110   111    1
    92   110   109    1
    93    51    53    1
    94    51    48    1
    95    50    49    2
    96   111   112    2
    97    90    89    2
    98    95    94    2
    99    81    87   am
   100    81    82    2
   101    74    75    1
   102    87    88    1
   103   124   121    1
   104    49    48    1
   105    75    76    1
   106   115   116    2
   107   109   103   am
   108    97    98    1
   109    97    96    1
   110    48    47    1
   111    93    94    1
   112    93    96    1
   113    93    92    1
   114   104   103    2
   115    89    88    1
   116    89    92   am
   117    99    98   ar
   118    94   101   am
   119    98   100   ar
   120   103   102    1
   121   121   120    1
   122   121   122    1
   123    88    91    1
   124    76    78   ar
   125    76    77   ar
   126   101   102    1
   127   102   105    1
   128   122   123    2
   129   105   106    1
   130   108   106    1
   131   106   107    1
