@<TRIPOS>MOLECULE
tmp/4yjsA00.pdb
 141 131 0 0 0
SMALL
GASTEIGER

@<TRIPOS>ATOM
      1  N         16.8220  -46.1570   37.2520 N.3    14  LEU14      -0.1245
      2  CA        18.0390  -45.5440   37.7280 C.3    14  LEU14       0.1561
      3  C         17.7790  -44.0840   38.0610 C.2    14  LEU14       0.2260
      4  O         17.2070  -43.7640   39.1010 O.2    14  LEU14      -0.2867
      5  CB        19.0850  -45.6530   36.6260 C.3    14  LEU14       0.0270
      6  CG        20.5500  -45.7090   37.0360 C.3    14  LEU14       0.0019
      7  CD1       20.8730  -47.1170   37.5370 C.3    14  LEU14       0.0001
      8  CD2       21.4300  -45.3140   35.8610 C.3    14  LEU14       0.0001
      9  N         14.9960  -42.9640   33.6540 N.3    17  VAL17      -0.1245
     10  CA        16.3720  -43.2910   33.3400 C.3    17  VAL17       0.1561
     11  C         16.5900  -44.7670   33.6520 C.2    17  VAL17       0.2260
     12  O         16.1580  -45.2490   34.7010 O.2    17  VAL17      -0.2867
     13  CB        17.3680  -42.3980   34.1070 C.3    17  VAL17       0.0252
     14  CG1       18.8180  -42.8610   33.8990 C.3    17  VAL17       0.0019
     15  CG2       17.2020  -40.9560   33.6570 C.3    17  VAL17       0.0019
     16  N         23.8060  -45.8640   30.0410 N.3    32  ALA32      -0.1245
     17  CA        22.7620  -45.2390   30.8560 C.3    32  ALA32       0.1562
     18  C         21.8690  -44.6310   29.8220 C.2    32  ALA32       0.2260
     19  O         22.3850  -44.0320   28.8670 O.2    32  ALA32      -0.2867
     20  CB        23.3300  -44.1500   31.7530 C.3    32  ALA32       0.0290
     21  N         18.2280  -42.3460   28.8310 N.3    34  LYS34      -0.1245
     22  CA        17.1090  -41.4440   29.0750 C.3    34  LYS34       0.1561
     23  C         16.0660  -41.9410   28.0970 C.2    34  LYS34       0.2260
     24  O         16.3500  -42.0740   26.9060 O.2    34  LYS34      -0.2867
     25  CB        17.4520  -39.9570   28.7990 C.3    34  LYS34       0.0271
     26  CG        18.1080  -39.1840   29.9620 C.3    34  LYS34       0.0035
     27  CD        18.5040  -37.7450   29.5820 C.3    34  LYS34       0.0206
     28  CE        19.2300  -36.9820   30.7090 C.3    34  LYS34       0.1093
     29  NZ        19.6890  -35.5730   30.3780 N.3    34  LYS34      -0.1314
     30  N         20.6680  -31.8070   23.3340 N.3    45  GLU45      -0.1245
     31  CA        21.7460  -32.4880   24.0040 C.3    45  GLU45       0.1567
     32  C         22.4300  -33.4930   23.0910 C.2    45  GLU45       0.2260
     33  O         23.6420  -33.6070   23.1340 O.2    45  GLU45      -0.2867
     34  CB        21.2530  -33.2100   25.2600 C.3    45  GLU45       0.0388
     35  CG        22.3590  -33.9570   25.9740 C.3    45  GLU45       0.1160
     36  CD        21.9860  -34.4500   27.3770 C.2    45  GLU45       0.3649
     37  OE1       20.8100  -34.7870   27.6150 O.co2  45  GLU45      -0.2457
     38  OE2       22.8930  -34.5180   28.2400 O.co2  45  GLU45      -0.2457
     39  N         26.4360  -33.2750   21.9930 N.3    49  MET49      -0.1245
     40  CA        27.3500  -34.3270   22.4530 C.3    49  MET49       0.1570
     41  C         27.8970  -35.2150   21.3430 C.2    49  MET49       0.2261
     42  O         28.8630  -35.9380   21.5490 O.2    49  MET49      -0.2867
     43  CB        26.7080  -35.1490   23.5870 C.3    49  MET49       0.0387
     44  CG        26.4690  -34.2770   24.8260 C.3    49  MET49       0.0595
     45  SD        25.7510  -35.0700   26.2750 S.3    49  MET49      -0.1393
     46  CE        27.2280  -35.7510   27.0530 C.3    49  MET49       0.0692
     47  N         30.9990  -36.9710   29.3380 N.3    58  VAL58      -0.1245
     48  CA        30.2850  -38.2320   29.0720 C.3    58  VAL58       0.1561
     49  C         30.0760  -38.4020   27.5640 C.2    58  VAL58       0.2260
     50  O         29.6620  -37.4710   26.8620 O.2    58  VAL58      -0.2867
     51  CB        28.9260  -38.2990   29.8190 C.3    58  VAL58       0.0252
     52  CG1       27.9970  -39.3520   29.2290 C.3    58  VAL58       0.0019
     53  CG2       29.1520  -38.5370   31.3070 C.3    58  VAL58       0.0019
     54  N         17.9650  -41.8530   24.4820 N.3    71  LEU71      -0.1245
     55  CA        19.2920  -41.2520   24.3430 C.3    71  LEU71       0.1561
     56  C         20.2390  -42.1020   25.1750 C.2    71  LEU71       0.2260
     57  O         20.1110  -42.1740   26.4020 O.2    71  LEU71      -0.2867
     58  CB        19.2990  -39.7970   24.8220 C.3    71  LEU71       0.0270
     59  CG        20.6200  -39.0430   24.6260 C.3    71  LEU71       0.0019
     60  CD1       21.1760  -39.1380   23.1980 C.3    71  LEU71       0.0001
     61  CD2       20.4730  -37.5910   25.0670 C.3    71  LEU71       0.0001
     62  N         23.9990  -43.1610   26.4720 N.3    73  MET73      -0.1230
     63  CA        25.3390  -42.6920   26.8220 C.3    73  MET73       0.1702
     64  C         26.1620  -43.8420   27.4250 C.2    73  MET73       0.2592
     65  O         25.6100  -44.7890   27.9290 O.2    73  MET73      -0.2718
     66  CB        25.2670  -41.5990   27.9080 C.3    73  MET73       0.0401
     67  CG        24.3080  -40.4580   27.6290 C.3    73  MET73       0.0596
     68  SD        24.5580  -39.5130   26.1000 S.3    73  MET73      -0.1393
     69  CE        26.0010  -38.6020   26.6100 C.3    73  MET73       0.0692
     70  N         27.4860  -43.7250   27.4000 N.am   74  GLU74      -0.1966
     71  CA        28.3310  -44.6440   28.1570 C.3    74  GLU74       0.1733
     72  C         28.0170  -44.4090   29.6620 C.2    74  GLU74       0.2616
     73  O         27.7370  -43.2920   30.0760 O.2    74  GLU74      -0.2715
     74  CB        29.8030  -44.3960   27.8690 C.3    74  GLU74       0.0429
     75  CG        30.1720  -42.9560   28.1430 C.3    74  GLU74       0.1163
     76  CD        31.6410  -42.7260   28.3690 C.2    74  GLU74       0.3649
     77  OE1       32.4640  -43.6130   27.9540 O.co2  74  GLU74      -0.2457
     78  OE2       31.9180  -41.6220   28.9200 O.co2  74  GLU74      -0.2457
     79  N         28.0580  -45.4640   30.4620 N.am   75  MET75      -0.1963
     80  CA        27.6610  -45.3800   31.8560 C.3    75  MET75       0.1736
     81  C         28.8160  -44.8590   32.7330 C.2    75  MET75       0.2616
     82  O         29.9380  -45.3510   32.6430 O.2    75  MET75      -0.2715
     83  CB        27.1420  -46.7490   32.3330 C.3    75  MET75       0.0427
     84  CG        26.9120  -46.9010   33.8190 C.3    75  MET75       0.0599
     85  SD        25.7400  -45.7250   34.5010 S.3    75  MET75      -0.1393
     86  CE        24.1920  -46.6000   34.2450 C.3    75  MET75       0.0692
     87  N         28.5300  -43.8100   33.5190 N.am   76  ALA76      -0.1963
     88  CA        29.4130  -43.3490   34.5830 C.3    76  ALA76       0.1728
     89  C         28.7880  -43.9670   35.8310 C.2    76  ALA76       0.2616
     90  O         27.8340  -43.4140   36.4170 O.2    76  ALA76      -0.2715
     91  CB        29.4700  -41.8250   34.6720 C.3    76  ALA76       0.0334
     92  N         29.3650  -45.0960   36.2270 N.am   77  GLU77      -0.1963
     93  CA        28.7910  -46.0220   37.2050 C.3    77  GLU77       0.1733
     94  C         28.4590  -45.4860   38.5920 C.2    77  GLU77       0.2616
     95  O         27.5280  -45.9650   39.2100 O.2    77  GLU77      -0.2715
     96  CB        29.7180  -47.2380   37.3620 C.3    77  GLU77       0.0429
     97  CG        29.9730  -48.0270   36.0650 C.3    77  GLU77       0.1163
     98  CD        28.8270  -48.9390   35.6350 C.2    77  GLU77       0.3649
     99  OE1       27.7970  -49.0440   36.3520 O.co2  77  GLU77      -0.2457
    100  OE2       28.9710  -49.5470   34.5520 O.co2  77  GLU77      -0.2457
    101  N         29.2050  -44.4960   39.0760 N.am   78  LEU78      -0.1963
    102  CA        29.0390  -44.0340   40.4440 C.3    78  LEU78       0.1728
    103  C         28.0520  -42.8680   40.5700 C.2    78  LEU78       0.2617
    104  O         27.6470  -42.5170   41.6700 O.2    78  LEU78      -0.2715
    105  CB        30.4120  -43.6650   41.0630 C.3    78  LEU78       0.0311
    106  CG        31.4550  -44.7840   41.1930 C.3    78  LEU78       0.0022
    107  CD1       32.4980  -44.3900   42.2260 C.3    78  LEU78       0.0001
    108  CD2       30.8290  -46.0920   41.5980 C.3    78  LEU78       0.0001
    109  N         27.6910  -42.2540   39.4510 N.am   79  GLY79      -0.1941
    110  CA        26.6490  -41.2480   39.4700 C.3    79  GLY79       0.1998
    111  C         27.0710  -39.8630   39.8850 C.2    79  GLY79       0.2480
    112  O         28.2680  -39.5710   40.0060 O.2    79  GLY79      -0.2729
    113  N         26.0790  -38.9860   40.1090 N.am   80  PRO80      -0.2726
    114  CA        26.3740  -37.5690   40.3630 C.3    80  PRO80       0.1402
    115  C         27.3170  -37.3390   41.5400 C.2    80  PRO80       0.2269
    116  O         27.2370  -38.0280   42.5700 O.2    80  PRO80      -0.2865
    117  CB        24.9960  -36.9680   40.6410 C.3    80  PRO80       0.0296
    118  CG        24.0350  -37.8820   39.9790 C.3    80  PRO80       0.0237
    119  CD        24.6330  -39.2470   40.1070 C.3    80  PRO80       0.0939
    120  N         29.4190  -36.5660   36.7300 N.3   126  LEU126     -0.1245
    121  CA        29.1730  -37.9620   37.0380 C.3   126  LEU126      0.1561
    122  C         30.5130  -38.6440   37.2700 C.2   126  LEU126      0.2260
    123  O         31.4970  -38.3300   36.5740 O.2   126  LEU126     -0.2867
    124  CB        28.4450  -38.6110   35.8710 C.3   126  LEU126      0.0270
    125  CG        27.1020  -38.0050   35.4380 C.3   126  LEU126      0.0019
    126  CD1       26.5510  -38.8020   34.2670 C.3   126  LEU126      0.0001
    127  CD2       26.1090  -37.9720   36.5980 C.3   126  LEU126      0.0001
    128  N         28.4370  -33.9020   32.4750 N.3   136  SER136     -0.1202
    129  CA        27.2570  -34.4620   31.8500 C.3   136  SER136      0.2020
    130  C         26.1970  -33.3770   31.6640 C.2   136  SER136      0.2618
    131  O         26.4580  -32.1950   31.9160 O.2   136  SER136     -0.2717
    132  CB        26.6920  -35.5520   32.7520 C.3   136  SER136      0.2103
    133  OG        26.2100  -34.9490   33.9300 O.3   136  SER136     -0.2182
    134  N         25.0140  -33.8080   31.2180 N.am  137  ASP137     -0.1973
    135  CA        23.8030  -32.9880   31.1160 C.3   137  ASP137      0.1709
    136  C         23.9820  -31.6880   30.3030 C.2   137  ASP137      0.2293
    137  O         24.0150  -30.5850   30.8510 O.2   137  ASP137     -0.2864
    138  CB        23.1960  -32.7430   32.5180 C.3   137  ASP137      0.1436
    139  CG        22.4480  -34.0090   33.0950 C.2   137  ASP137      0.3671
    140  OD1       23.0880  -34.9010   33.7280 O.co2 137  ASP137     -0.2456
    141  OD2       21.2120  -34.1000   32.9290 O.co2 137  ASP137     -0.2456
@<TRIPOS>BOND
     1    41    42    2
     2    41    40    1
     3    39    40    1
     4    40    43    1
     5    32    33    2
     6    32    31    1
     7    60    59    1
     8    30    31    1
     9    43    44    1
    10    31    34    1
    11    55    54    1
    12    55    58    1
    13    55    56    1
    14    59    58    1
    15    59    61    1
    16    44    45    1
    17    56    57    2
    18    34    35    1
    19    35    36    1
    20    68    69    1
    21    68    67    1
    22    45    46    1
    23    62    63    1
    24    63    64    1
    25    63    66    1
    26    50    49    2
    27    24    23    2
    28    36    37   ar
    29    36    38   ar
    30    70    64   am
    31    70    71    1
    32    64    65    2
    33    49    48    1
    34    67    66    1
    35    74    75    1
    36    74    71    1
    37    77    76   ar
    38    23    22    1
    39    75    76    1
    40    71    72    1
    41    76    78   ar
    42    25    22    1
    43    25    26    1
    44    21    22    1
    45    19    18    2
    46    48    47    1
    47    48    51    1
    48    52    51    1
    49    27    26    1
    50    27    28    1
    51    72    73    2
    52    72    79   am
    53    51    53    1
    54    18    17    1
    55    16    17    1
    56   136   137    2
    57   136   135    1
    58    29    28    1
    59    79    80    1
    60    17    20    1
    61   135   134    1
    62   135   138    1
    63   134   130   am
    64   130   129    1
    65   130   131    2
    66   129   128    1
    67   129   132    1
    68    80    83    1
    69    80    81    1
    70    83    84    1
    71   138   139    1
    72    82    81    2
    73    81    87   am
    74   132   133    1
    75   141   139   ar
    76   139   140   ar
    77    10    11    1
    78    10     9    1
    79    10    13    1
    80    87    88    1
    81    11    12    2
    82    15    13    1
    83    84    85    1
    84    14    13    1
    85    86    85    1
    86   126   125    1
    87   100    98   ar
    88    88    91    1
    89    88    89    1
    90   125   124    1
    91   125   127    1
    92    98    97    1
    93    98    99   ar
    94    89    92   am
    95    89    90    2
    96     8     6    1
    97   124   121    1
    98    97    96    1
    99    92    93    1
   100   123   122    2
   101     5     6    1
   102     5     2    1
   103   120   121    1
   104     6     7    1
   105   121   122    1
   106    93    96    1
   107    93    94    1
   108     1     2    1
   109     2     3    1
   110     3     4    2
   111    94   101   am
   112    94    95    2
   113   101   102    1
   114   109   110    1
   115   109   103   am
   116   110   111    1
   117   111   112    2
   118   111   113   am
   119   118   119    1
   120   118   117    1
   121   119   113    1
   122   113   114    1
   123   114   117    1
   124   114   115    1
   125   102   103    1
   126   102   105    1
   127   103   104    2
   128   105   106    1
   129   106   108    1
   130   106   107    1
   131   115   116    2
