@<TRIPOS>MOLECULE
tmp/4yjuA00.pdb
 144 136 0 0 0
SMALL
GASTEIGER

@<TRIPOS>ATOM
      1  N         39.3210   44.2720   27.3800 N.3    14  LEU14      -0.1231
      2  CA        39.6720   43.6960   28.6510 C.3    14  LEU14       0.1693
      3  C         40.3290   42.3260   28.3900 C.2    14  LEU14       0.2592
      4  O         41.2490   41.9080   29.1020 O.2    14  LEU14      -0.2718
      5  CB        38.3710   43.5680   29.4510 C.3    14  LEU14       0.0284
      6  CG        38.4140   43.4270   30.9440 C.3    14  LEU14       0.0019
      7  CD1       39.1680   44.5720   31.6230 C.3    14  LEU14       0.0001
      8  CD2       37.0120   43.3580   31.4630 C.3    14  LEU14       0.0001
      9  N         39.8510   41.6680   27.3410 N.am   15  GLY15      -0.1957
     10  CA        40.3150   40.3620   26.8970 C.3    15  GLY15       0.1869
     11  C         39.8010   40.0060   25.5140 C.2    15  GLY15       0.2309
     12  O         38.9570   40.7080   24.9360 O.2    15  GLY15      -0.2863
     13  N         36.1030   40.7890   24.9910 N.3    22  VAL22      -0.1245
     14  CA        35.5080   41.1370   26.2860 C.3    22  VAL22       0.1561
     15  C         35.8880   42.5670   26.5370 C.2    22  VAL22       0.2260
     16  O         37.0640   42.9230   26.4200 O.2    22  VAL22      -0.2867
     17  CB        35.9060   40.2230   27.4670 C.3    22  VAL22       0.0252
     18  CG1       35.2650   40.7160   28.7770 C.3    22  VAL22       0.0019
     19  CG2       35.5260   38.7630   27.1860 C.3    22  VAL22       0.0019
     20  N         31.0320   43.7770   32.4700 N.3    37  ALA37      -0.1231
     21  CA        31.9740   43.1000   31.5800 C.3    37  ALA37       0.1694
     22  C         31.1080   42.5380   30.4740 C.2    37  ALA37       0.2592
     23  O         30.0350   41.9540   30.7370 O.2    37  ALA37      -0.2718
     24  CB        32.7530   42.0140   32.3240 C.3    37  ALA37       0.0304
     25  N         31.4750   42.8530   29.2270 N.am   38  VAL38      -0.1966
     26  CA        30.6160   42.5360   28.0890 C.3    38  VAL38       0.1727
     27  C         31.3220   41.6200   27.1190 C.2    38  VAL38       0.2616
     28  O         32.4090   41.9540   26.6470 O.2    38  VAL38      -0.2715
     29  CB        30.1760   43.8590   27.3990 C.3    38  VAL38       0.0290
     30  CG1       29.2330   43.6030   26.2260 C.3    38  VAL38       0.0023
     31  CG2       29.5240   44.7980   28.4000 C.3    38  VAL38       0.0023
     32  N         30.7040   40.4500   26.8250 N.am   39  LYS39      -0.1977
     33  CA        31.2480   39.5130   25.8260 C.3    39  LYS39       0.1596
     34  C         30.6470   39.8980   24.4690 C.2    39  LYS39       0.2287
     35  O         29.4260   39.9430   24.3370 O.2    39  LYS39      -0.2864
     36  CB        30.9130   38.0660   26.2360 C.3    39  LYS39       0.0298
     37  CG        31.3420   37.0180   25.2220 C.3    39  LYS39       0.0038
     38  CD        31.2060   35.6440   25.8350 C.3    39  LYS39       0.0206
     39  CE        31.3960   34.5600   24.8060 C.3    39  LYS39       0.1093
     40  NZ        31.2470   33.2040   25.4020 N.3    39  LYS39      -0.1314
     41  N         23.6420   30.4390   26.8760 N.3    57  GLU57      -0.1245
     42  CA        24.2970   30.8760   28.1040 C.3    57  GLU57       0.1567
     43  C         23.4130   31.8930   28.8370 C.2    57  GLU57       0.2260
     44  O         23.2070   31.7570   30.0550 O.2    57  GLU57      -0.2867
     45  CB        25.6600   31.4620   27.7560 C.3    57  GLU57       0.0388
     46  CG        26.4520   31.8540   28.9780 C.3    57  GLU57       0.1160
     47  CD        27.7630   32.4960   28.6070 C.2    57  GLU57       0.3649
     48  OE1       28.1990   32.3850   27.4400 O.co2  57  GLU57      -0.2457
     49  OE2       28.3570   33.1110   29.5080 O.co2  57  GLU57      -0.2457
     50  N         28.2630   34.6640   38.8830 N.3    70  VAL70      -0.1245
     51  CA        28.2290   36.0010   38.2710 C.3    70  VAL70       0.1561
     52  C         26.7950   36.3010   37.7950 C.2    70  VAL70       0.2260
     53  O         26.1480   35.4370   37.2100 O.2    70  VAL70      -0.2867
     54  CB        29.2670   36.1250   37.1240 C.3    70  VAL70       0.0252
     55  CG1       29.1530   37.4870   36.4250 C.3    70  VAL70       0.0019
     56  CG2       30.6910   35.9550   37.6610 C.3    70  VAL70       0.0019
     57  N         26.7450   39.9280   25.5060 N.3    83  LEU83      -0.1245
     58  CA        26.2700   39.3850   26.7860 C.3    83  LEU83       0.1561
     59  C         26.8780   40.2400   27.8940 C.2    83  LEU83       0.2260
     60  O         28.1030   40.3320   28.0070 O.2    83  LEU83      -0.2867
     61  CB        26.6530   37.8980   26.8980 C.3    83  LEU83       0.0270
     62  CG        26.2150   37.1370   28.1520 C.3    83  LEU83       0.0019
     63  CD1       24.7250   37.3320   28.4630 C.3    83  LEU83       0.0001
     64  CD2       26.4680   35.6750   27.9730 C.3    83  LEU83       0.0001
     65  N         27.4510   41.2720   31.7530 N.3    85  MET85      -0.1230
     66  CA        27.4830   40.7450   33.1180 C.3    85  MET85       0.1702
     67  C         27.9590   41.7590   34.1110 C.2    85  MET85       0.2595
     68  O         28.6760   42.6790   33.7420 O.2    85  MET85      -0.2718
     69  CB        28.4770   39.5630   33.1890 C.3    85  MET85       0.0401
     70  CG        28.2900   38.5030   32.1260 C.3    85  MET85       0.0596
     71  SD        26.7390   37.6290   32.2860 S.3    85  MET85      -0.1393
     72  CE        26.9810   36.8900   33.6390 C.3    85  MET85       0.0692
     73  N         27.6210   41.5830   35.3960 N.am   86  GLU86      -0.1920
     74  CA        28.1240   42.4550   36.4550 C.3    86  GLU86       0.1949
     75  C         29.6500   42.2550   36.5350 C.2    86  GLU86       0.2659
     76  O         30.0900   41.1150   36.6090 O.2    86  GLU86      -0.2711
     77  CB        27.4230   42.1080   37.7830 C.2    86  GLU86       0.0111
     78  CG        27.9840   42.8030   39.0170 C.2    86  GLU86       0.0838
     79  CD        27.2910   42.4880   40.3320 C.2    86  GLU86       0.3877
     80  OE1       26.7180   41.3820   40.4560 O.co2  86  GLU86      -0.2406
     81  OE2       27.3530   43.3300   41.2580 O.co2  86  GLU86      -0.2406
     82  N         30.4440   43.3370   36.4670 N.am   87  MET87      -0.1960
     83  CA        31.9050   43.2580   36.4690 C.3    87  MET87       0.1737
     84  C         32.4770   42.6710   37.7540 C.2    87  MET87       0.2616
     85  O         32.2210   43.1910   38.8430 O.2    87  MET87      -0.2715
     86  CB        32.5030   44.6750   36.2510 C.3    87  MET87       0.0427
     87  CG        34.0110   44.7710   36.4640 C.3    87  MET87       0.0599
     88  SD        34.8660   43.8800   35.1480 S.3    87  MET87      -0.1393
     89  CE        34.9430   45.0250   34.1000 C.3    87  MET87       0.0692
     90  N         33.3300   41.6330   37.6110 N.am   88  ALA88      -0.1963
     91  CA        34.1260   41.1290   38.7280 C.3    88  ALA88       0.1728
     92  C         35.5110   41.7520   38.4800 C.2    88  ALA88       0.2616
     93  O         36.2500   41.2750   37.6160 O.2    88  ALA88      -0.2715
     94  CB        34.1500   39.6080   38.7270 C.3    88  ALA88       0.0334
     95  N         35.7920   42.8800   39.1360 N.am   89  GLU89      -0.1963
     96  CA        36.9650   43.7380   38.8850 C.3    89  GLU89       0.1733
     97  C         38.3180   43.0070   38.8350 C.2    89  GLU89       0.2616
     98  O         39.1470   43.3410   37.9870 O.2    89  GLU89      -0.2715
     99  CB        37.0530   44.8840   39.9130 C.3    89  GLU89       0.0429
    100  CG        35.8460   45.8220   39.9330 C.3    89  GLU89       0.1163
    101  CD        35.6590   46.8240   38.8010 C.2    89  GLU89       0.3649
    102  OE1       36.6220   47.0450   38.0380 O.co2  89  GLU89      -0.2457
    103  OE2       34.5510   47.3980   38.6850 O.co2  89  GLU89      -0.2457
    104  N         38.5420   42.0050   39.6990 N.am   90  LEU90      -0.1963
    105  CA        39.8720   41.3910   39.7500 C.3    90  LEU90       0.1728
    106  C         40.1180   40.2980   38.7100 C.2    90  LEU90       0.2617
    107  O         41.2640   39.8900   38.5430 O.2    90  LEU90      -0.2715
    108  CB        40.2020   40.8870   41.1490 C.3    90  LEU90       0.0311
    109  CG        40.4810   41.9480   42.2160 C.3    90  LEU90       0.0022
    110  CD1       40.7980   41.2950   43.5130 C.3    90  LEU90       0.0001
    111  CD2       41.6430   42.8510   41.8190 C.3    90  LEU90       0.0001
    112  N         39.0800   39.8570   38.0040 N.am   91  GLY91      -0.1941
    113  CA        39.2440   38.9300   36.8960 C.3    91  GLY91       0.1998
    114  C         39.4970   37.4840   37.2600 C.2    91  GLY91       0.2480
    115  O         39.2860   37.0740   38.4120 O.2    91  GLY91      -0.2729
    116  N         39.9280   36.6980   36.2490 N.am   92  PRO92      -0.2726
    117  CA        40.0650   35.2390   36.4460 C.3    92  PRO92       0.1402
    118  C         41.0420   34.8520   37.5390 C.2    92  PRO92       0.2269
    119  O         42.1210   35.4500   37.6980 O.2    92  PRO92      -0.2865
    120  CB        40.5180   34.7070   35.0870 C.3    92  PRO92       0.0296
    121  CG        40.1800   35.7590   34.1280 C.3    92  PRO92       0.0237
    122  CD        40.1770   37.0710   34.8410 C.3    92  PRO92       0.0939
    123  N         35.8330   34.0520   38.7280 N.3   138  LEU138     -0.1245
    124  CA        36.2000   35.4750   38.6890 C.3   138  LEU138      0.1561
    125  C         36.2300   36.0620   40.0720 C.2   138  LEU138      0.2260
    126  O         35.4260   35.6970   40.9310 O.2   138  LEU138     -0.2867
    127  CB        35.2070   36.2370   37.8180 C.3   138  LEU138      0.0270
    128  CG        35.1300   35.7540   36.3590 C.3   138  LEU138      0.0019
    129  CD1       34.0960   36.5340   35.6170 C.3   138  LEU138      0.0001
    130  CD2       36.4870   35.8880   35.6300 C.3   138  LEU138      0.0001
    131  N         31.7870   31.7560   36.7010 N.3   148  SER148     -0.1202
    132  CA        31.3990   32.3500   35.4430 C.3   148  SER148      0.2020
    133  C         31.5290   31.3430   34.2910 C.2   148  SER148      0.2618
    134  O         31.8600   30.1670   34.4970 O.2   148  SER148     -0.2717
    135  CB        32.2660   33.5850   35.1840 C.3   148  SER148      0.2103
    136  OG        31.8120   34.3620   34.0870 O.3   148  SER148     -0.2182
    137  N         31.2550   31.8110   33.0680 N.am  149  ASP149     -0.1973
    138  CA        31.3250   31.0600   31.8100 C.3   149  ASP149      0.1709
    139  C         30.4840   29.8050   31.8210 C.2   149  ASP149      0.2293
    140  O         30.9700   28.6610   31.8820 O.2   149  ASP149     -0.2864
    141  CB        32.7510   30.7220   31.3480 C.3   149  ASP149      0.1436
    142  CG        32.8090   30.2210   29.8990 C.2   149  ASP149      0.3671
    143  OD1       31.7150   30.0810   29.2550 O.co2 149  ASP149     -0.2456
    144  OD2       33.9250   29.9530   29.4130 O.co2 149  ASP149     -0.2456
@<TRIPOS>BOND
     1    35    34    2
     2    34    33    1
     3    39    40    1
     4    39    38    1
     5    12    11    2
     6    13    14    1
     7    37    38    1
     8    37    36    1
     9    57    58    1
    10    11    10    1
    11    33    36    1
    12    33    32    1
    13    30    29    1
    14    14    15    1
    15    14    17    1
    16    16    15    2
    17    28    27    2
    18    58    61    1
    19    58    59    1
    20    32    27   am
    21    41    42    1
    22    10     9    1
    23    61    62    1
    24    27    26    1
    25    19    17    1
    26     9     3   am
    27     1     2    1
    28    29    26    1
    29    29    31    1
    30    48    47   ar
    31    17    18    1
    32    45    42    1
    33    45    46    1
    34    59    60    2
    35    64    62    1
    36    26    25    1
    37    42    43    1
    38    62    63    1
    39     3     2    1
    40     3     4    2
    41    47    46    1
    42    47    49   ar
    43     2     5    1
    44    43    44    2
    45    25    22   am
    46   143   142   ar
    47   144   142   ar
    48     5     6    1
    49   142   141    1
    50    22    23    2
    51    22    21    1
    52     6     8    1
    53     6     7    1
    54   141   138    1
    55    21    24    1
    56    21    20    1
    57    65    66    1
    58   138   139    1
    59   138   137    1
    60   139   140    2
    61    70    71    1
    62    70    69    1
    63    71    72    1
    64   137   133   am
    65    66    69    1
    66    66    67    1
    67    68    67    2
    68   136   135    1
    69    89    88    1
    70    67    73   am
    71   121   122    1
    72   121   120    1
    73   133   134    2
    74   133   132    1
    75   122   116    1
    76   120   117    1
    77    88    87    1
    78   135   132    1
    79    73    74    1
    80   132   131    1
    81   129   128    1
    82   130   128    1
    83   116   117    1
    84   116   114   am
    85    86    87    1
    86    86    83    1
    87   128   127    1
    88    55    54    1
    89   117   118    1
    90    74    75    1
    91    74    77    1
    92    82    83    1
    93    82    75   am
    94    83    84    1
    95    75    76    2
    96   113   114    1
    97   113   112    1
    98    54    56    1
    99    54    51    1
   100    53    52    2
   101   114   115    2
   102   118   119    2
   103    90    84   am
   104    90    91    1
   105    93    92    2
   106    84    85    2
   107    77    78    2
   108    52    51    1
   109   127   124    1
   110    98    97    2
   111   112   106   am
   112   102   101   ar
   113    51    50    1
   114    92    91    1
   115    92    95   am
   116   107   106    2
   117   103   101   ar
   118   124   123    1
   119   124   125    1
   120   106   105    1
   121    94    91    1
   122   101   100    1
   123    97    96    1
   124    97   104   am
   125    96    95    1
   126    96    99    1
   127    78    79    1
   128   104   105    1
   129   105   108    1
   130    99   100    1
   131   125   126    2
   132    79    80   ar
   133    79    81   ar
   134   108   109    1
   135   111   109    1
   136   109   110    1
