@<TRIPOS>MOLECULE
tmp/4yjvA00.pdb
 168 158 0 0 0
SMALL
GASTEIGER

@<TRIPOS>ATOM
      1  N         39.4260   43.2260   27.4760 N.3    14  LEU14      -0.1245
      2  CA        39.8670   42.5470   28.6950 C.3    14  LEU14       0.1561
      3  C         40.6550   41.2780   28.3680 C.2    14  LEU14       0.2260
      4  O         40.3850   40.6190   27.3670 O.2    14  LEU14      -0.2867
      5  CB        38.6690   42.2080   29.5990 C.3    14  LEU14       0.0270
      6  CG        38.0280   43.3650   30.3560 C.3    14  LEU14       0.0019
      7  CD1       36.6530   42.9790   30.8610 C.3    14  LEU14       0.0001
      8  CD2       38.9020   43.8290   31.5210 C.3    14  LEU14       0.0001
      9  N         35.9270   40.4550   24.7450 N.3    17  VAL17      -0.1245
     10  CA        35.3320   40.7500   26.0480 C.3    17  VAL17       0.1561
     11  C         35.7420   42.1690   26.3660 C.2    17  VAL17       0.2260
     12  O         36.9380   42.4640   26.3970 O.2    17  VAL17      -0.2867
     13  CB        35.6740   39.7690   27.1920 C.3    17  VAL17       0.0252
     14  CG1       35.1120   40.2770   28.5300 C.3    17  VAL17       0.0019
     15  CG2       35.1370   38.3720   26.8830 C.3    17  VAL17       0.0019
     16  N         30.9500   43.5260   32.3150 N.3    32  ALA32      -0.1231
     17  CA        31.8410   42.8040   31.4110 C.3    32  ALA32       0.1694
     18  C         30.9490   42.2640   30.3270 C.2    32  ALA32       0.2592
     19  O         29.8610   41.7320   30.6120 O.2    32  ALA32      -0.2718
     20  CB        32.5830   41.6970   32.1350 C.3    32  ALA32       0.0304
     21  N         31.3430   42.5010   29.0810 N.am   33  VAL33      -0.1966
     22  CA        30.4780   42.1840   27.9590 C.3    33  VAL33       0.1727
     23  C         31.1720   41.2560   26.9610 C.2    33  VAL33       0.2616
     24  O         32.2700   41.5790   26.5080 O.2    33  VAL33      -0.2715
     25  CB        30.0670   43.5290   27.2810 C.3    33  VAL33       0.0290
     26  CG1       29.1090   43.2960   26.1180 C.3    33  VAL33       0.0023
     27  CG2       29.4630   44.5030   28.2890 C.3    33  VAL33       0.0023
     28  N         30.5210   40.1290   26.6080 N.am   34  LYS34      -0.1977
     29  CA        31.0020   39.2200   25.5600 C.3    34  LYS34       0.1596
     30  C         30.3660   39.7020   24.2790 C.2    34  LYS34       0.2287
     31  O         29.1470   39.8580   24.2340 O.2    34  LYS34      -0.2864
     32  CB        30.6500   37.7470   25.8500 C.3    34  LYS34       0.0298
     33  CG        31.8130   36.9480   26.4040 C.3    34  LYS34       0.0038
     34  CD        31.5450   35.4430   26.4350 C.3    34  LYS34       0.0206
     35  CE        32.5030   34.7690   27.3970 C.3    34  LYS34       0.1093
     36  NZ        32.7610   33.3390   27.0590 N.3    34  LYS34      -0.1314
     37  N         23.5020   30.1510   27.1370 N.3    52  GLU52      -0.1245
     38  CA        24.1080   30.6210   28.3600 C.3    52  GLU52       0.1567
     39  C         23.1930   31.6430   29.0810 C.2    52  GLU52       0.2260
     40  O         22.9450   31.5150   30.2810 O.2    52  GLU52      -0.2867
     41  CB        25.4280   31.2620   28.0060 C.3    52  GLU52       0.0388
     42  CG        26.1400   31.7130   29.2470 C.3    52  GLU52       0.1160
     43  CD        27.5150   32.2540   28.9630 C.2    52  GLU52       0.3649
     44  OE1       28.0480   32.0120   27.8600 O.co2  52  GLU52      -0.2457
     45  OE2       28.1340   32.7190   29.9340 O.co2  52  GLU52      -0.2457
     46  N         28.0150   34.6340   38.9220 N.3    65  VAL65      -0.1245
     47  CA        27.9630   35.9420   38.2360 C.3    65  VAL65       0.1561
     48  C         26.5300   36.2050   37.7690 C.2    65  VAL65       0.2260
     49  O         25.8880   35.3230   37.1820 O.2    65  VAL65      -0.2867
     50  CB        28.9870   35.9950   37.0420 C.3    65  VAL65       0.0252
     51  CG1       28.7920   37.2470   36.1950 C.3    65  VAL65       0.0019
     52  CG2       30.4320   35.9370   37.5440 C.3    65  VAL65       0.0019
     53  N         26.4810   39.9570   25.3180 N.3    78  LEU78      -0.1245
     54  CA        25.9810   39.3410   26.5360 C.3    78  LEU78       0.1561
     55  C         26.6140   40.1150   27.6970 C.2    78  LEU78       0.2260
     56  O         27.8320   40.1230   27.8240 O.2    78  LEU78      -0.2867
     57  CB        26.2840   37.8300   26.5590 C.3    78  LEU78       0.0270
     58  CG        25.8080   37.0910   27.8060 C.3    78  LEU78       0.0019
     59  CD1       24.3000   37.2930   28.0490 C.3    78  LEU78       0.0001
     60  CD2       26.1290   35.6250   27.6930 C.3    78  LEU78       0.0001
     61  N         27.2360   41.1130   31.6050 N.3    80  MET80      -0.1230
     62  CA        27.2860   40.5840   32.9770 C.3    80  MET80       0.1702
     63  C         27.7770   41.6120   33.9680 C.2    80  MET80       0.2592
     64  O         28.5300   42.5090   33.5840 O.2    80  MET80      -0.2718
     65  CB        28.2670   39.4030   33.0480 C.3    80  MET80       0.0401
     66  CG        28.0240   38.3320   32.0140 C.3    80  MET80       0.0596
     67  SD        26.4200   37.5470   32.1470 S.3    80  MET80      -0.1393
     68  CE        26.6500   36.7480   33.4240 C.3    80  MET80       0.0692
     69  N         27.4490   41.4420   35.2640 N.am   81  GLU81      -0.1966
     70  CA        28.0260   42.3030   36.2960 C.3    81  GLU81       0.1733
     71  C         29.5160   42.0230   36.3410 C.2    81  GLU81       0.2616
     72  O         29.9050   40.8550   36.3770 O.2    81  GLU81      -0.2715
     73  CB        27.4220   41.9710   37.6490 C.3    81  GLU81       0.0429
     74  CG        25.9760   42.3630   37.7820 C.3    81  GLU81       0.1163
     75  CD        25.4800   42.2150   39.2030 C.2    81  GLU81       0.3649
     76  OE1       26.1790   41.5700   40.0250 O.co2  81  GLU81      -0.2457
     77  OE2       24.3610   42.7090   39.4740 O.co2  81  GLU81      -0.2457
     78  N         30.3390   43.0510   36.3450 N.am   82  MET82      -0.1963
     79  CA        31.7800   42.8680   36.3320 C.3    82  MET82       0.1736
     80  C         32.3750   42.3580   37.6570 C.2    82  MET82       0.2616
     81  O         32.1840   42.9900   38.6960 O.2    82  MET82      -0.2715
     82  CB        32.4220   44.2370   35.9960 C.3    82  MET82       0.0427
     83  CG        33.8560   44.3570   36.4030 C.3    82  MET82       0.0599
     84  SD        34.8150   43.4690   35.1840 S.3    82  MET82      -0.1393
     85  CE        34.9430   44.6770   34.1130 C.3    82  MET82       0.0692
     86  N         33.1610   41.2360   37.5890 N.am   83  ALA83      -0.1963
     87  CA        33.9800   40.7690   38.7100 C.3    83  ALA83       0.1728
     88  C         35.3880   41.3050   38.3750 C.2    83  ALA83       0.2616
     89  O         36.0930   40.7220   37.5450 O.2    83  ALA83      -0.2715
     90  CB        33.9300   39.2500   38.8250 C.3    83  ALA83       0.0334
     91  N         35.6950   42.4900   38.9020 N.am   84  GLU84      -0.1963
     92  CA        36.8500   43.3530   38.5650 C.3    84  GLU84       0.1733
     93  C         38.2160   42.6530   38.5870 C.2    84  GLU84       0.2616
     94  O         39.0600   42.9770   37.7550 O.2    84  GLU84      -0.2715
     95  CB        36.9200   44.6020   39.4740 C.3    84  GLU84       0.0429
     96  CG        35.6190   45.3990   39.6150 C.3    84  GLU84       0.1163
     97  CD        35.3930   46.6260   38.7490 C.2    84  GLU84       0.3649
     98  OE1       36.3750   47.1360   38.1750 O.co2  84  GLU84      -0.2457
     99  OE2       34.2390   47.1050   38.6810 O.co2  84  GLU84      -0.2457
    100  N         38.4500   41.7270   39.5200 N.am   85  LEU85      -0.1963
    101  CA        39.7970   41.1530   39.6170 C.3    85  LEU85       0.1728
    102  C         40.0640   40.0210   38.6120 C.2    85  LEU85       0.2617
    103  O         41.2230   39.6240   38.4340 O.2    85  LEU85      -0.2715
    104  CB        40.1040   40.7050   41.0450 C.3    85  LEU85       0.0311
    105  CG        40.2310   41.8180   42.1160 C.3    85  LEU85       0.0022
    106  CD1       40.7080   41.2410   43.4190 C.3    85  LEU85       0.0001
    107  CD2       41.1930   42.9380   41.6850 C.3    85  LEU85       0.0001
    108  N         39.0170   39.5430   37.9500 N.am   86  GLY86      -0.1941
    109  CA        39.1470   38.5670   36.8830 C.3    86  GLY86       0.1998
    110  C         39.4110   37.1340   37.2980 C.2    86  GLY86       0.2480
    111  O         39.2360   36.7660   38.4750 O.2    86  GLY86      -0.2729
    112  N         39.8320   36.3210   36.2960 N.am   87  PRO87      -0.2726
    113  CA        40.0150   34.8740   36.5300 C.3    87  PRO87       0.1402
    114  C         40.9640   34.5210   37.6640 C.2    87  PRO87       0.2269
    115  O         42.0510   35.1000   37.8090 O.2    87  PRO87      -0.2865
    116  CB        40.5530   34.3620   35.2050 C.3    87  PRO87       0.0296
    117  CG        39.9980   35.3070   34.1960 C.3    87  PRO87       0.0237
    118  CD        40.0310   36.6520   34.8680 C.3    87  PRO87       0.0939
    119  N         44.7340   33.2940   36.7310 N.3    90  LYS90      -0.1245
    120  CA        45.6120   34.4380   36.4180 C.3    90  LYS90       0.1561
    121  C         45.9500   35.2340   37.6880 C.2    90  LYS90       0.2260
    122  O         47.0880   35.7050   37.8510 O.2    90  LYS90      -0.2867
    123  CB        44.9410   35.3550   35.3780 C.3    90  LYS90       0.0271
    124  CG        44.8850   34.7610   33.9700 C.3    90  LYS90       0.0035
    125  CD        44.7010   35.8310   32.9050 C.3    90  LYS90       0.0206
    126  CE        43.2610   36.2140   32.6680 C.3    90  LYS90       0.1093
    127  NZ        43.1240   36.9970   31.4190 N.3    90  LYS90      -0.1314
    128  N         40.0290   29.0910   35.6750 N.3   130  ARG130     -0.1231
    129  CA        39.8670   30.2140   34.7400 C.3   130  ARG130      0.1694
    130  C         38.4440   30.7850   34.7930 C.2   130  ARG130      0.2592
    131  O         38.2620   31.9750   34.5380 O.2   130  ARG130     -0.2718
    132  CB        40.2070   29.8060   33.2920 C.3   130  ARG130      0.0321
    133  CG        39.3470   28.6810   32.7160 C.3   130  ARG130      0.0489
    134  CD        39.7510   28.2840   31.2910 C.3   130  ARG130      0.2205
    135  NE        38.9400   27.1440   30.8670 N.pl3 130  ARG130     -0.0865
    136  CZ        39.2410   25.8790   31.1310 C.cat 130  ARG130      0.5346
    137  NH1       40.3660   25.5740   31.7720 N.pl3 130  ARG130      0.1354
    138  NH2       38.4250   24.9090   30.7550 N.pl3 130  ARG130      0.1354
    139  N         37.4440   29.9250   35.0880 N.am  131  ASN131     -0.1974
    140  CA        36.0250   30.3250   35.1060 C.3   131  ASN131      0.1688
    141  C         35.5280   30.8050   36.4830 C.2   131  ASN131      0.2292
    142  O         34.3450   31.1230   36.6290 O.2   131  ASN131     -0.2864
    143  CB        35.1480   29.2070   34.5470 C.3   131  ASN131      0.1181
    144  CG        35.3940   29.0570   33.0570 C.2   131  ASN131      0.2629
    145  OD1       35.7830   30.0260   32.3740 O.2   131  ASN131     -0.2716
    146  ND2       35.2190   27.8610   32.5190 N.am  131  ASN131     -0.0877
    147  N         35.7380   33.8940   38.8480 N.3   133  LEU133     -0.1245
    148  CA        36.1430   35.3080   38.7390 C.3   133  LEU133      0.1561
    149  C         36.1050   35.9590   40.1020 C.2   133  LEU133      0.2260
    150  O         35.1910   35.7000   40.8920 O.2   133  LEU133     -0.2867
    151  CB        35.2310   36.0650   37.7630 C.3   133  LEU133      0.0270
    152  CG        35.0400   35.4240   36.3810 C.3   133  LEU133      0.0019
    153  CD1       34.1080   36.2530   35.5550 C.3   133  LEU133      0.0001
    154  CD2       36.3760   35.2470   35.6430 C.3   133  LEU133      0.0001
    155  N         31.5410   31.5630   36.8120 N.3   143  SER143     -0.1202
    156  CA        31.1520   32.1270   35.5200 C.3   143  SER143      0.2020
    157  C         31.1930   31.0590   34.4160 C.2   143  SER143      0.2618
    158  O         31.5110   29.8870   34.6670 O.2   143  SER143     -0.2717
    159  CB        32.1000   33.2680   35.1500 C.3   143  SER143      0.2103
    160  OG        33.3900   32.7690   34.8370 O.3   143  SER143     -0.2182
    161  N         30.8990   31.4940   33.1820 N.am  144  ASP144     -0.1973
    162  CA        30.9710   30.7010   31.9560 C.3   144  ASP144      0.1709
    163  C         30.0800   29.4750   32.0060 C.2   144  ASP144      0.2293
    164  O         30.5490   28.3390   32.1480 O.2   144  ASP144     -0.2864
    165  CB        32.4030   30.2960   31.5930 C.3   144  ASP144      0.1436
    166  CG        32.4870   29.7370   30.1780 C.2   144  ASP144      0.3671
    167  OD1       31.4060   29.6170   29.5030 O.co2 144  ASP144     -0.2456
    168  OD2       33.5980   29.3650   29.7580 O.co2 144  ASP144     -0.2456
@<TRIPOS>BOND
     1    31    30    2
     2    30    29    1
     3     9    10    1
     4    53    54    1
     5    29    32    1
     6    29    28    1
     7    32    33    1
     8    10    11    1
     9    10    13    1
    10    26    25    1
    11    11    12    2
    12    33    34    1
    13    34    35    1
    14    24    23    2
    15    54    57    1
    16    54    55    1
    17    57    58    1
    18    28    23   am
    19    15    13    1
    20    23    22    1
    21    36    35    1
    22    37    38    1
    23    13    14    1
    24    25    22    1
    25    25    27    1
    26     4     3    2
    27     1     2    1
    28    60    58    1
    29    55    56    2
    30    58    59    1
    31    44    43   ar
    32    22    21    1
    33    41    38    1
    34    41    42    1
    35    38    39    1
    36     3     2    1
    37     2     5    1
    38    43    42    1
    39    43    45   ar
    40    21    18   am
    41    39    40    2
    42   167   166   ar
    43     5     6    1
    44   168   166   ar
    45   166   165    1
    46    18    19    2
    47    18    17    1
    48     6     7    1
    49     6     8    1
    50   138   136    1
    51   135   136    2
    52   135   134    1
    53   136   137    1
    54   134   133    1
    55    17    20    1
    56    17    16    1
    57   127   126    1
    58   165   162    1
    59    61    62    1
    60   162   163    1
    61   162   161    1
    62   163   164    2
    63    66    67    1
    64    66    65    1
    65    67    68    1
    66   145   144    2
    67   146   144   am
    68   126   125    1
    69   133   132    1
    70   125   124    1
    71    62    65    1
    72    62    63    1
    73   144   143    1
    74   161   157   am
    75   132   129    1
    76    64    63    2
    77    63    69   am
    78   124   123    1
    79    85    84    1
    80   117   118    1
    81   117   116    1
    82   157   158    2
    83   157   156    1
    84   131   130    2
    85   143   140    1
    86   129   130    1
    87   129   128    1
    88   130   139   am
    89   160   159    1
    90   118   112    1
    91   139   140    1
    92   140   141    1
    93   159   156    1
    94    84    83    1
    95   116   113    1
    96    69    70    1
    97   123   120    1
    98   156   155    1
    99   153   152    1
   100   154   152    1
   101    82    79    1
   102    82    83    1
   103    51    50    1
   104   112   113    1
   105   112   110   am
   106    70    71    1
   107    70    73    1
   108    79    78    1
   109    79    80    1
   110    71    78   am
   111    71    72    2
   112   152   151    1
   113   120   119    1
   114   120   121    1
   115   141   142    2
   116   113   114    1
   117   109   110    1
   118   109   108    1
   119    50    52    1
   120    50    47    1
   121    49    48    2
   122   110   111    2
   123    89    88    2
   124    86    80   am
   125    86    87    1
   126    73    74    1
   127    80    81    2
   128   114   115    2
   129   121   122    2
   130    94    93    2
   131   151   148    1
   132    48    47    1
   133    74    75    1
   134   108   102   am
   135    98    97   ar
   136    47    46    1
   137    88    87    1
   138    88    91   am
   139   103   102    2
   140    92    93    1
   141    92    91    1
   142    92    95    1
   143    93   100   am
   144   102   101    1
   145    99    97   ar
   146    87    90    1
   147   148   147    1
   148   148   149    1
   149    97    96    1
   150    75    77   ar
   151    75    76   ar
   152    95    96    1
   153   100   101    1
   154   101   104    1
   155   149   150    2
   156   104   105    1
   157   107   105    1
   158   105   106    1
