@<TRIPOS>MOLECULE
tmp/4yjxC00.pdb
 115 113 0 0 0
SMALL
GASTEIGER

@<TRIPOS>ATOM
      1  N         -7.7560    0.2530  -23.9540 N.3     9  LEU9       -0.1231
      2  CA        -8.6870    0.8080  -24.9150 C.3     9  LEU9        0.1693
      3  C         -9.1440    2.1700  -24.4110 C.2     9  LEU9        0.2592
      4  O         -9.5780    2.2850  -23.2690 O.2     9  LEU9       -0.2718
      5  CB        -9.8780   -0.1320  -25.0980 C.3     9  LEU9        0.0284
      6  CG       -11.1010    0.3930  -25.8420 C.3     9  LEU9        0.0019
      7  CD1      -10.7330    0.7490  -27.2780 C.3     9  LEU9        0.0001
      8  CD2      -12.2200   -0.6420  -25.7910 C.3     9  LEU9        0.0001
      9  N         -9.0200    3.1980  -25.2460 N.am   10  LEU10      -0.1966
     10  CA        -9.5210    4.5280  -24.9070 C.3    10  LEU10       0.1728
     11  C        -10.8570    4.7810  -25.5870 C.2    10  LEU10       0.2616
     12  O        -11.0680    4.4030  -26.7410 O.2    10  LEU10      -0.2715
     13  CB        -8.5290    5.6140  -25.3170 C.3    10  LEU10       0.0311
     14  CG        -7.1060    5.5050  -24.7720 C.3    10  LEU10       0.0022
     15  CD1       -6.3510    6.7850  -25.0720 C.3    10  LEU10       0.0001
     16  CD2       -7.1040    5.2110  -23.2820 C.3    10  LEU10       0.0001
     17  N        -11.7610    5.4270  -24.8670 N.am   11  ASN11      -0.1958
     18  CA       -13.0480    5.7800  -25.4340 C.3    11  ASN11       0.1819
     19  C        -12.9100    6.9430  -26.4080 C.2    11  ASN11       0.2621
     20  O        -11.9970    7.7580  -26.2940 O.2    11  ASN11      -0.2715
     21  CB       -14.0420    6.1410  -24.3280 C.3    11  ASN11       0.1195
     22  CG       -15.4560    6.3230  -24.8550 C.2    11  ASN11       0.2630
     23  OD1      -15.9410    5.5240  -25.6580 O.2    11  ASN11      -0.2716
     24  ND2      -16.1150    7.3880  -24.4230 N.am   11  ASN11      -0.0877
     25  N        -13.8060    6.9990  -27.3830 N.am   12  ASP12      -0.1957
     26  CA       -14.0040    8.2120  -28.1610 C.3    12  ASP12       0.1840
     27  C        -15.4680    8.2460  -28.5620 C.2    12  ASP12       0.2622
     28  O        -16.1810    7.2630  -28.3780 O.2    12  ASP12      -0.2715
     29  CB       -13.0750    8.2750  -29.3790 C.3    12  ASP12       0.1450
     30  CG       -13.3540    7.1910  -30.3960 C.2    12  ASP12       0.3671
     31  OD1      -14.3650    7.3010  -31.1170 O.co2  12  ASP12      -0.2456
     32  OD2      -12.5450    6.2440  -30.4950 O.co2  12  ASP12      -0.2456
     33  N        -15.9180    9.3780  -29.0860 N.am   13  ASP13      -0.1957
     34  CA       -17.3310    9.5700  -29.3870 C.3    13  ASP13       0.1840
     35  C        -17.6780    9.2390  -30.8350 C.2    13  ASP13       0.2622
     36  O        -18.8280    9.3900  -31.2430 O.2    13  ASP13      -0.2715
     37  CB       -17.7400   11.0180  -29.0850 C.3    13  ASP13       0.1450
     38  CG       -17.6340   11.3610  -27.6110 C.2    13  ASP13       0.3671
     39  OD1      -18.0360   10.5240  -26.7780 O.co2  13  ASP13      -0.2456
     40  OD2      -17.1420   12.4660  -27.2850 O.co2  13  ASP13      -0.2456
     41  N        -16.6930    8.7870  -31.6060 N.am   14  TYR14      -0.1960
     42  CA       -16.8680    8.6240  -33.0500 C.3    14  TYR14       0.1771
     43  C        -16.8480    7.1730  -33.5290 C.2    14  TYR14       0.2620
     44  O        -17.6640    6.7900  -34.3680 O.2    14  TYR14      -0.2715
     45  CB       -15.7860    9.4090  -33.7910 C.3    14  TYR14       0.0574
     46  CG       -15.8510   10.9010  -33.5470 C.ar   14  TYR14      -0.0198
     47  CD1      -16.5780   11.7280  -34.3880 C.ar   14  TYR14      -0.0009
     48  CD2      -15.1840   11.4810  -32.4760 C.ar   14  TYR14      -0.0009
     49  CE1      -16.6410   13.0930  -34.1700 C.ar   14  TYR14       0.0417
     50  CE2      -15.2400   12.8430  -32.2510 C.ar   14  TYR14       0.0417
     51  CZ       -15.9700   13.6440  -33.1030 C.ar   14  TYR14       0.1957
     52  OH       -16.0320   15.0010  -32.8870 O.3    14  TYR14      -0.2866
     53  N        -15.9160    6.3710  -33.0210 N.am   15  THR15      -0.1937
     54  CA       -15.7900    4.9960  -33.4900 C.3    15  THR15       0.2013
     55  C        -17.0540    4.2020  -33.1620 C.2    15  THR15       0.2484
     56  O        -17.5340    4.2400  -32.0290 O.2    15  THR15      -0.2729
     57  CB       -14.5910    4.2730  -32.8650 C.3    15  THR15       0.1807
     58  OG1      -13.4220    5.0880  -32.9800 O.3    15  THR15      -0.2208
     59  CG2      -14.3590    2.9310  -33.5650 C.3    15  THR15       0.0379
     60  N        -17.5940    3.4720  -34.1480 N.am   16  PRO16      -0.2715
     61  CA       -18.7820    2.6530  -33.8740 C.3    16  PRO16       0.1536
     62  C        -18.5330    1.5790  -32.8110 C.2    16  PRO16       0.2598
     63  O        -17.4710    0.9580  -32.8030 O.2    16  PRO16      -0.2715
     64  CB       -19.0880    2.0160  -35.2320 C.3    16  PRO16       0.0310
     65  CG       -18.4350    2.9170  -36.2340 C.3    16  PRO16       0.0237
     66  CD       -17.2110    3.4290  -35.5700 C.3    16  PRO16       0.0939
     67  N        -19.5090    1.3800  -31.9300 N.am   17  ARG17      -0.1978
     68  CA       -19.4190    0.3910  -30.8570 C.3    17  ARG17       0.1597
     69  C        -19.0520   -0.9860  -31.3890 C.2    17  ARG17       0.2287
     70  O        -18.1250   -1.6310  -30.8980 O.2    17  ARG17      -0.2864
     71  CB       -20.7510    0.2920  -30.1000 C.3    17  ARG17       0.0334
     72  CG       -21.1080    1.4990  -29.2690 C.3    17  ARG17       0.0492
     73  CD       -22.5290    1.3940  -28.7290 C.3    17  ARG17       0.2205
     74  NE       -22.9080    2.5700  -27.9490 N.pl3  17  ARG17      -0.0865
     75  CZ       -23.3930    3.6970  -28.4650 C.cat  17  ARG17       0.5346
     76  NH1      -23.5640    3.8200  -29.7740 N.pl3  17  ARG17       0.1354
     77  NH2      -23.7070    4.7100  -27.6670 N.pl3  17  ARG17       0.1354
     78  N        -15.5020   -1.4910  -32.6460 N.3    20  VAL20      -0.1245
     79  CA       -14.5660   -1.7040  -31.5450 C.3    20  VAL20       0.1561
     80  C        -14.6310   -3.1630  -31.0930 C.2    20  VAL20       0.2260
     81  O        -13.6000   -3.7890  -30.8420 O.2    20  VAL20      -0.2867
     82  CB       -14.8560   -0.7640  -30.3430 C.3    20  VAL20       0.0252
     83  CG1      -13.9110   -1.0480  -29.1750 C.3    20  VAL20       0.0019
     84  CG2      -14.7240    0.6860  -30.7540 C.3    20  VAL20       0.0019
     85  N        -15.6880   -3.3090  -24.4700 N.3    39  MET39      -0.1245
     86  CA       -16.0150   -2.1230  -25.2390 C.3    39  MET39       0.1570
     87  C        -16.8840   -1.1780  -24.4100 C.2    39  MET39       0.2261
     88  O        -16.6270    0.0250  -24.3410 O.2    39  MET39      -0.2867
     89  CB       -16.7220   -2.5260  -26.5360 C.3    39  MET39       0.0387
     90  CG       -17.1460   -1.3710  -27.4270 C.3    39  MET39       0.0595
     91  SD       -18.6950   -0.5960  -26.9350 S.3    39  MET39      -0.1393
     92  CE       -19.8530   -1.9230  -27.2270 C.3    39  MET39       0.0692
     93  N        -15.0140    0.8180  -21.5860 N.3    42  ALA42      -0.1231
     94  CA       -14.3920    2.0580  -22.0340 C.3    42  ALA42       0.1694
     95  C        -15.4700    3.0930  -22.3140 C.2    42  ALA42       0.2592
     96  O        -15.3540    4.2490  -21.9120 O.2    42  ALA42      -0.2718
     97  CB       -13.5420    1.8230  -23.2700 C.3    42  ALA42       0.0304
     98  N        -16.5260    2.6520  -22.9910 N.am   43  HIS43      -0.1976
     99  CA       -17.6370    3.5150  -23.3820 C.3    43  HIS43       0.1656
    100  C        -18.2010    4.3160  -22.2180 C.2    43  HIS43       0.2291
    101  O        -18.5640    5.4840  -22.3660 O.2    43  HIS43      -0.2864
    102  CB       -18.7530    2.6730  -23.9950 C.3    43  HIS43       0.0771
    103  CG       -19.9510    3.4690  -24.4040 C.ar   43  HIS43       0.0820
    104  ND1      -19.9660    4.2540  -25.5330 N.ar   43  HIS43      -0.2267
    105  CD2      -21.1780    3.6000  -23.8400 C.ar   43  HIS43       0.1154
    106  CE1      -21.1430    4.8370  -25.6510 C.ar   43  HIS43       0.1986
    107  NE2      -21.8980    4.4570  -24.6370 N.ar   43  HIS43      -0.2212
    108  N        -10.2510    5.7840  -33.0700 N.3    76  LEU76      -0.1245
    109  CA       -10.0050    4.6910  -32.1300 C.3    76  LEU76       0.1561
    110  C         -8.5440    4.6180  -31.6800 C.2    76  LEU76       0.2260
    111  O         -7.6400    4.5420  -32.5120 O.2    76  LEU76      -0.2867
    112  CB       -10.4070    3.3710  -32.7790 C.3    76  LEU76       0.0270
    113  CG       -10.2440    2.0820  -31.9860 C.3    76  LEU76       0.0019
    114  CD1      -11.1620    2.0710  -30.7820 C.3    76  LEU76       0.0001
    115  CD2      -10.5300    0.9020  -32.9010 C.3    76  LEU76       0.0001
@<TRIPOS>BOND
     1    65    66    1
     2    65    64    1
     3    66    60    1
     4    64    61    1
     5    47    49   ar
     6    47    46   ar
     7    44    43    2
     8    49    51   ar
     9    60    61    1
    10    60    55   am
    11    61    62    1
    12    45    46    1
    13    45    42    1
    14    59    57    1
    15    46    48   ar
    16    43    42    1
    17    43    53   am
    18    54    55    1
    19    54    53    1
    20    54    57    1
    21    55    56    2
    22    51    52    1
    23    51    50   ar
    24   108   109    1
    25    42    41    1
    26    58    57    1
    27   115   113    1
    28    62    63    2
    29    62    67   am
    30   112   109    1
    31   112   113    1
    32    78    79    1
    33   111   110    2
    34    48    50   ar
    35   109   110    1
    36   113   114    1
    37    67    68    1
    38    41    35   am
    39    79    80    1
    40    79    82    1
    41    69    70    2
    42    69    68    1
    43    36    35    2
    44    31    30   ar
    45    80    81    2
    46    68    71    1
    47    35    34    1
    48    84    82    1
    49    32    30   ar
    50    30    29    1
    51    82    83    1
    52    71    72    1
    53    76    75    1
    54    34    33    1
    55    34    37    1
    56    29    26    1
    57    72    73    1
    58    33    27   am
    59    37    38    1
    60    73    74    1
    61    27    28    2
    62    27    26    1
    63    75    74    2
    64    75    77    1
    65    26    25    1
    66    38    40   ar
    67    38    39   ar
    68    90    91    1
    69    90    89    1
    70    25    19   am
    71     7     6    1
    72    92    91    1
    73    12    11    2
    74    89    86    1
    75    19    20    2
    76    19    18    1
    77     6     8    1
    78     6     5    1
    79    23    22    2
    80   106   104   ar
    81   106   107   ar
    82    11    10    1
    83    11    17   am
    84   104   103   ar
    85    18    17    1
    86    18    21    1
    87    13    10    1
    88    13    14    1
    89     9    10    1
    90     9     3   am
    91    86    85    1
    92    86    87    1
    93     5     2    1
    94    15    14    1
    95     2     3    1
    96     2     1    1
    97    22    24   am
    98    22    21    1
    99    14    16    1
   100   107   105   ar
   101     3     4    2
   102    87    88    2
   103   103   102    1
   104   103   105   ar
   105   102    99    1
   106    99    98    1
   107    99   100    1
   108    97    94    1
   109    98    95   am
   110   101   100    2
   111    95    94    1
   112    95    96    2
   113    94    93    1
