@<TRIPOS>MOLECULE
tmp/4yk0D00.pdb
 96 92 0 0 0
SMALL
GASTEIGER

@<TRIPOS>ATOM
      1  N        -21.7580   -3.9240  -33.5670 N.3    16  PRO16      -0.2102
      2  CA       -20.6950   -3.6070  -32.5980 C.3    16  PRO16       0.1504
      3  C        -19.2890   -3.7210  -33.1490 C.2    16  PRO16       0.2575
      4  O        -18.3190   -3.2610  -32.5060 O.2    16  PRO16      -0.2718
      5  CB       -20.8450   -4.6830  -31.5100 C.3    16  PRO16       0.0282
      6  CG       -22.1480   -5.2680  -31.6900 C.3    16  PRO16       0.0208
      7  CD       -22.5050   -5.1260  -33.1540 C.3    16  PRO16       0.0893
      8  N        -19.1870   -4.3040  -34.3260 N.am   17  PHE17      -0.1977
      9  CA       -17.9100   -4.6310  -34.9740 C.3    17  PHE17       0.1639
     10  C        -17.5480   -3.6860  -36.1370 C.2    17  PHE17       0.2290
     11  O        -16.4930   -3.8620  -36.7990 O.2    17  PHE17      -0.2864
     12  CB       -17.9770   -6.1100  -35.4650 C.3    17  PHE17       0.0560
     13  CG       -18.1990   -7.0940  -34.3760 C.ar   17  PHE17      -0.0200
     14  CD1      -17.1150   -7.5540  -33.5960 C.ar   17  PHE17      -0.0042
     15  CD2      -19.4680   -7.5510  -34.0420 C.ar   17  PHE17      -0.0042
     16  CE1      -17.3450   -8.4440  -32.5520 C.ar   17  PHE17      -0.0003
     17  CE2      -19.6830   -8.4650  -33.0160 C.ar   17  PHE17      -0.0003
     18  CZ       -18.6330   -8.8870  -32.2490 C.ar   17  PHE17      -0.0000
     19  N        -13.1520    0.1870  -31.4600 N.3    21  VAL21      -0.1245
     20  CA       -13.8020    0.3920  -30.1900 C.3    21  VAL21       0.1561
     21  C        -13.2550    1.6870  -29.6010 C.2    21  VAL21       0.2260
     22  O        -12.0500    1.8670  -29.6320 O.2    21  VAL21      -0.2867
     23  CB       -13.4930   -0.8200  -29.2780 C.3    21  VAL21       0.0252
     24  CG1      -14.0530   -0.6140  -27.9010 C.3    21  VAL21       0.0019
     25  CG2      -14.0820   -2.1030  -29.8920 C.3    21  VAL21       0.0019
     26  N        -17.9550    4.0610  -25.2630 N.3    26  LEU26      -0.1245
     27  CA       -18.8390    2.8830  -25.2030 C.3    26  LEU26       0.1561
     28  C        -19.0980    2.3450  -23.7890 C.2    26  LEU26       0.2260
     29  O        -19.8380    1.3660  -23.5920 O.2    26  LEU26      -0.2867
     30  CB       -18.2560    1.7730  -26.0420 C.3    26  LEU26       0.0270
     31  CG       -18.4680    1.8400  -27.5530 C.3    26  LEU26       0.0019
     32  CD1      -17.6740    0.7620  -28.2150 C.3    26  LEU26       0.0001
     33  CD2      -19.9550    1.6190  -27.7890 C.3    26  LEU26       0.0001
     34  N        -17.0720    1.0020  -21.7430 N.3    28  ILE28      -0.1245
     35  CA       -16.2180   -0.1600  -21.3810 C.3    28  ILE28       0.1561
     36  C        -14.7740    0.2790  -21.2100 C.2    28  ILE28       0.2260
     37  O        -13.8940   -0.1900  -21.9120 O.2    28  ILE28      -0.2867
     38  CB       -16.3660   -1.2860  -22.4010 C.3    28  ILE28       0.0252
     39  CG1      -16.2150   -0.7660  -23.8450 C.3    28  ILE28       0.0019
     40  CG2      -17.7110   -1.9840  -22.1770 C.3    28  ILE28       0.0019
     41  CD1      -16.1940   -1.8630  -24.9170 C.3    28  ILE28       0.0001
     42  N        -11.4000   -1.8540  -21.6270 N.3    31  TYR31      -0.1241
     43  CA       -11.2750   -2.6980  -22.8140 C.3    31  TYR31       0.1605
     44  C         -9.8360   -2.9480  -23.2260 C.2    31  TYR31       0.2264
     45  O         -9.4730   -4.0880  -23.4950 O.2    31  TYR31      -0.2867
     46  CB       -12.0730   -2.0790  -23.9690 C.3    31  TYR31       0.0534
     47  CG       -12.1050   -2.9110  -25.2110 C.ar   31  TYR31      -0.0201
     48  CD1      -12.9330   -4.0220  -25.3060 C.ar   31  TYR31      -0.0009
     49  CD2      -11.2740   -2.6140  -26.2720 C.ar   31  TYR31      -0.0009
     50  CE1      -12.8920   -4.8330  -26.4230 C.ar   31  TYR31       0.0417
     51  CE2      -11.2580   -3.3820  -27.4240 C.ar   31  TYR31       0.0417
     52  CZ       -12.0750   -4.5030  -27.4890 C.ar   31  TYR31       0.1957
     53  OH       -12.0700   -5.2910  -28.6440 O.3    31  TYR31      -0.2866
     54  N        -13.6000  -10.6120  -29.1220 N.3    68  ALA68      -0.1245
     55  CA       -14.9720  -10.5140  -28.5560 C.3    68  ALA68       0.1562
     56  C        -15.3020  -11.6770  -27.6640 C.2    68  ALA68       0.2260
     57  O        -15.9240  -11.5020  -26.6170 O.2    68  ALA68      -0.2867
     58  CB       -15.9800  -10.3390  -29.6420 C.3    68  ALA68       0.0290
     59  N        -13.3390  -10.6960  -24.3820 N.3    71  TYR71      -0.1227
     60  CA       -13.7620   -9.5350  -23.6050 C.3    71  TYR71       0.1736
     61  C        -15.1420   -9.6590  -22.9670 C.2    71  TYR71       0.2595
     62  O        -15.3890   -9.2690  -21.7910 O.2    71  TYR71      -0.2718
     63  CB       -13.7010   -8.2410  -24.4060 C.3    71  TYR71       0.0548
     64  CG       -14.0690   -7.0820  -23.5700 C.ar   71  TYR71      -0.0200
     65  CD1      -13.2060   -6.6110  -22.6040 C.ar   71  TYR71      -0.0009
     66  CD2      -15.3490   -6.5270  -23.6370 C.ar   71  TYR71      -0.0009
     67  CE1      -13.5680   -5.6050  -21.7550 C.ar   71  TYR71       0.0417
     68  CE2      -15.7100   -5.5160  -22.8180 C.ar   71  TYR71       0.0417
     69  CZ       -14.8230   -5.0390  -21.8720 C.ar   71  TYR71       0.1957
     70  OH       -15.2160   -4.0500  -21.0240 O.3    71  TYR71      -0.2866
     71  N        -16.0200  -10.3110  -23.6930 N.am   72  ASN72      -0.1974
     72  CA       -17.3930  -10.4270  -23.2780 C.3    72  ASN72       0.1688
     73  C        -17.7280  -11.7350  -22.5830 C.2    72  ASN72       0.2292
     74  O        -17.1600  -12.7870  -22.8270 O.2    72  ASN72      -0.2864
     75  CB       -18.3110  -10.2600  -24.5040 C.3    72  ASN72       0.1181
     76  CG       -18.0320   -8.9770  -25.2990 C.2    72  ASN72       0.2629
     77  OD1      -18.4630   -7.8920  -24.8760 O.2    72  ASN72      -0.2716
     78  ND2      -17.2360   -9.0590  -26.3210 N.am   72  ASN72      -0.0877
     79  N        -24.8680  -10.2260  -24.9770 N.3    77  ARG77      -0.1182
     80  CA       -25.2950   -9.8830  -26.3200 C.3    77  ARG77       0.1910
     81  C        -24.1310   -9.9500  -27.3070 C.2    77  ARG77       0.2634
     82  O        -24.2590  -10.5930  -28.3320 O.2    77  ARG77      -0.2714
     83  CB       -25.8840   -8.4520  -26.3240 C.2    77  ARG77       0.0007
     84  CG       -26.1090   -7.8370  -27.7070 C.2    77  ARG77       0.0176
     85  CD       -26.5750   -6.3800  -27.7480 C.3    77  ARG77       0.2464
     86  NE       -27.5230   -5.9650  -26.7470 N.pl3  77  ARG77      -0.0815
     87  CZ       -27.4540   -4.8680  -25.9730 C.cat  77  ARG77       0.5349
     88  NH1      -26.4050   -4.0290  -26.0280 N.pl3  77  ARG77       0.1354
     89  NH2      -28.4480   -4.6120  -25.1410 N.pl3  77  ARG77       0.1354
     90  N        -23.0040   -9.2950  -26.9950 N.am   78  VAL78      -0.1977
     91  CA       -21.9100   -9.2020  -27.9850 C.3    78  VAL78       0.1596
     92  C        -21.2480  -10.5610  -28.2070 C.2    78  VAL78       0.2287
     93  O        -20.8020  -10.8970  -29.3060 O.2    78  VAL78      -0.2864
     94  CB       -20.9260   -8.0740  -27.6520 C.3    78  VAL78       0.0276
     95  CG1      -19.7240   -8.0360  -28.6120 C.3    78  VAL78       0.0022
     96  CG2      -21.6550   -6.7150  -27.6740 C.3    78  VAL78       0.0022
@<TRIPOS>BOND
     1    11    10    2
     2    10     9    1
     3    12     9    1
     4    12    13    1
     5     9     8    1
     6    13    15   ar
     7    13    14   ar
     8     8     3   am
     9    15    17   ar
    10    14    16   ar
    11     1     7    1
    12     1     2    1
    13     7     6    1
    14     3     2    1
    15     3     4    2
    16    17    18   ar
    17     2     5    1
    18    16    18   ar
    19     6     5    1
    20    19    20    1
    21    20    21    1
    22    20    23    1
    23    25    23    1
    24    58    55    1
    25    22    21    2
    26    93    92    2
    27    23    24    1
    28    54    55    1
    29    53    52    1
    30    95    94    1
    31    55    56    1
    32    82    81    2
    33    32    31    1
    34    92    91    1
    35    91    94    1
    36    91    90    1
    37    33    31    1
    38    85    84    1
    39    85    86    1
    40    84    83    2
    41    96    94    1
    42    56    57    2
    43    31    30    1
    44    52    51   ar
    45    52    50   ar
    46    51    49   ar
    47    81    90   am
    48    81    80    1
    49    86    87    2
    50    50    48   ar
    51    83    80    1
    52    78    76   am
    53    80    79    1
    54    49    47   ar
    55    30    27    1
    56    88    87    1
    57    87    89    1
    58    48    47   ar
    59    76    77    2
    60    76    75    1
    61    26    27    1
    62    47    46    1
    63    27    28    1
    64    41    39    1
    65    75    72    1
    66    63    60    1
    67    63    64    1
    68    59    60    1
    69    46    43    1
    70    39    38    1
    71    28    29    2
    72    71    72    1
    73    71    61   am
    74    66    64   ar
    75    66    68   ar
    76    60    61    1
    77    64    65   ar
    78    45    44    2
    79    72    73    1
    80    44    43    1
    81    61    62    2
    82    74    73    2
    83    68    69   ar
    84    43    42    1
    85    65    67   ar
    86    38    40    1
    87    38    35    1
    88    37    36    2
    89    69    67   ar
    90    69    70    1
    91    34    35    1
    92    35    36    1
