@<TRIPOS>MOLECULE
tmp/4ykkB00.pdb
 102 99 0 0 0
SMALL
GASTEIGER

@<TRIPOS>ATOM
      1  N         12.7360   96.0920   41.0140 N.3    17  GLU17      -0.1245
      2  CA        13.4160   95.1740   40.1010 C.3    17  GLU17       0.1567
      3  C         12.3240   94.5880   39.2300 C.2    17  GLU17       0.2260
      4  O         11.6540   93.6430   39.6050 O.2    17  GLU17      -0.2867
      5  CB        14.1740   94.0690   40.8400 C.3    17  GLU17       0.0388
      6  CG        14.7460   93.0100   39.9010 C.3    17  GLU17       0.1160
      7  CD        16.2240   92.8440   40.0340 C.2    17  GLU17       0.3649
      8  OE1       16.9490   93.8730   40.0000 O.co2  17  GLU17      -0.2457
      9  OE2       16.6940   91.6830   40.1340 O.co2  17  GLU17      -0.2457
     10  N         21.3760   94.9910   46.6920 N.3    63  PHE63      -0.1241
     11  CA        20.7840   93.7160   47.0750 C.3    63  PHE63       0.1605
     12  C         21.5050   93.1540   48.2820 C.2    63  PHE63       0.2264
     13  O         20.8920   92.8910   49.3300 O.2    63  PHE63      -0.2867
     14  CB        20.7510   92.7250   45.8950 C.3    63  PHE63       0.0534
     15  CG        19.5000   92.8270   45.0560 C.ar   63  PHE63      -0.0203
     16  CD1       19.3180   93.8930   44.1970 C.ar   63  PHE63      -0.0042
     17  CD2       18.4980   91.8590   45.1630 C.ar   63  PHE63      -0.0042
     18  CE1       18.1380   93.9900   43.4250 C.ar   63  PHE63      -0.0003
     19  CE2       17.3320   91.9710   44.4080 C.ar   63  PHE63      -0.0003
     20  CZ        17.1710   93.0230   43.5510 C.ar   63  PHE63      -0.0000
     21  N         13.0730   89.1360   44.2220 N.3    91  ASP91      -0.1225
     22  CA        13.7990   88.0310   43.5970 C.3    91  ASP91       0.1805
     23  C         15.1760   87.9140   44.2380 C.2    91  ASP91       0.2598
     24  O         16.1560   88.4880   43.7420 O.2    91  ASP91      -0.2718
     25  CB        13.9210   88.2300   42.0900 C.3    91  ASP91       0.1424
     26  CG        14.5810   89.5460   41.6860 C.2    91  ASP91       0.3668
     27  OD1       14.2050   90.6250   42.1940 O.co2  91  ASP91      -0.2456
     28  OD2       15.4780   89.5210   40.7710 O.co2  91  ASP91      -0.2456
     29  N         15.2660   87.2070   45.3610 N.am   92  LEU92      -0.1966
     30  CA        16.5370   87.1030   46.0770 C.3    92  LEU92       0.1728
     31  C         17.1930   85.7960   45.6850 C.2    92  LEU92       0.2616
     32  O         16.6990   84.7000   45.9740 O.2    92  LEU92      -0.2715
     33  CB        16.3610   87.1820   47.5940 C.3    92  LEU92       0.0311
     34  CG        17.6630   87.3740   48.3860 C.3    92  LEU92       0.0022
     35  CD1       18.2900   88.7400   48.1350 C.3    92  LEU92       0.0001
     36  CD2       17.4010   87.1590   49.8630 C.3    92  LEU92       0.0001
     37  N         18.3150   85.9070   44.9880 N.am   93  SER93      -0.1950
     38  CA        19.0220   84.7420   44.4990 C.3    93  SER93       0.1924
     39  C         19.7070   83.9810   45.6310 C.2    93  SER93       0.2314
     40  O         20.2460   84.5720   46.5550 O.2    93  SER93      -0.2863
     41  CB        20.0850   85.1600   43.5070 C.3    93  SER93       0.2116
     42  OG        19.4780   85.8840   42.4710 O.3    93  SER93      -0.2180
     43  N         25.4270   84.2860   51.1090 N.3    98  ARG98      -0.1245
     44  CA        24.2350   84.7240   51.8300 C.3    98  ARG98       0.1563
     45  C         23.7500   83.6700   52.8110 C.2    98  ARG98       0.2260
     46  O         23.3620   84.0030   53.9260 O.2    98  ARG98      -0.2867
     47  CB        23.1250   85.0880   50.8570 C.3    98  ARG98       0.0307
     48  CG        23.4050   86.3940   50.0970 C.3    98  ARG98       0.0489
     49  CD        22.4540   86.5950   48.9450 C.3    98  ARG98       0.2205
     50  NE        22.6660   87.8830   48.2920 N.pl3  98  ARG98      -0.0865
     51  CZ        22.0640   88.2590   47.1780 C.cat  98  ARG98       0.5346
     52  NH1       21.2120   87.4470   46.5720 N.pl3  98  ARG98       0.1354
     53  NH2       22.3160   89.4540   46.6620 N.pl3  98  ARG98       0.1354
     54  N         25.4490   92.5210   43.9760 N.3   144  ARG144     -0.1231
     55  CA        24.3420   91.7650   43.4730 C.3   144  ARG144      0.1694
     56  C         24.8290   90.3400   43.2710 C.2   144  ARG144      0.2592
     57  O         26.0260   90.0930   43.2440 O.2   144  ARG144     -0.2718
     58  CB        23.9730   92.4180   42.1710 C.3   144  ARG144      0.0321
     59  CG        22.7560   92.0350   41.5950 C.3   144  ARG144      0.0489
     60  CD        22.4790   92.9490   40.3820 C.3   144  ARG144      0.2205
     61  NE        21.4690   92.3720   39.5220 N.pl3 144  ARG144     -0.0865
     62  CZ        20.1680   92.6100   39.5820 C.cat 144  ARG144      0.5346
     63  NH1       19.6500   93.4200   40.4890 N.pl3 144  ARG144      0.1354
     64  NH2       19.3650   91.9570   38.7570 N.pl3 144  ARG144      0.1354
     65  N         23.9090   89.3980   43.1230 N.am  145  HIS145     -0.1962
     66  CA        24.2640   87.9920   43.0970 C.3   145  HIS145      0.1772
     67  C         25.2740   87.5600   42.0080 C.2   145  HIS145      0.2462
     68  O         26.1910   86.7980   42.3250 O.2   145  HIS145     -0.2730
     69  CB        22.9800   87.1910   43.0650 C.3   145  HIS145      0.0785
     70  CG        23.1510   85.7530   42.7010 C.ar  145  HIS145      0.0821
     71  ND1       23.5700   84.7880   43.5970 N.ar  145  HIS145     -0.2267
     72  CD2       22.8900   85.1200   41.5360 C.ar  145  HIS145      0.1154
     73  CE1       23.5470   83.6130   42.9890 C.ar  145  HIS145      0.1986
     74  NE2       23.1560   83.7950   41.7370 N.ar  145  HIS145     -0.2212
     75  N         25.1330   88.0010   40.7560 N.am  146  PRO146     -0.2727
     76  CA        26.0940   87.5190   39.7440 C.3   146  PRO146      0.1402
     77  C         27.5310   87.8470   40.1430 C.2   146  PRO146      0.2269
     78  O         28.4010   86.9680   40.0280 O.2   146  PRO146     -0.2865
     79  CB        25.6240   88.2360   38.4740 C.3   146  PRO146      0.0296
     80  CG        24.1150   88.4080   38.7010 C.3   146  PRO146      0.0237
     81  CD        24.0270   88.7680   40.1490 C.3   146  PRO146      0.0939
     82  N         21.1910   88.1590   35.3440 N.3   188  GLU188     -0.1245
     83  CA        20.2940   87.0250   35.5770 C.3   188  GLU188      0.1567
     84  C         19.2570   86.8790   34.4870 C.2   188  GLU188      0.2260
     85  O         18.6630   87.8580   34.0400 O.2   188  GLU188     -0.2867
     86  CB        19.6070   87.1560   36.9280 C.3   188  GLU188      0.0388
     87  CG        20.6000   87.1810   38.0790 C.3   188  GLU188      0.1160
     88  CD        19.9950   87.4220   39.4390 C.2   188  GLU188      0.3649
     89  OE1       18.8120   87.8230   39.5380 O.co2 188  GLU188     -0.2457
     90  OE2       20.7360   87.2240   40.4310 O.co2 188  GLU188     -0.2457
     91  N         15.3460   81.8670   42.9390 N.3   214  TYR214     -0.1241
     92  CA        14.8230   83.0270   43.6290 C.3   214  TYR214      0.1605
     93  C         13.9570   82.5740   44.7880 C.2   214  TYR214      0.2264
     94  O         13.0910   81.7030   44.6410 O.2   214  TYR214     -0.2867
     95  CB        13.9680   83.8810   42.7120 C.3   214  TYR214      0.0534
     96  CG        14.7050   84.5900   41.6000 C.ar  214  TYR214     -0.0201
     97  CD1       16.0120   85.0380   41.7500 C.ar  214  TYR214     -0.0009
     98  CD2       14.0610   84.8520   40.3960 C.ar  214  TYR214     -0.0009
     99  CE1       16.6540   85.7000   40.7090 C.ar  214  TYR214      0.0417
    100  CE2       14.6850   85.5080   39.3760 C.ar  214  TYR214      0.0417
    101  CZ        15.9640   85.9400   39.5320 C.ar  214  TYR214      0.1957
    102  OH        16.5650   86.6120   38.4820 O.3   214  TYR214     -0.2866
@<TRIPOS>BOND
     1    85    84    2
     2    84    83    1
     3    82    83    1
     4    83    86    1
     5    86    87    1
     6    87    88    1
     7    79    80    1
     8    79    76    1
     9   102   101    1
    10    80    81    1
    11    64    62    1
    12     3     4    2
    13     3     2    1
    14   100   101   ar
    15   100    98   ar
    16    88    89   ar
    17    88    90   ar
    18    61    62    2
    19    61    60    1
    20   101    99   ar
    21    62    63    1
    22    76    77    1
    23    76    75    1
    24     6     7    1
    25     6     5    1
    26     8     7   ar
    27    78    77    2
    28     7     9   ar
    29     2     5    1
    30     2     1    1
    31    81    75    1
    32    60    59    1
    33    98    96   ar
    34    99    97   ar
    35    75    67   am
    36    28    26   ar
    37    72    74   ar
    38    72    70   ar
    39    59    58    1
    40    96    97   ar
    41    96    95    1
    42    26    25    1
    43    26    27   ar
    44    74    73   ar
    45    67    68    2
    46    67    66    1
    47    25    22    1
    48    58    55    1
    49    42    41    1
    50    70    69    1
    51    70    71   ar
    52    95    92    1
    53    91    92    1
    54    73    71   ar
    55    69    66    1
    56    66    65    1
    57    65    56   am
    58    57    56    2
    59    56    55    1
    60    18    20   ar
    61    18    16   ar
    62    55    54    1
    63    41    38    1
    64    20    19   ar
    65    22    21    1
    66    22    23    1
    67    92    93    1
    68    24    23    2
    69    16    15   ar
    70    23    29   am
    71    19    17   ar
    72    38    37    1
    73    38    39    1
    74    94    93    2
    75    37    31   am
    76    15    17   ar
    77    15    14    1
    78    29    30    1
    79    39    40    2
    80    31    32    2
    81    31    30    1
    82    14    11    1
    83    30    33    1
    84    52    51    1
    85    53    51    1
    86    10    11    1
    87    11    12    1
    88    51    50    2
    89    33    34    1
    90    35    34    1
    91    12    13    2
    92    50    49    1
    93    34    36    1
    94    49    48    1
    95    48    47    1
    96    47    44    1
    97    43    44    1
    98    44    45    1
    99    45    46    2
