@<TRIPOS>MOLECULE
tmp/4yklA00.pdb
 162 159 0 0 0
SMALL
GASTEIGER

@<TRIPOS>ATOM
      1  N        -26.9370   84.2270   31.8690 N.3     5  ASN5       -0.1225
      2  CA       -27.0640   82.8330   32.2940 C.3     5  ASN5        0.1785
      3  C        -25.7960   81.9950   32.1190 C.2     5  ASN5        0.2597
      4  O        -25.6190   80.9990   32.8130 O.2     5  ASN5       -0.2718
      5  CB       -28.2250   82.1600   31.5590 C.3     5  ASN5        0.1169
      6  CG       -29.5730   82.6930   31.9970 C.2     5  ASN5        0.2627
      7  OD1      -29.6850   83.3530   33.0330 O.2     5  ASN5       -0.2716
      8  ND2      -30.6080   82.4160   31.2070 N.am    5  ASN5       -0.0877
      9  N        -24.9020   82.3940   31.2240 N.am    6  LEU6       -0.1980
     10  CA       -23.7050   81.5810   30.9900 C.3     6  LEU6        0.1596
     11  C        -22.6090   81.8700   32.0130 C.2     6  LEU6        0.2287
     12  O        -21.6220   81.1430   32.0960 O.2     6  LEU6       -0.2864
     13  CB       -23.1560   81.7980   29.5750 C.3     6  LEU6        0.0297
     14  CG       -24.0500   81.4220   28.3890 C.3     6  LEU6        0.0022
     15  CD1      -23.2880   81.5750   27.0810 C.3     6  LEU6        0.0001
     16  CD2      -24.6360   80.0060   28.5300 C.3     6  LEU6        0.0001
     17  N        -20.9130   79.1420   34.3460 N.3     9  TYR9       -0.1241
     18  CA       -19.9810   78.1450   33.8420 C.3     9  TYR9        0.1605
     19  C        -18.5290   78.5850   33.9430 C.2     9  TYR9        0.2264
     20  O        -17.6460   77.7480   34.0800 O.2     9  TYR9       -0.2867
     21  CB       -20.3070   77.7740   32.3880 C.3     9  TYR9        0.0534
     22  CG       -21.6650   77.1340   32.2400 C.ar    9  TYR9       -0.0201
     23  CD1      -21.9800   75.9600   32.9200 C.ar    9  TYR9       -0.0009
     24  CD2      -22.6370   77.7010   31.4310 C.ar    9  TYR9       -0.0009
     25  CE1      -23.2310   75.3690   32.8000 C.ar    9  TYR9        0.0417
     26  CE2      -23.8950   77.1160   31.3080 C.ar    9  TYR9        0.0417
     27  CZ       -24.1800   75.9550   31.9960 C.ar    9  TYR9        0.1957
     28  OH       -25.4260   75.3800   31.8710 O.3     9  TYR9       -0.2866
     29  N        -18.3960   73.3860   27.5640 N.3    29  VAL29      -0.1231
     30  CA       -19.6550   72.9840   28.1630 C.3    29  VAL29       0.1692
     31  C        -20.6840   72.6030   27.0670 C.2    29  VAL29       0.2592
     32  O        -20.6830   73.1810   25.9900 O.2    29  VAL29      -0.2718
     33  CB       -20.1990   74.1260   29.0510 C.3    29  VAL29       0.0266
     34  CG1      -20.5410   75.3600   28.2010 C.3    29  VAL29       0.0020
     35  CG2      -21.4200   73.6850   29.8600 C.3    29  VAL29       0.0020
     36  N        -21.5270   71.6100   27.3400 N.am   30  ARG30      -0.1966
     37  CA       -22.6340   71.2710   26.4570 C.3    30  ARG30       0.1729
     38  C        -23.6650   72.3920   26.4630 C.2    30  ARG30       0.2616
     39  O        -24.0380   72.8870   27.5120 O.2    30  ARG30      -0.2715
     40  CB       -23.3010   69.9600   26.8800 C.3    30  ARG30       0.0348
     41  CG       -22.3480   68.7800   26.8980 C.3    30  ARG30       0.0492
     42  CD       -23.0390   67.4360   27.1820 C.3    30  ARG30       0.2205
     43  NE       -22.0630   66.3560   27.0800 N.pl3  30  ARG30      -0.0865
     44  CZ       -21.5510   65.7180   28.1230 C.cat  30  ARG30       0.5346
     45  NH1      -21.9480   66.0270   29.3540 N.pl3  30  ARG30       0.1354
     46  NH2      -20.6510   64.7650   27.9400 N.pl3  30  ARG30       0.1354
     47  N        -24.0990   72.8110   25.2910 N.am   31  ASP31      -0.1957
     48  CA       -25.1950   73.7670   25.2110 C.3    31  ASP31       0.1840
     49  C        -26.4580   73.1650   25.8260 C.2    31  ASP31       0.2622
     50  O        -26.7410   71.9920   25.6230 O.2    31  ASP31      -0.2715
     51  CB       -25.4520   74.1460   23.7600 C.3    31  ASP31       0.1450
     52  CG       -26.2660   75.4040   23.6350 C.2    31  ASP31       0.3671
     53  OD1      -27.4950   75.3520   23.8620 O.co2  31  ASP31      -0.2456
     54  OD2      -25.6620   76.4500   23.2980 O.co2  31  ASP31      -0.2456
     55  N        -27.2310   73.9520   26.5560 N.am   32  MET32      -0.1963
     56  CA       -28.4560   73.4090   27.1390 C.3    32  MET32       0.1736
     57  C        -29.5370   73.2000   26.0850 C.2    32  MET32       0.2616
     58  O        -30.4440   72.3920   26.2610 O.2    32  MET32      -0.2715
     59  CB       -28.9810   74.3170   28.2470 C.3    32  MET32       0.0427
     60  CG       -28.3340   74.0380   29.6140 C.3    32  MET32       0.0599
     61  SD       -29.0940   74.9960   30.9270 S.3    32  MET32      -0.1393
     62  CE       -30.8230   74.5710   30.7120 C.3    32  MET32       0.0692
     63  N        -29.4370   73.9350   24.9870 N.am   33  PHE33      -0.1974
     64  CA       -30.4310   73.8470   23.9230 C.3    33  PHE33       0.1639
     65  C        -29.7440   73.5960   22.5860 C.2    33  PHE33       0.2290
     66  O        -29.7790   74.4390   21.6930 O.2    33  PHE33      -0.2864
     67  CB       -31.2740   75.1250   23.9080 C.3    33  PHE33       0.0560
     68  CG       -32.0700   75.3260   25.1810 C.ar   33  PHE33      -0.0200
     69  CD1      -33.3420   74.7870   25.3080 C.ar   33  PHE33      -0.0042
     70  CD2      -31.5270   76.0130   26.2610 C.ar   33  PHE33      -0.0042
     71  CE1      -34.0690   74.9460   26.4730 C.ar   33  PHE33      -0.0003
     72  CE2      -32.2470   76.1880   27.4320 C.ar   33  PHE33      -0.0003
     73  CZ       -33.5180   75.6480   27.5430 C.ar   33  PHE33      -0.0000
     74  N        -28.3490   73.0050   19.0190 N.3    35  LYS35      -0.1245
     75  CA       -28.9980   73.2380   17.7290 C.3    35  LYS35       0.1561
     76  C        -28.5150   72.2600   16.6680 C.2    35  LYS35       0.2260
     77  O        -28.9110   72.3540   15.5070 O.2    35  LYS35      -0.2867
     78  CB       -28.7630   74.6750   17.2690 C.3    35  LYS35       0.0271
     79  CG       -29.2640   75.7130   18.2830 C.3    35  LYS35       0.0035
     80  CD       -30.7350   75.5020   18.5910 C.3    35  LYS35       0.0206
     81  CE       -31.3480   76.6990   19.3620 C.3    35  LYS35       0.1093
     82  NZ       -30.7370   76.9840   20.6920 N.3    35  LYS35      -0.1314
     83  N        -23.3870   69.9850   20.1250 N.3    39  HIS39      -0.1241
     84  CA       -23.3180   71.4340   20.2060 C.3    39  HIS39       0.1621
     85  C        -22.6730   71.8120   21.5220 C.2    39  HIS39       0.2264
     86  O        -23.2760   71.6600   22.5710 O.2    39  HIS39      -0.2867
     87  CB       -24.7160   72.0620   20.0950 C.3    39  HIS39       0.0745
     88  CG       -24.7060   73.5580   20.0130 C.ar   39  HIS39       0.0817
     89  ND1      -25.8600   74.3030   19.8560 N.ar   39  HIS39      -0.2268
     90  CD2      -23.6820   74.4490   20.0530 C.ar   39  HIS39       0.1154
     91  CE1      -25.5480   75.5890   19.8010 C.ar   39  HIS39       0.1986
     92  NE2      -24.2330   75.7030   19.9080 N.ar   39  HIS39      -0.2212
     93  N        -20.0730   74.7270   23.7640 N.3    41  LEU41      -0.1245
     94  CA       -19.5870   76.0920   23.8890 C.3    41  LEU41       0.1561
     95  C        -18.2000   76.0950   24.5380 C.2    41  LEU41       0.2260
     96  O        -17.9490   75.3670   25.5060 O.2    41  LEU41      -0.2867
     97  CB       -20.5490   76.9450   24.7280 C.3    41  LEU41       0.0270
     98  CG       -22.0380   76.9390   24.3360 C.3    41  LEU41       0.0019
     99  CD1      -22.9050   77.7090   25.3480 C.3    41  LEU41       0.0001
    100  CD2      -22.2460   77.4600   22.9230 C.3    41  LEU41       0.0001
    101  N        -21.5870   83.8600   17.2390 N.3   106  HIS106     -0.1241
    102  CA       -22.7130   84.6030   16.6950 C.3   106  HIS106      0.1621
    103  C        -22.2880   86.0680   16.5310 C.2   106  HIS106      0.2264
    104  O        -21.5550   86.6010   17.3660 O.2   106  HIS106     -0.2867
    105  CB       -23.9420   84.4860   17.5970 C.3   106  HIS106      0.0745
    106  CG       -24.8250   83.3240   17.2650 C.ar  106  HIS106      0.0817
    107  ND1      -25.7900   82.8530   18.1250 N.ar  106  HIS106     -0.2268
    108  CD2      -24.8930   82.5420   16.1590 C.ar  106  HIS106      0.1154
    109  CE1      -26.4180   81.8340   17.5680 C.ar  106  HIS106      0.1986
    110  NE2      -25.8980   81.6280   16.3710 N.ar  106  HIS106     -0.2212
    111  N        -24.8270   87.9390   19.6030 N.3   109  PRO109     -0.2102
    112  CA       -25.1400   86.9300   20.6270 C.3   109  PRO109      0.1504
    113  C        -26.1750   87.4220   21.6200 C.2   109  PRO109      0.2576
    114  O        -26.0990   88.5690   22.0360 O.2   109  PRO109     -0.2718
    115  CB       -23.7910   86.7080   21.3280 C.3   109  PRO109      0.0282
    116  CG       -23.0690   87.9970   21.1590 C.3   109  PRO109      0.0208
    117  CD       -23.4710   88.4920   19.7710 C.3   109  PRO109      0.0893
    118  N        -27.1180   86.5730   22.0050 N.am  110  SER110     -0.1938
    119  CA       -28.0750   86.9410   23.0380 C.3   110  SER110      0.2055
    120  C        -27.4620   86.9240   24.4420 C.2   110  SER110      0.2642
    121  O        -27.9380   87.6310   25.3330 O.2   110  SER110     -0.2714
    122  CB       -29.2870   86.0160   22.9920 C.3   110  SER110      0.2130
    123  OG       -30.0600   86.2620   21.8320 O.3   110  SER110     -0.2179
    124  N        -26.4190   86.1260   24.6490 N.am  111  MET111     -0.1976
    125  CA       -25.7720   86.0610   25.9600 C.3   111  MET111      0.1605
    126  C        -24.5300   86.9450   26.0200 C.2   111  MET111      0.2287
    127  O        -23.7760   87.0190   25.0610 O.2   111  MET111     -0.2864
    128  CB       -25.3890   84.6210   26.3070 C.3   111  MET111      0.0413
    129  CG       -26.4590   83.5960   26.0190 C.3   111  MET111      0.0598
    130  SD       -27.8140   83.5980   27.1950 S.3   111  MET111     -0.1393
    131  CE       -26.8690   83.4360   28.6770 C.3   111  MET111      0.0692
    132  N        -18.8670   83.2860   24.0220 N.3   115  HIS115     -0.1241
    133  CA       -18.9280   81.8470   23.8230 C.3   115  HIS115      0.1621
    134  C        -18.7810   81.4760   22.3640 C.2   115  HIS115      0.2264
    135  O        -19.4350   82.0260   21.4750 O.2   115  HIS115     -0.2867
    136  CB       -20.2260   81.2530   24.3720 C.3   115  HIS115      0.0745
    137  CG       -21.4600   81.9120   23.8570 C.ar  115  HIS115      0.0817
    138  ND1      -21.8600   83.1630   24.2710 N.ar  115  HIS115     -0.2268
    139  CD2      -22.3900   81.4940   22.9630 C.ar  115  HIS115      0.1154
    140  CE1      -22.9860   83.4900   23.6590 C.ar  115  HIS115      0.1986
    141  NE2      -23.3310   82.4930   22.8640 N.ar  115  HIS115     -0.2212
    142  N        -19.0520   78.6370   19.5260 N.3   117  HIS117     -0.1241
    143  CA       -19.8290   77.4310   19.2220 C.3   117  HIS117      0.1621
    144  C        -18.9590   76.3900   18.5280 C.2   117  HIS117      0.2264
    145  O        -18.2100   76.7120   17.6160 O.2   117  HIS117     -0.2867
    146  CB       -21.0300   77.7490   18.3220 C.3   117  HIS117      0.0745
    147  CG       -22.0250   78.6850   18.9340 C.ar  117  HIS117      0.0817
    148  ND1      -23.0530   78.2540   19.7420 N.ar  117  HIS117     -0.2268
    149  CD2      -22.1560   80.0310   18.8410 C.ar  117  HIS117      0.1154
    150  CE1      -23.7770   79.2940   20.1250 C.ar  117  HIS117      0.1986
    151  NE2      -23.2570   80.3820   19.5890 N.ar  117  HIS117     -0.2212
    152  N        -27.0580   80.1100   12.4400 N.3   137  PHE137     -0.1241
    153  CA       -25.9000   79.2130   12.3720 C.3   137  PHE137      0.1605
    154  C        -25.4360   78.8690   10.9650 C.2   137  PHE137      0.2264
    155  O        -24.3840   78.2330   10.7990 O.2   137  PHE137     -0.2867
    156  CB       -26.1980   77.9050   13.1060 C.3   137  PHE137      0.0534
    157  CG       -26.2590   78.0520   14.6040 C.ar  137  PHE137     -0.0203
    158  CD1      -25.0980   78.1800   15.3440 C.ar  137  PHE137     -0.0042
    159  CD2      -27.4750   78.0920   15.2620 C.ar  137  PHE137     -0.0042
    160  CE1      -25.1420   78.3230   16.7320 C.ar  137  PHE137     -0.0003
    161  CE2      -27.5320   78.2450   16.6390 C.ar  137  PHE137     -0.0003
    162  CZ       -26.3590   78.3590   17.3750 C.ar  137  PHE137     -0.0000
@<TRIPOS>BOND
     1   155   154    2
     2   154   153    1
     3   153   152    1
     4   153   156    1
     5   156   157    1
     6   157   159   ar
     7   157   158   ar
     8   159   161   ar
     9   158   160   ar
    10    77    76    2
    11   108   110   ar
    12   108   106   ar
    13   110   109   ar
    14   103   102    1
    15   103   104    2
    16   161   162   ar
    17    76    75    1
    18   102   101    1
    19   102   105    1
    20   160   162   ar
    21   106   105    1
    22   106   107   ar
    23    78    75    1
    24    78    79    1
    25   109   107   ar
    26   145   144    2
    27    75    74    1
    28    79    80    1
    29   146   147    1
    30   146   143    1
    31   144   143    1
    32    80    81    1
    33   149   147   ar
    34   149   151   ar
    35   147   148   ar
    36   143   142    1
    37    81    82    1
    38   151   150   ar
    39   111   117    1
    40   111   112    1
    41   148   150   ar
    42   117   116    1
    43    91    89   ar
    44    91    92   ar
    45    89    88   ar
    46    92    90   ar
    47    88    90   ar
    48    88    87    1
    49    87    84    1
    50    83    84    1
    51    84    85    1
    52   112   115    1
    53   112   113    1
    54   116   115    1
    55   135   134    2
    56    85    86    2
    57   113   118   am
    58   113   114    2
    59    66    65    2
    60   123   122    1
    61   118   119    1
    62   134   133    1
    63    65    64    1
    64   141   139   ar
    65   141   140   ar
    66   100    98    1
    67   139   137   ar
    68   122   119    1
    69   119   120    1
    70    54    52   ar
    71    52    51    1
    72    52    53   ar
    73   140   138   ar
    74    51    48    1
    75    93    94    1
    76   133   132    1
    77   133   136    1
    78   137   138   ar
    79   137   136    1
    80    94    95    1
    81    94    97    1
    82    67    64    1
    83    67    68    1
    84    64    63    1
    85    98    97    1
    86    98    99    1
    87   120   124   am
    88   120   121    2
    89    95    96    2
    90   124   125    1
    91    63    57   am
    92   127   126    2
    93    68    69   ar
    94    68    70   ar
    95    48    47    1
    96    48    49    1
    97    47    38   am
    98    69    71   ar
    99    50    49    2
   100    49    55   am
   101   125   126    1
   102   125   128    1
   103    32    31    2
   104   129   128    1
   105   129   130    1
   106    57    58    2
   107    57    56    1
   108    70    72   ar
   109    37    38    1
   110    37    40    1
   111    37    36    1
   112    38    39    2
   113    71    73   ar
   114    55    56    1
   115    40    41    1
   116    41    42    1
   117    31    36   am
   118    31    30    1
   119    43    42    1
   120    43    44    2
   121    15    14    1
   122    56    59    1
   123   130   131    1
   124    72    73   ar
   125    29    30    1
   126    46    44    1
   127    44    45    1
   128    30    33    1
   129    34    33    1
   130    59    60    1
   131    14    16    1
   132    14    13    1
   133    33    35    1
   134    13    10    1
   135    60    61    1
   136    62    61    1
   137    10     9    1
   138    10    11    1
   139     8     6   am
   140     9     3   am
   141    26    24   ar
   142    26    27   ar
   143    24    22   ar
   144     5     6    1
   145     5     2    1
   146     1     2    1
   147    28    27    1
   148    27    25   ar
   149     6     7    2
   150    11    12    2
   151     3     2    1
   152     3     4    2
   153    22    21    1
   154    22    23   ar
   155    21    18    1
   156    25    23   ar
   157    18    19    1
   158    18    17    1
   159    19    20    2
