@<TRIPOS>MOLECULE
tmp/4ykqA00.pdb
 119 108 0 0 0
SMALL
GASTEIGER

@<TRIPOS>ATOM
      1  N          1.7820   33.1830   16.0860 N.3    33  LEU33      -0.1245
      2  CA         2.4140   32.7060   17.3350 C.3    33  LEU33       0.1561
      3  C          3.6990   33.4610   17.6370 C.2    33  LEU33       0.2260
      4  O          3.9940   33.7520   18.8000 O.2    33  LEU33      -0.2867
      5  CB         2.6830   31.1970   17.2440 C.3    33  LEU33       0.0270
      6  CG         1.4230   30.3310   17.1290 C.3    33  LEU33       0.0019
      7  CD1        1.7830   28.8930   16.8710 C.3    33  LEU33       0.0001
      8  CD2        0.5200   30.4280   18.4220 C.3    33  LEU33       0.0001
      9  N          2.6480   36.8450   19.0950 N.3    36  ASN36      -0.1225
     10  CA         2.2740   36.6840   20.5050 C.3    36  ASN36       0.1785
     11  C          3.5340   36.5950   21.3910 C.2    36  ASN36       0.2597
     12  O          3.6190   37.2690   22.4200 O.2    36  ASN36      -0.2718
     13  CB         1.4040   35.4360   20.6730 C.3    36  ASN36       0.1169
     14  CG         0.0080   35.5950   20.1230 C.2    36  ASN36       0.2627
     15  OD1       -0.4440   36.6810   19.8300 O.2    36  ASN36      -0.2716
     16  ND2       -0.6940   34.5100   19.9420 N.am   36  ASN36      -0.0877
     17  N          4.5170   35.7830   20.9790 N.am   37  SER37      -0.1952
     18  CA         5.8060   35.6480   21.6800 C.3    37  SER37       0.1924
     19  C          6.5110   36.9990   21.7570 C.2    37  SER37       0.2314
     20  O          7.0090   37.3690   22.8170 O.2    37  SER37      -0.2863
     21  CB         6.6940   34.6410   20.9680 C.3    37  SER37       0.2116
     22  OG         6.1730   33.3320   21.1180 O.3    37  SER37      -0.2180
     23  N          5.1200   39.9530   21.7160 N.3    39  ASP39      -0.1225
     24  CA         4.3480   40.7750   22.6670 C.3    39  ASP39       0.1805
     25  C          4.7130   40.4290   24.1240 C.2    39  ASP39       0.2597
     26  O          4.8480   41.3170   24.9560 O.2    39  ASP39      -0.2718
     27  CB         2.8350   40.6070   22.4510 C.3    39  ASP39       0.1424
     28  CG         2.2900   41.2100   21.1760 C.2    39  ASP39       0.3668
     29  OD1        3.0170   41.9940   20.5270 O.co2  39  ASP39      -0.2456
     30  OD2        1.1550   40.8620   20.8000 O.co2  39  ASP39      -0.2456
     31  N          4.8780   39.1370   24.4170 N.am   40  ALA40      -0.1979
     32  CA         5.2640   38.6120   25.7360 C.3    40  ALA40       0.1597
     33  C          6.6770   39.0500   26.1250 C.2    40  ALA40       0.2287
     34  O          6.9470   39.2900   27.3080 O.2    40  ALA40      -0.2864
     35  CB         5.1960   37.0920   25.7130 C.3    40  ALA40       0.0319
     36  N          6.6930   42.7440   26.9870 N.3    43  LYS43      -0.1245
     37  CA         6.1390   42.9720   28.3180 C.3    43  LYS43       0.1561
     38  C          7.1910   42.7090   29.4040 C.2    43  LYS43       0.2260
     39  O          7.3630   43.5400   30.3030 O.2    43  LYS43      -0.2867
     40  CB         4.8810   42.1070   28.5370 C.3    43  LYS43       0.0271
     41  CG         4.0180   42.5560   29.7330 C.3    43  LYS43       0.0035
     42  CD         2.6760   41.8340   29.7670 C.3    43  LYS43       0.0206
     43  CE         2.0260   41.8330   31.1340 C.3    43  LYS43       0.1093
     44  NZ         1.3740   40.5180   31.4360 N.3    43  LYS43      -0.1314
     45  N          9.2680   30.7670   23.8110 N.3    78  ASP78      -0.1239
     46  CA         9.7350   32.1390   24.0120 C.3    78  ASP78       0.1674
     47  C         10.1030   32.3080   25.4830 C.2    78  ASP78       0.2266
     48  O          9.6320   31.5160   26.3250 O.2    78  ASP78      -0.2867
     49  CB         8.7310   33.1890   23.5430 C.3    78  ASP78       0.1410
     50  CG         7.4680   33.2760   24.3680 C.2    78  ASP78       0.3668
     51  OD1        7.5570   33.6730   25.5640 O.co2  78  ASP78      -0.2456
     52  OD2        6.3880   32.9930   23.8200 O.co2  78  ASP78      -0.2456
     53  N          7.1280   37.0580   29.2940 N.3    81  ILE81      -0.1231
     54  CA         6.6420   37.2240   30.6740 C.3    81  ILE81       0.1692
     55  C          5.8560   35.9850   31.1870 C.2    81  ILE81       0.2593
     56  O          5.6760   35.8170   32.3930 O.2    81  ILE81      -0.2718
     57  CB         5.8030   38.5190   30.7850 C.3    81  ILE81       0.0266
     58  CG1        5.6700   38.9950   32.2690 C.3    81  ILE81       0.0019
     59  CG2        4.4520   38.3610   30.0780 C.3    81  ILE81       0.0020
     60  CD1        5.4130   40.4740   32.4550 C.3    81  ILE81       0.0001
     61  N          5.4010   35.1400   30.2850 N.am   82  GLY82      -0.1942
     62  CA         4.6430   33.9610   30.6850 C.3    82  GLY82       0.2014
     63  C          3.2300   34.3140   31.0900 C.2    82  GLY82       0.2638
     64  O          2.7980   35.4660   30.9430 O.2    82  GLY82      -0.2714
     65  N          2.4900   33.3030   31.5450 N.am   83  MET83      -0.1976
     66  CA         1.0930   33.4420   31.9620 C.3    83  MET83       0.1605
     67  C          0.8240   32.7690   33.2880 C.2    83  MET83       0.2287
     68  O          1.3300   31.6730   33.5200 O.2    83  MET83      -0.2864
     69  CB         0.1860   32.7700   30.9050 C.3    83  MET83       0.0413
     70  CG        -0.0450   33.6150   29.7150 C.3    83  MET83       0.0598
     71  SD        -1.2190   32.8130   28.5990 S.3    83  MET83      -0.1393
     72  CE        -0.1420   31.7480   27.6950 C.3    83  MET83       0.0692
     73  N         -6.2120   32.2170   27.7080 N.3    92  LEU92      -0.1245
     74  CA        -4.7760   32.4570   27.4660 C.3    92  LEU92       0.1561
     75  C         -4.4380   33.9490   27.3770 C.2    92  LEU92       0.2260
     76  O         -3.6610   34.3610   26.5120 O.2    92  LEU92      -0.2867
     77  CB        -4.3230   31.6980   26.1870 C.3    92  LEU92       0.0270
     78  CG        -4.6100   30.1760   26.2390 C.3    92  LEU92       0.0019
     79  CD1       -5.8290   29.8110   25.3840 C.3    92  LEU92       0.0001
     80  CD2       -3.4440   29.4040   25.7860 C.3    92  LEU92       0.0001
     81  N         -6.2030   36.4740   26.4410 N.3    94  THR94      -0.1218
     82  CA        -6.7920   37.2090   25.3120 C.3    94  THR94       0.1862
     83  C         -8.1980   37.7270   25.6590 C.2    94  THR94       0.2287
     84  O         -8.8500   37.2030   26.5710 O.2    94  THR94      -0.2866
     85  CB        -6.8850   36.3120   24.0360 C.3    94  THR94       0.1770
     86  OG1       -7.9360   35.3570   24.1960 O.3    94  THR94      -0.2211
     87  CG2       -5.5640   35.6010   23.6730 C.3    94  THR94       0.0375
     88  N         -3.8870   33.4710   18.4540 N.3   123  PHE123     -0.1241
     89  CA        -3.4940   32.1740   19.0120 C.3   123  PHE123      0.1605
     90  C         -4.2950   31.0270   18.3900 C.2   123  PHE123      0.2264
     91  O         -3.7340   29.9950   18.0490 O.2   123  PHE123     -0.2867
     92  CB        -3.6910   32.1350   20.5590 C.3   123  PHE123      0.0534
     93  CG        -3.5900   30.7240   21.0990 C.ar  123  PHE123     -0.0203
     94  CD1       -2.3610   30.0730   21.1610 C.ar  123  PHE123     -0.0042
     95  CD2       -4.7320   30.0210   21.4780 C.ar  123  PHE123     -0.0042
     96  CE1       -2.2790   28.7460   21.6150 C.ar  123  PHE123     -0.0003
     97  CE2       -4.6420   28.7080   21.9590 C.ar  123  PHE123     -0.0003
     98  CZ        -3.4220   28.0790   22.0080 C.ar  123  PHE123     -0.0000
     99  N          0.0560   24.1880   25.5950 N.3   135  VAL135     -0.1245
    100  CA         0.6990   25.4450   25.9960 C.3   135  VAL135      0.1561
    101  C          1.2860   25.2530   27.3940 C.2   135  VAL135      0.2260
    102  O          0.5360   25.1170   28.3650 O.2   135  VAL135     -0.2867
    103  CB        -0.2530   26.6580   25.9320 C.3   135  VAL135      0.0252
    104  CG1        0.4570   27.9560   26.3600 C.3   135  VAL135      0.0019
    105  CG2       -0.8710   26.8100   24.5420 C.3   135  VAL135      0.0019
    106  N          6.7690   30.9350   27.5990 N.3   169  THR169     -0.1218
    107  CA         5.6960   30.0970   27.0660 C.3   169  THR169      0.1862
    108  C          6.2140   29.2360   25.9470 C.2   169  THR169      0.2287
    109  O          7.0220   29.6690   25.1150 O.2   169  THR169     -0.2866
    110  CB         4.5220   30.9870   26.6270 C.3   169  THR169      0.1770
    111  OG1        3.9910   31.5620   27.8140 O.3   169  THR169     -0.2211
    112  CG2        3.3870   30.2150   25.8990 C.3   169  THR169      0.0375
    113  N          4.5890   26.6960   23.0180 N.3   171  VAL171     -0.1245
    114  CA         3.3620   26.2790   22.3040 C.3   171  VAL171      0.1561
    115  C          3.7110   25.0410   21.4860 C.2   171  VAL171      0.2260
    116  O          4.5170   25.1390   20.5600 O.2   171  VAL171     -0.2867
    117  CB         2.7580   27.3870   21.4090 C.3   171  VAL171      0.0252
    118  CG1        1.5290   26.8620   20.6370 C.3   171  VAL171      0.0019
    119  CG2        2.3820   28.6190   22.2300 C.3   171  VAL171      0.0019
@<TRIPOS>BOND
     1     1     2    1
     2     7     6    1
     3     6     5    1
     4     6     8    1
     5     5     2    1
     6     2     3    1
     7     3     4    2
     8    91    90    2
     9    90    89    1
    10    88    89    1
    11    89    92    1
    12     9    10    1
    13    15    14    2
    14    16    14   am
    15    14    13    1
    16    10    13    1
    17    10    11    1
    18    29    28   ar
    19    92    93    1
    20   116   115    2
    21   118   117    1
    22    30    28   ar
    23    21    22    1
    24    21    18    1
    25    17    11   am
    26    17    18    1
    27    93    94   ar
    28    93    95   ar
    29    94    96   ar
    30    28    27    1
    31    11    12    2
    32   117   119    1
    33   117   114    1
    34    95    97   ar
    35   115   114    1
    36    96    98   ar
    37    18    19    1
    38    23    24    1
    39    19    20    2
    40    97    98   ar
    41   114   113    1
    42    27    24    1
    43    24    25    1
    44    49    46    1
    45    49    50    1
    46    87    85    1
    47    45    46    1
    48    52    50   ar
    49    46    47    1
    50    85    86    1
    51    85    82    1
    52    25    31   am
    53    25    26    2
    54    50    51   ar
    55    31    32    1
    56   105   103    1
    57   109   108    2
    58    82    83    1
    59    82    81    1
    60    79    78    1
    61    47    48    2
    62    99   100    1
    63    83    84    2
    64    35    32    1
    65    32    33    1
    66    80    78    1
    67   112   110    1
    68   103   100    1
    69   103   104    1
    70   108   107    1
    71   100   101    1
    72    33    34    2
    73    77    78    1
    74    77    74    1
    75    76    75    2
    76   110   107    1
    77   110   111    1
    78    36    37    1
    79   107   106    1
    80    75    74    1
    81   101   102    2
    82    74    73    1
    83    72    71    1
    84    37    40    1
    85    37    38    1
    86    40    41    1
    87    71    70    1
    88    53    54    1
    89    38    39    2
    90    70    69    1
    91    41    42    1
    92    42    43    1
    93    59    57    1
    94    61    62    1
    95    61    55   am
    96    54    57    1
    97    54    55    1
    98    62    63    1
    99    57    58    1
   100    69    66    1
   101    64    63    2
   102    63    65   am
   103    43    44    1
   104    55    56    2
   105    65    66    1
   106    66    67    1
   107    58    60    1
   108    67    68    2
