@<TRIPOS>MOLECULE
tmp/4yktA00.pdb
 131 121 0 0 0
SMALL
GASTEIGER

@<TRIPOS>ATOM
      1  N          1.5670  -33.1640  -16.0000 N.3    33  LEU33      -0.1245
      2  CA         2.1780  -32.6850  -17.2430 C.3    33  LEU33       0.1561
      3  C          3.4670  -33.4060  -17.5580 C.2    33  LEU33       0.2260
      4  O          3.7430  -33.6720  -18.7280 O.2    33  LEU33      -0.2867
      5  CB         2.4160  -31.1720  -17.1710 C.3    33  LEU33       0.0270
      6  CG         1.1120  -30.3300  -17.0900 C.3    33  LEU33       0.0019
      7  CD1        1.4620  -28.8440  -16.9310 C.3    33  LEU33       0.0001
      8  CD2        0.1740  -30.5800  -18.3420 C.3    33  LEU33       0.0001
      9  N          2.4670  -36.7290  -19.0160 N.3    36  ASN36      -0.1225
     10  CA         2.0730  -36.5780  -20.4260 C.3    36  ASN36       0.1785
     11  C          3.3140  -36.4980  -21.3140 C.2    36  ASN36       0.2597
     12  O          3.3710  -37.1610  -22.3490 O.2    36  ASN36      -0.2718
     13  CB         1.2170  -35.3130  -20.6030 C.3    36  ASN36       0.1169
     14  CG        -0.1620  -35.4280  -20.0170 C.2    36  ASN36       0.2627
     15  OD1       -0.6060  -36.4940  -19.5930 O.2    36  ASN36      -0.2716
     16  ND2       -0.8590  -34.3140  -19.9380 N.am   36  ASN36      -0.0877
     17  N          4.3020  -35.6680  -20.9250 N.am   37  SER37      -0.1952
     18  CA         5.5710  -35.5440  -21.6590 C.3    37  SER37       0.1924
     19  C          6.2520  -36.9300  -21.7610 C.2    37  SER37       0.2314
     20  O          6.6930  -37.3050  -22.8350 O.2    37  SER37      -0.2863
     21  CB         6.5030  -34.5620  -20.9580 C.3    37  SER37       0.2116
     22  OG         5.9990  -33.2430  -21.0870 O.3    37  SER37      -0.2180
     23  N          4.8280  -39.9110  -21.7200 N.3    39  ASP39      -0.1225
     24  CA         4.0370  -40.7020  -22.6820 C.3    39  ASP39       0.1805
     25  C          4.4090  -40.3360  -24.1380 C.2    39  ASP39       0.2597
     26  O          4.5270  -41.2180  -24.9790 O.2    39  ASP39      -0.2718
     27  CB         2.5300  -40.4990  -22.4500 C.3    39  ASP39       0.1424
     28  CG         1.9870  -41.0530  -21.1470 C.2    39  ASP39       0.3668
     29  OD1        2.7100  -41.8420  -20.4800 O.co2  39  ASP39      -0.2456
     30  OD2        0.8730  -40.6350  -20.7440 O.co2  39  ASP39      -0.2456
     31  N          4.5830  -39.0310  -24.4320 N.am   40  ALA40      -0.1979
     32  CA         4.9930  -38.5270  -25.7630 C.3    40  ALA40       0.1597
     33  C          6.3960  -38.9860  -26.1240 C.2    40  ALA40       0.2287
     34  O          6.6880  -39.2270  -27.2910 O.2    40  ALA40      -0.2864
     35  CB         4.9550  -37.0070  -25.7750 C.3    40  ALA40       0.0319
     36  N          6.4130  -42.6590  -26.9270 N.3    43  LYS43      -0.1245
     37  CA         5.8280  -42.8410  -28.2550 C.3    43  LYS43       0.1561
     38  C          6.8650  -42.6020  -29.3500 C.2    43  LYS43       0.2260
     39  O          6.9870  -43.4240  -30.2550 O.2    43  LYS43      -0.2867
     40  CB         4.6150  -41.9180  -28.4430 C.3    43  LYS43       0.0271
     41  CG         3.8010  -42.1870  -29.7380 C.3    43  LYS43       0.0035
     42  CD         3.1970  -43.5800  -29.8370 C.3    43  LYS43       0.0206
     43  CE         2.2860  -43.6470  -31.0530 C.3    43  LYS43       0.1093
     44  NZ         2.0890  -45.0410  -31.5150 N.3    43  LYS43      -0.1314
     45  N          9.1310  -30.8040  -23.7870 N.3    78  ASP78      -0.1239
     46  CA         9.5760  -32.1800  -24.0200 C.3    78  ASP78       0.1674
     47  C          9.9090  -32.3300  -25.5040 C.2    78  ASP78       0.2266
     48  O          9.4400  -31.5260  -26.3310 O.2    78  ASP78      -0.2867
     49  CB         8.5340  -33.2090  -23.5480 C.3    78  ASP78       0.1410
     50  CG         7.2500  -33.2390  -24.3570 C.2    78  ASP78       0.3668
     51  OD1        7.3050  -33.6530  -25.5430 O.co2  78  ASP78      -0.2456
     52  OD2        6.1740  -32.9560  -23.7750 O.co2  78  ASP78      -0.2456
     53  N          6.8620  -37.0460  -29.2930 N.3    81  ILE81      -0.1231
     54  CA         6.3930  -37.1930  -30.6740 C.3    81  ILE81       0.1692
     55  C          5.6610  -35.9400  -31.2020 C.2    81  ILE81       0.2593
     56  O          5.4830  -35.8030  -32.4170 O.2    81  ILE81      -0.2718
     57  CB         5.5270  -38.4650  -30.8190 C.3    81  ILE81       0.0266
     58  CG1        5.3700  -38.8650  -32.3190 C.3    81  ILE81       0.0019
     59  CG2        4.2000  -38.3240  -30.0740 C.3    81  ILE81       0.0020
     60  CD1        5.3050  -40.2980  -32.5860 C.3    81  ILE81       0.0001
     61  N          5.1920  -35.1040  -30.3010 N.am   82  GLY82      -0.1942
     62  CA         4.4480  -33.9020  -30.6710 C.3    82  GLY82       0.2014
     63  C          3.0360  -34.2530  -31.0940 C.2    82  GLY82       0.2638
     64  O          2.6020  -35.4040  -30.9620 O.2    82  GLY82      -0.2714
     65  N          2.3040  -33.2470  -31.5620 N.am   83  MET83      -0.1976
     66  CA         0.9140  -33.3680  -31.9580 C.3    83  MET83       0.1605
     67  C          0.6480  -32.6780  -33.2640 C.2    83  MET83       0.2287
     68  O          1.2080  -31.6170  -33.5000 O.2    83  MET83      -0.2864
     69  CB         0.0350  -32.6870  -30.8850 C.3    83  MET83       0.0413
     70  CG        -0.1970  -33.5510  -29.6910 C.3    83  MET83       0.0598
     71  SD        -1.3620  -32.6970  -28.5880 S.3    83  MET83      -0.1393
     72  CE        -0.2470  -31.6190  -27.7220 C.3    83  MET83       0.0692
     73  N         -6.2340  -32.0810  -27.5530 N.3    92  LEU92      -0.1231
     74  CA        -4.8110  -32.3380  -27.3170 C.3    92  LEU92       0.1693
     75  C         -4.4760  -33.8490  -27.3570 C.2    92  LEU92       0.2593
     76  O         -3.6870  -34.3340  -26.5430 O.2    92  LEU92      -0.2718
     77  CB        -4.3670  -31.6930  -25.9710 C.3    92  LEU92       0.0284
     78  CG        -4.4790  -30.1540  -25.9710 C.3    92  LEU92       0.0019
     79  CD1       -5.7710  -29.7010  -25.3030 C.3    92  LEU92       0.0001
     80  CD2       -3.3100  -29.5420  -25.2900 C.3    92  LEU92       0.0001
     81  N         -5.0770  -34.5540  -28.3180 N.am   93  GLY93      -0.1942
     82  CA        -4.8520  -35.9800  -28.5620 C.3    93  GLY93       0.2014
     83  C         -5.3120  -36.9080  -27.4540 C.2    93  GLY93       0.2640
     84  O         -4.8070  -38.0310  -27.3420 O.2    93  GLY93      -0.2714
     85  N         -6.2540  -36.4420  -26.6080 N.am   94  THR94      -0.1936
     86  CA        -6.7790  -37.2180  -25.4840 C.3    94  THR94       0.2028
     87  C         -8.1590  -37.7900  -25.8200 C.2    94  THR94       0.2642
     88  O         -8.8100  -37.3480  -26.7690 O.2    94  THR94      -0.2714
     89  CB        -6.8790  -36.3470  -24.1860 C.3    94  THR94       0.1808
     90  OG1       -7.9390  -35.3910  -24.3240 O.3    94  THR94      -0.2208
     91  CG2       -5.5630  -35.6200  -23.8220 C.3    94  THR94       0.0379
     92  N         -8.6240  -38.7360  -25.0020 N.am   95  ILE95      -0.1977
     93  CA        -9.9760  -39.3040  -25.0800 C.3    95  ILE95       0.1596
     94  C        -10.8040  -38.4990  -24.0620 C.2    95  ILE95       0.2287
     95  O        -11.4140  -39.0520  -23.1550 O.2    95  ILE95      -0.2864
     96  CB        -9.9410  -40.8510  -24.7890 C.3    95  ILE95       0.0276
     97  CG1       -9.0950  -41.1760  -23.5120 C.3    95  ILE95       0.0022
     98  CG2       -9.3860  -41.5930  -26.0050 C.3    95  ILE95       0.0022
     99  CD1       -9.7630  -42.1290  -22.5570 C.3    95  ILE95       0.0001
    100  N         -4.0060  -33.4110  -18.4840 N.3   123  PHE123     -0.1241
    101  CA        -3.6080  -32.0960  -19.0300 C.3   123  PHE123      0.1605
    102  C         -4.3680  -30.9530  -18.3570 C.2   123  PHE123      0.2264
    103  O         -3.7850  -29.9110  -18.0600 O.2   123  PHE123     -0.2867
    104  CB        -3.8860  -32.0260  -20.5610 C.3   123  PHE123      0.0534
    105  CG        -3.7410  -30.6220  -21.1060 C.ar  123  PHE123     -0.0203
    106  CD1       -2.4840  -30.0240  -21.2120 C.ar  123  PHE123     -0.0042
    107  CD2       -4.8670  -29.8720  -21.4590 C.ar  123  PHE123     -0.0042
    108  CE1       -2.3590  -28.6980  -21.6440 C.ar  123  PHE123     -0.0003
    109  CE2       -4.7370  -28.5510  -21.9040 C.ar  123  PHE123     -0.0003
    110  CZ        -3.4870  -27.9760  -21.9910 C.ar  123  PHE123     -0.0000
    111  N         -0.0350  -24.0890  -25.6000 N.3   135  VAL135     -0.1245
    112  CA         0.6200  -25.3530  -25.9770 C.3   135  VAL135      0.1561
    113  C          1.2110  -25.1700  -27.3670 C.2   135  VAL135      0.2260
    114  O          0.4640  -25.0050  -28.3390 O.2   135  VAL135     -0.2867
    115  CB        -0.3500  -26.5500  -25.9020 C.3   135  VAL135      0.0252
    116  CG1        0.3380  -27.8540  -26.3300 C.3   135  VAL135      0.0019
    117  CG2       -0.9600  -26.6900  -24.5080 C.3   135  VAL135      0.0019
    118  N          6.6250  -30.8660  -27.6100 N.3   169  THR169     -0.1218
    119  CA         5.5500  -30.0120  -27.0860 C.3   169  THR169      0.1862
    120  C          6.0670  -29.1750  -25.9460 C.2   169  THR169      0.2287
    121  O          6.8380  -29.6540  -25.1040 O.2   169  THR169     -0.2866
    122  CB         4.3690  -30.9200  -26.6700 C.3   169  THR169      0.1770
    123  OG1        3.8260  -31.5060  -27.8600 O.3   169  THR169     -0.2211
    124  CG2        3.2650  -30.1950  -25.8860 C.3   169  THR169      0.0375
    125  N          4.4890  -26.6770  -22.9580 N.3   171  VAL171     -0.1245
    126  CA         3.2580  -26.2700  -22.2540 C.3   171  VAL171      0.1561
    127  C          3.6450  -25.0510  -21.4310 C.2   171  VAL171      0.2260
    128  O          4.4870  -25.1620  -20.5340 O.2   171  VAL171     -0.2867
    129  CB         2.6050  -27.3920  -21.3980 C.3   171  VAL171      0.0252
    130  CG1        1.3930  -26.8720  -20.6080 C.3   171  VAL171      0.0019
    131  CG2        2.2060  -28.5830  -22.2700 C.3   171  VAL171      0.0019
@<TRIPOS>BOND
     1    68    67    2
     2    67    66    1
     3    60    58    1
     4    56    55    2
     5    58    57    1
     6    66    65    1
     7    66    69    1
     8    65    63   am
     9    44    43    1
    10    55    54    1
    11    55    61   am
    12    63    64    2
    13    63    62    1
    14    43    42    1
    15    69    70    1
    16    57    54    1
    17    57    59    1
    18    54    53    1
    19    62    61    1
    20    39    38    2
    21    42    41    1
    22    41    40    1
    23    70    71    1
    24    38    37    1
    25    71    72    1
    26    82    81    1
    27    82    83    1
    28    40    37    1
    29   114   113    2
    30    81    75   am
    31    37    36    1
    32   123   122    1
    33   118   119    1
    34    73    74    1
    35    83    84    2
    36    83    85   am
    37   113   112    1
    38    75    74    1
    39    75    76    2
    40    74    77    1
    41    34    33    2
    42   119   122    1
    43   119   120    1
    44    88    87    2
    45   122   124    1
    46    85    86    1
    47    48    47    2
    48   116   115    1
    49    33    32    1
    50    98    96    1
    51   112   115    1
    52   112   111    1
    53    77    78    1
    54    78    79    1
    55    78    80    1
    56   120   121    2
    57   115   117    1
    58    87    86    1
    59    87    92   am
    60    35    32    1
    61    32    31    1
    62    51    50   ar
    63    47    46    1
    64    86    89    1
    65    93    92    1
    66    93    96    1
    67    93    94    1
    68    26    25    2
    69    96    97    1
    70    31    25   am
    71    50    52   ar
    72    50    49    1
    73    90    89    1
    74    89    91    1
    75    25    24    1
    76    94    95    2
    77    46    45    1
    78    46    49    1
    79    97    99    1
    80   125   126    1
    81    20    19    2
    82    24    27    1
    83    24    23    1
    84    27    28    1
    85    12    11    2
    86   131   129    1
    87   126   127    1
    88   126   129    1
    89   110   109   ar
    90   110   108   ar
    91   109   107   ar
    92    19    18    1
    93    18    21    1
    94    18    17    1
    95   108   106   ar
    96   107   105   ar
    97   127   128    2
    98   129   130    1
    99    11    17   am
   100    11    10    1
   101   106   105   ar
   102    28    30   ar
   103    28    29   ar
   104   105   104    1
   105    22    21    1
   106    13    10    1
   107    13    14    1
   108   104   101    1
   109    10     9    1
   110    14    16   am
   111    14    15    2
   112   101   100    1
   113   101   102    1
   114     4     3    2
   115   102   103    2
   116     8     6    1
   117     3     2    1
   118     2     5    1
   119     2     1    1
   120     5     6    1
   121     6     7    1
