@<TRIPOS>MOLECULE
tmp/4ykuA00.pdb
 146 136 0 0 0
SMALL
GASTEIGER

@<TRIPOS>ATOM
      1  N          1.7900  -11.3770  -33.9060 N.3    33  LEU33      -0.1245
      2  CA         2.4370  -11.8510  -32.6760 C.3    33  LEU33       0.1561
      3  C          3.7450  -11.1240  -32.3930 C.2    33  LEU33       0.2260
      4  O          4.0090  -10.8010  -31.2340 O.2    33  LEU33      -0.2867
      5  CB         2.6530  -13.3650  -32.7240 C.3    33  LEU33       0.0270
      6  CG         1.3550  -14.1720  -32.8980 C.3    33  LEU33       0.0019
      7  CD1        1.6640  -15.6650  -33.0280 C.3    33  LEU33       0.0001
      8  CD2        0.3680  -13.9570  -31.7000 C.3    33  LEU33       0.0001
      9  N          2.8080   -7.7920  -30.9100 N.3    36  ASN36      -0.1225
     10  CA         2.4320   -7.9050  -29.5060 C.3    36  ASN36       0.1785
     11  C          3.6830   -8.0230  -28.6370 C.2    36  ASN36       0.2597
     12  O          3.7400   -7.4190  -27.5590 O.2    36  ASN36      -0.2718
     13  CB         1.5280   -9.1230  -29.3210 C.3    36  ASN36       0.1169
     14  CG         0.1100   -8.8970  -29.7830 C.2    36  ASN36       0.2627
     15  OD1       -0.3150   -7.7760  -30.1080 O.2    36  ASN36      -0.2716
     16  ND2       -0.6860   -9.9480  -29.7370 N.am   36  ASN36      -0.0877
     17  N          4.6960   -8.7920  -29.1090 N.am   37  SER37      -0.1952
     18  CA         5.9590   -8.9610  -28.3620 C.3    37  SER37       0.1924
     19  C          6.6630   -7.5930  -28.2550 C.2    37  SER37       0.2314
     20  O          7.1170   -7.2210  -27.1720 O.2    37  SER37      -0.2863
     21  CB         6.8640   -9.9740  -29.0660 C.3    37  SER37       0.2116
     22  OG         6.3610  -11.2930  -28.9250 O.3    37  SER37      -0.2180
     23  N          4.9570   -5.4700  -25.6340 N.3    40  ALA40      -0.1245
     24  CA         5.2890   -5.9750  -24.3030 C.3    40  ALA40       0.1562
     25  C          6.7040   -5.5660  -23.8830 C.2    40  ALA40       0.2260
     26  O          6.9630   -5.2960  -22.7070 O.2    40  ALA40      -0.2867
     27  CB         5.1800   -7.4830  -24.3030 C.3    40  ALA40       0.0290
     28  N          6.7270   -1.9340  -22.9290 N.3    43  LYS43      -0.1245
     29  CA         6.1450   -1.7230  -21.5990 C.3    43  LYS43       0.1561
     30  C          7.1520   -1.9810  -20.4720 C.2    43  LYS43       0.2260
     31  O          7.2450   -1.1640  -19.5590 O.2    43  LYS43      -0.2867
     32  CB         4.9010   -2.6020  -21.4090 C.3    43  LYS43       0.0271
     33  CG         3.6990   -2.1030  -22.2190 C.3    43  LYS43       0.0035
     34  CD         2.4950   -3.0400  -22.1040 C.3    43  LYS43       0.0206
     35  CE         1.4120   -2.6300  -23.0810 C.3    43  LYS43       0.1093
     36  NZ         0.3630   -3.6740  -23.2170 N.3    43  LYS43      -0.1314
     37  N          9.3080  -13.7500  -26.1470 N.3    78  ASP78      -0.1239
     38  CA         9.8360  -12.4170  -25.8680 C.3    78  ASP78       0.1674
     39  C         10.1860  -12.3000  -24.3830 C.2    78  ASP78       0.2266
     40  O          9.7140  -13.1040  -23.5570 O.2    78  ASP78      -0.2867
     41  CB         8.8900  -11.2880  -26.2920 C.3    78  ASP78       0.1410
     42  CG         7.5830  -11.2610  -25.5180 C.2    78  ASP78       0.3668
     43  OD1        7.6120  -10.9430  -24.2940 O.co2  78  ASP78      -0.2456
     44  OD2        6.5340  -11.5320  -26.1330 O.co2  78  ASP78      -0.2456
     45  N          7.0430   -7.5400  -20.7960 N.3    81  ILE81      -0.1231
     46  CA         6.4550   -7.3700  -19.4610 C.3    81  ILE81       0.1692
     47  C          5.7580   -8.6330  -18.9290 C.2    81  ILE81       0.2593
     48  O          5.6520   -8.7820  -17.6980 O.2    81  ILE81      -0.2718
     49  CB         5.5040   -6.1350  -19.4360 C.3    81  ILE81       0.0266
     50  CG1        5.2350   -5.6470  -17.9830 C.3    81  ILE81       0.0019
     51  CG2        4.2220   -6.3530  -20.2570 C.3    81  ILE81       0.0020
     52  CD1        4.8420   -4.1900  -17.8530 C.3    81  ILE81       0.0001
     53  N          5.2860   -9.5060  -19.8200 N.am   82  GLY82      -0.1942
     54  CA         4.5750  -10.7010  -19.4040 C.3    82  GLY82       0.2014
     55  C          3.1960  -10.3170  -18.8930 C.2    82  GLY82       0.2638
     56  O          2.8010   -9.1440  -18.9340 O.2    82  GLY82      -0.2714
     57  N          2.4470  -11.3210  -18.4400 N.am   83  MET83      -0.1976
     58  CA         1.0690  -11.1050  -17.9810 C.3    83  MET83       0.1605
     59  C          0.8020  -11.7970  -16.6610 C.2    83  MET83       0.2287
     60  O          1.3040  -12.8950  -16.4310 O.2    83  MET83      -0.2864
     61  CB         0.0420  -11.6420  -19.0260 C.3    83  MET83       0.0413
     62  CG         0.0410  -10.8890  -20.3640 C.3    83  MET83       0.0598
     63  SD        -0.9780  -11.7200  -21.6230 S.3    83  MET83      -0.1393
     64  CE         0.1230  -13.0030  -22.1350 C.3    83  MET83       0.0692
     65  N         -9.0070  -11.9010  -21.1910 N.3    91  ASN91      -0.1225
     66  CA        -8.6610  -11.8760  -22.6220 C.3    91  ASN91       0.1785
     67  C         -7.2070  -11.4560  -22.8900 C.2    91  ASN91       0.2597
     68  O         -6.9290  -10.6210  -23.7510 O.2    91  ASN91      -0.2718
     69  CB        -9.6380  -10.9980  -23.4180 C.3    91  ASN91       0.1169
     70  CG       -11.0410  -11.5470  -23.3310 C.2    91  ASN91       0.2627
     71  OD1      -11.2600  -12.7470  -23.5330 O.2    91  ASN91      -0.2716
     72  ND2      -11.9790  -10.7270  -22.8690 N.am   91  ASN91      -0.0877
     73  N         -6.2820  -12.0520  -22.1430 N.am   92  LEU92      -0.1966
     74  CA        -4.8580  -11.8250  -22.3380 C.3    92  LEU92       0.1728
     75  C         -4.4610  -10.3290  -22.3290 C.2    92  LEU92       0.2617
     76  O         -3.6320   -9.8900  -23.1350 O.2    92  LEU92      -0.2715
     77  CB        -4.3700  -12.5130  -23.6100 C.3    92  LEU92       0.0311
     78  CG        -4.6900  -14.0270  -23.6160 C.3    92  LEU92       0.0022
     79  CD1       -5.7010  -14.3580  -24.6570 C.3    92  LEU92       0.0001
     80  CD2       -3.4730  -14.8570  -23.7460 C.3    92  LEU92       0.0001
     81  N         -4.9990   -9.6000  -21.3580 N.am   93  GLY93      -0.1940
     82  CA        -4.6490   -8.2030  -21.1140 C.3    93  GLY93       0.2014
     83  C         -5.1630   -7.1930  -22.1090 C.2    93  GLY93       0.2639
     84  O         -4.6580   -6.0650  -22.1490 O.2    93  GLY93      -0.2714
     85  N         -6.1820   -7.5750  -22.8960 N.am   94  THR94      -0.1950
     86  CA        -6.7830   -6.7440  -23.9590 C.3    94  THR94       0.1897
     87  C         -8.2320   -6.4340  -23.7840 C.2    94  THR94       0.2313
     88  O         -8.9130   -7.1520  -23.0760 O.2    94  THR94      -0.2863
     89  CB        -6.7710   -7.4910  -25.3060 C.3    94  THR94       0.1794
     90  OG1       -7.7050   -8.5870  -25.2640 O.3    94  THR94      -0.2208
     91  CG2       -5.4370   -7.9350  -25.7040 C.3    94  THR94       0.0378
     92  N         -6.9340   -4.3660  -31.9560 N.3   120  GLY120     -0.1210
     93  CA        -6.3880   -4.9050  -30.7170 C.3   120  GLY120      0.1956
     94  C         -6.6890   -6.3690  -30.4620 C.2   120  GLY120      0.2611
     95  O         -6.5810   -6.8210  -29.3250 O.2   120  GLY120     -0.2717
     96  N         -7.0650   -7.1050  -31.5180 N.am  121  VAL121     -0.1979
     97  CA        -7.3920   -8.5490  -31.4230 C.3   121  VAL121      0.1595
     98  C         -6.5330   -9.3920  -32.3990 C.2   121  VAL121      0.2287
     99  O         -6.8940  -10.5270  -32.7300 O.2   121  VAL121     -0.2864
    100  CB        -8.9170   -8.8160  -31.5990 C.3   121  VAL121      0.0276
    101  CG1       -9.6890   -8.3580  -30.3650 C.3   121  VAL121      0.0022
    102  CG2       -9.4770   -8.1600  -32.8690 C.3   121  VAL121      0.0022
    103  N         -3.8960  -11.0770  -31.8760 N.3   123  PHE123     -0.1227
    104  CA        -3.5240  -12.3760  -31.2930 C.3   123  PHE123      0.1736
    105  C         -4.3410  -13.5290  -31.8910 C.2   123  PHE123      0.2595
    106  O         -3.7860  -14.5870  -32.1910 O.2   123  PHE123     -0.2718
    107  CB        -3.7130  -12.3730  -29.7590 C.3   123  PHE123      0.0547
    108  CG        -3.6060  -13.7440  -29.1400 C.ar  123  PHE123     -0.0202
    109  CD1       -2.3610  -14.3470  -28.9510 C.ar  123  PHE123     -0.0042
    110  CD2       -4.7480  -14.4600  -28.7950 C.ar  123  PHE123     -0.0042
    111  CE1       -2.2640  -15.6390  -28.4230 C.ar  123  PHE123     -0.0003
    112  CE2       -4.6490  -15.7400  -28.2310 C.ar  123  PHE123     -0.0003
    113  CZ        -3.4110  -16.3160  -28.0510 C.ar  123  PHE123     -0.0000
    114  N         -5.6590  -13.3500  -32.0230 N.am  124  TYR124     -0.1976
    115  CA        -6.5350  -14.4320  -32.4680 C.3   124  TYR124      0.1639
    116  C         -6.2990  -14.8370  -33.9230 C.2   124  TYR124      0.2290
    117  O         -6.7610  -15.9160  -34.2930 O.2   124  TYR124     -0.2864
    118  CB        -8.0100  -14.1140  -32.1980 C.3   124  TYR124      0.0560
    119  CG        -8.2580  -13.8230  -30.7320 C.ar  124  TYR124     -0.0198
    120  CD1       -8.4350  -14.8550  -29.8170 C.ar  124  TYR124     -0.0009
    121  CD2       -8.2190  -12.5180  -30.2450 C.ar  124  TYR124     -0.0009
    122  CE1       -8.6130  -14.5940  -28.4570 C.ar  124  TYR124      0.0417
    123  CE2       -8.4020  -12.2440  -28.8950 C.ar  124  TYR124      0.0417
    124  CZ        -8.5890  -13.2840  -28.0010 C.ar  124  TYR124      0.1957
    125  OH        -8.7370  -12.9950  -26.6700 O.3   124  TYR124     -0.2866
    126  N         -0.0260  -20.2430  -24.3070 N.3   135  VAL135     -0.1245
    127  CA         0.6610  -18.9970  -23.9640 C.3   135  VAL135      0.1561
    128  C          1.2600  -19.1810  -22.5770 C.2   135  VAL135      0.2260
    129  O          0.5030  -19.3240  -21.6050 O.2   135  VAL135     -0.2867
    130  CB        -0.2700  -17.7620  -24.0450 C.3   135  VAL135      0.0252
    131  CG1        0.4350  -16.4990  -23.5380 C.3   135  VAL135      0.0019
    132  CG2       -0.8120  -17.5580  -25.4750 C.3   135  VAL135      0.0019
    133  N          6.8880  -13.7060  -22.3220 N.3   169  THR169     -0.1218
    134  CA         5.8110  -14.5520  -22.8440 C.3   169  THR169      0.1862
    135  C          6.3140  -15.4280  -23.9700 C.2   169  THR169      0.2287
    136  O          7.1540  -15.0090  -24.7820 O.2   169  THR169     -0.2866
    137  CB         4.6550  -13.6350  -23.3480 C.3   169  THR169      0.1770
    138  OG1        4.1800  -12.8340  -22.2640 O.3   169  THR169     -0.2211
    139  CG2        3.4680  -14.3970  -23.9640 C.3   169  THR169      0.0375
    140  N          4.5120  -17.7620  -26.9900 N.3   171  VAL171     -0.1245
    141  CA         3.2680  -18.1340  -27.6870 C.3   171  VAL171      0.1561
    142  C          3.6100  -19.3460  -28.5150 C.2   171  VAL171      0.2260
    143  O          4.3990  -19.2400  -29.4590 O.2   171  VAL171     -0.2867
    144  CB         2.6750  -16.9870  -28.5470 C.3   171  VAL171      0.0252
    145  CG1        1.4320  -17.4570  -29.3190 C.3   171  VAL171      0.0019
    146  CG2        2.3550  -15.7610  -27.6810 C.3   171  VAL171      0.0019
@<TRIPOS>BOND
     1   117   116    2
     2   116   115    1
     3     1     2    1
     4     7     6    1
     5     6     5    1
     6     6     8    1
     7   102   100    1
     8    99    98    2
     9     5     2    1
    10     2     3    1
    11   115   118    1
    12   115   114    1
    13    98    97    1
    14     3     4    2
    15   118   119    1
    16   106   105    2
    17   114   105   am
    18    92    93    1
    19   105   104    1
    20   103   104    1
    21   100    97    1
    22   100   101    1
    23    96    97    1
    24    96    94   am
    25   104   107    1
    26     9    10    1
    27   119   121   ar
    28   119   120   ar
    29    93    94    1
    30    94    95    2
    31   121   123   ar
    32    15    14    2
    33   120   122   ar
    34    14    16   am
    35    14    13    1
    36   107   108    1
    37    10    13    1
    38    10    11    1
    39   143   142    2
    40   145   144    1
    41   108   109   ar
    42   108   110   ar
    43    17    11   am
    44    17    18    1
    45    21    22    1
    46    21    18    1
    47   109   111   ar
    48   123   124   ar
    49   110   112   ar
    50    11    12    2
    51   144   141    1
    52   144   146    1
    53   142   141    1
    54   122   124   ar
    55   111   113   ar
    56    18    19    1
    57    19    20    2
    58   112   113   ar
    59   124   125    1
    60   141   140    1
    61    41    38    1
    62    41    42    1
    63    37    38    1
    64    44    42   ar
    65    38    39    1
    66    91    89    1
    67    23    24    1
    68    42    43   ar
    69   132   130    1
    70    89    90    1
    71    89    86    1
    72   136   135    2
    73    79    78    1
    74    39    40    2
    75   126   127    1
    76    27    24    1
    77    24    25    1
    78   130   127    1
    79   130   131    1
    80   135   134    1
    81   139   137    1
    82   127   128    1
    83    86    87    1
    84    86    85    1
    85    25    26    2
    86    87    88    2
    87    68    67    2
    88    80    78    1
    89    78    77    1
    90    77    74    1
    91    71    70    2
    92    69    70    1
    93    69    66    1
    94   137   134    1
    95   137   138    1
    96    70    72   am
    97    36    35    1
    98    76    75    2
    99    35    34    1
   100    28    29    1
   101    85    83   am
   102    67    66    1
   103    67    73   am
   104   134   133    1
   105    66    65    1
   106   128   129    2
   107    74    75    1
   108    74    73    1
   109    75    81   am
   110    33    34    1
   111    33    32    1
   112    84    83    2
   113    64    63    1
   114    83    82    1
   115    63    62    1
   116    29    32    1
   117    29    30    1
   118    81    82    1
   119    45    46    1
   120    30    31    2
   121    62    61    1
   122    51    49    1
   123    53    54    1
   124    53    47   am
   125    46    49    1
   126    46    47    1
   127    49    50    1
   128    54    55    1
   129    61    58    1
   130    56    55    2
   131    47    48    2
   132    55    57   am
   133    57    58    1
   134    50    52    1
   135    58    59    1
   136    59    60    2
