@<TRIPOS>MOLECULE
tmp/4ykwB00.pdb
 135 125 0 0 0
SMALL
GASTEIGER

@<TRIPOS>ATOM
      1  N         19.0770  -15.0560   23.0050 N.3    38  LEU38      -0.1245
      2  CA        18.0530  -14.3440   23.7580 C.3    38  LEU38       0.1561
      3  C         18.2460  -12.8210   23.6690 C.2    38  LEU38       0.2260
      4  O         17.2580  -12.1060   23.4930 O.2    38  LEU38      -0.2867
      5  CB        18.0120  -14.8190   25.2230 C.3    38  LEU38       0.0270
      6  CG        17.6290  -16.2980   25.4530 C.3    38  LEU38       0.0019
      7  CD1       17.6060  -16.6230   26.9320 C.3    38  LEU38       0.0001
      8  CD2       16.2610  -16.6380   24.8500 C.3    38  LEU38       0.0001
      9  N         17.1890  -11.6630   20.2490 N.3    41  ASN41      -0.1225
     10  CA        15.7280  -11.5620   20.2420 C.3    41  ASN41       0.1785
     11  C         15.2720  -10.2770   20.9170 C.2    41  ASN41       0.2597
     12  O         14.3690   -9.6110   20.4100 O.2    41  ASN41      -0.2718
     13  CB        15.0790  -12.7710   20.9380 C.3    41  ASN41       0.1169
     14  CG        14.8860  -13.9780   20.0500 C.2    41  ASN41       0.2627
     15  OD1       14.8840  -13.8770   18.8270 O.2    41  ASN41      -0.2716
     16  ND2       14.6710  -15.1470   20.6510 N.am   41  ASN41      -0.0877
     17  N         15.8810   -9.9350   22.0800 N.am   42  SER42      -0.1952
     18  CA        15.5520   -8.7220   22.8230 C.3    42  SER42       0.1924
     19  C         15.8470   -7.4610   21.9720 C.2    42  SER42       0.2314
     20  O         15.0150   -6.5450   21.9310 O.2    42  SER42      -0.2863
     21  CB        16.3150   -8.6860   24.1450 C.3    42  SER42       0.2116
     22  OG        15.7460   -9.6210   25.0550 O.3    42  SER42      -0.2180
     23  N         13.2110   -6.9940   19.2770 N.3    45  ALA45      -0.1245
     24  CA        11.9910   -6.4880   19.9050 C.3    45  ALA45       0.1562
     25  C         12.1140   -5.0040   20.2230 C.2    45  ALA45       0.2260
     26  O         11.1310   -4.2700   20.1090 O.2    45  ALA45      -0.2867
     27  CB        11.6890   -7.2650   21.1730 C.3    45  ALA45       0.0290
     28  N         13.6800   -7.2560   28.6640 N.3    83  ASP83      -0.1239
     29  CA        13.7870   -6.1460   27.7240 C.3    83  ASP83       0.1674
     30  C         12.5260   -5.2920   27.7910 C.2    83  ASP83       0.2266
     31  O         11.4860   -5.7460   28.2860 O.2    83  ASP83      -0.2867
     32  CB        14.0460   -6.6370   26.2860 C.3    83  ASP83       0.1410
     33  CG        12.8980   -7.4310   25.6980 C.2    83  ASP83       0.3668
     34  OD1       11.8220   -6.8410   25.4810 O.co2  83  ASP83      -0.2456
     35  OD2       13.0760   -8.6480   25.4630 O.co2  83  ASP83      -0.2456
     36  N          8.9030   -4.5200   22.0800 N.3    86  ILE86      -0.1231
     37  CA         7.4910   -4.4820   21.6600 C.3    86  ILE86       0.1692
     38  C          6.6000   -5.4180   22.5130 C.2    86  ILE86       0.2593
     39  O          5.4280   -5.1100   22.7210 O.2    86  ILE86      -0.2718
     40  CB         7.3700   -4.8110   20.1340 C.3    86  ILE86       0.0266
     41  CG1        5.9340   -4.5900   19.5690 C.3    86  ILE86       0.0019
     42  CG2        7.9010   -6.2120   19.7910 C.3    86  ILE86       0.0020
     43  CD1        5.6010   -3.2360   19.1020 C.3    86  ILE86       0.0001
     44  N          7.1560   -6.5350   22.9930 N.am   87  GLY87      -0.1942
     45  CA         6.3800   -7.5220   23.7370 C.3    87  GLY87       0.2014
     46  C          5.5120   -8.3260   22.7820 C.2    87  GLY87       0.2638
     47  O          5.5340   -8.1010   21.5620 O.2    87  GLY87      -0.2714
     48  N          4.7460   -9.2790   23.3240 N.am   88  MET88      -0.1976
     49  CA         3.9000  -10.1390   22.5030 C.3    88  MET88       0.1605
     50  C          2.4620  -10.1190   22.9560 C.2    88  MET88       0.2287
     51  O          2.1990  -10.1770   24.1560 O.2    88  MET88      -0.2864
     52  CB         4.4050  -11.5940   22.5590 C.3    88  MET88       0.0413
     53  CG         5.6680  -11.8430   21.7720 C.3    88  MET88       0.0598
     54  SD         6.2910  -13.5240   22.0330 S.3    88  MET88      -0.1393
     55  CE         7.1610  -13.3150   23.6210 C.3    88  MET88       0.0692
     56  N          4.5590  -17.6900   18.0750 N.3    96  ASN96      -0.1225
     57  CA         6.0170  -17.6550   18.0920 C.3    96  ASN96       0.1785
     58  C          6.6600  -18.6360   19.0630 C.2    96  ASN96       0.2597
     59  O          7.8430  -18.9360   18.8890 O.2    96  ASN96      -0.2718
     60  CB         6.5170  -16.2400   18.3970 C.3    96  ASN96       0.1169
     61  CG         6.4770  -15.3230   17.2020 C.2    96  ASN96       0.2627
     62  OD1        7.4650  -15.1640   16.4810 O.2    96  ASN96      -0.2716
     63  ND2        5.3360  -14.7010   16.9610 N.am   96  ASN96      -0.0877
     64  N          5.9210  -19.1370   20.0680 N.am   97  LEU97      -0.1980
     65  CA         6.5480  -20.0130   21.0570 C.3    97  LEU97       0.1596
     66  C          5.9940  -21.4560   21.0940 C.2    97  LEU97       0.2287
     67  O          5.7010  -21.9770   22.1720 O.2    97  LEU97      -0.2864
     68  CB         6.4860  -19.3730   22.4600 C.3    97  LEU97       0.0297
     69  CG         7.5630  -18.3260   22.7550 C.3    97  LEU97       0.0022
     70  CD1        7.1510  -16.9630   22.2660 C.3    97  LEU97       0.0001
     71  CD2        7.8200  -18.2250   24.2190 C.3    97  LEU97       0.0001
     72  N          8.2310  -21.9100   12.9120 N.3   102  LYS102     -0.1245
     73  CA         8.6070  -20.5410   12.5400 C.3   102  LYS102      0.1561
     74  C          9.7990  -20.5940   11.5750 C.2   102  LYS102      0.2260
     75  O         10.4630  -21.6300   11.4770 O.2   102  LYS102     -0.2867
     76  CB         8.9510  -19.6750   13.7780 C.3   102  LYS102      0.0271
     77  CG         7.7810  -19.4900   14.7500 C.3   102  LYS102      0.0035
     78  CD         7.1740  -18.0930   14.6770 C.3   102  LYS102      0.0206
     79  CE         6.0420  -17.9530   13.6880 C.3   102  LYS102      0.1093
     80  NZ         5.9910  -16.5730   13.1420 N.3   102  LYS102     -0.1314
     81  N         13.8190  -15.8160   15.6260 N.3   125  GLY125     -0.1210
     82  CA        13.2410  -15.9470   16.9610 C.3   125  GLY125      0.1956
     83  C         13.5250  -17.2750   17.6240 C.2   125  GLY125      0.2611
     84  O         13.8920  -17.3080   18.7950 O.2   125  GLY125     -0.2717
     85  N         13.4100  -18.3890   16.8300 N.am  126  VAL126     -0.1979
     86  CA        13.6590  -19.8280   17.1030 C.3   126  VAL126      0.1595
     87  C         14.9180  -20.0930   17.9780 C.2   126  VAL126      0.2287
     88  O         14.8930  -21.0290   18.7690 O.2   126  VAL126     -0.2864
     89  CB        13.7100  -20.7130   15.7830 C.3   126  VAL126      0.0276
     90  CG1       14.3300  -19.9720   14.6140 C.3   126  VAL126      0.0022
     91  CG2       14.4070  -22.0720   15.9810 C.3   126  VAL126      0.0022
     92  N         15.7120  -19.0890   20.4500 N.3   128  PHE128     -0.1227
     93  CA        15.0820  -19.1330   21.7750 C.3   128  PHE128      0.1736
     94  C         15.2340  -20.5110   22.4550 C.2   128  PHE128      0.2595
     95  O         15.5170  -20.5620   23.6320 O.2   128  PHE128     -0.2718
     96  CB        13.5720  -18.7740   21.6770 C.3   128  PHE128      0.0547
     97  CG        12.7560  -19.0390   22.9260 C.ar  128  PHE128     -0.0202
     98  CD1       12.8210  -18.1750   24.0210 C.ar  128  PHE128     -0.0042
     99  CD2       11.9510  -20.1730   23.0220 C.ar  128  PHE128     -0.0042
    100  CE1       12.1000  -18.4440   25.1770 C.ar  128  PHE128     -0.0003
    101  CE2       11.2290  -20.4360   24.1750 C.ar  128  PHE128     -0.0003
    102  CZ        11.3110  -19.5770   25.2530 C.ar  128  PHE128     -0.0000
    103  N         15.0010  -21.6130   21.6960 N.am  129  TYR129     -0.1976
    104  CA        15.0390  -22.9920   22.2050 C.3   129  TYR129      0.1639
    105  C         16.4290  -23.4270   22.6820 C.2   129  TYR129      0.2290
    106  O         16.4990  -24.3530   23.4970 O.2   129  TYR129     -0.2864
    107  CB        14.4450  -23.9830   21.1740 C.3   129  TYR129      0.0560
    108  CG        12.9870  -23.6830   20.8920 C.ar  129  TYR129     -0.0198
    109  CD1       11.9970  -23.9880   21.8260 C.ar  129  TYR129     -0.0009
    110  CD2       12.6080  -22.9840   19.7480 C.ar  129  TYR129     -0.0009
    111  CE1       10.6670  -23.6280   21.6130 C.ar  129  TYR129      0.0417
    112  CE2       11.2820  -22.6270   19.5240 C.ar  129  TYR129      0.0417
    113  CZ        10.3110  -22.9720   20.4470 C.ar  129  TYR129      0.1957
    114  OH         9.0000  -22.6360   20.2150 O.3   129  TYR129     -0.2866
    115  N          8.2190  -17.3660   30.1820 N.3   140  VAL140     -0.1245
    116  CA         8.2530  -16.1160   29.4170 C.3   140  VAL140      0.1561
    117  C          7.0790  -15.2490   29.8880 C.2   140  VAL140      0.2260
    118  O          5.9280  -15.6940   29.8180 O.2   140  VAL140     -0.2867
    119  CB         8.2390  -16.3420   27.8680 C.3   140  VAL140      0.0252
    120  CG1        8.1820  -15.0130   27.1090 C.3   140  VAL140      0.0019
    121  CG2        9.4330  -17.1670   27.4070 C.3   140  VAL140      0.0019
    122  N          9.3280   -8.0510   27.4050 N.3   174  THR174     -0.1218
    123  CA         9.3810   -9.4950   27.6080 C.3   174  THR174      0.1862
    124  C         10.4600   -9.8560   28.6120 C.2   174  THR174      0.2287
    125  O         11.5600   -9.2600   28.5580 O.2   174  THR174     -0.2866
    126  CB         9.6590  -10.1810   26.2480 C.3   174  THR174      0.1770
    127  OG1        8.6250   -9.8370   25.3220 O.3   174  THR174     -0.2211
    128  CG2        9.7480  -11.7060   26.3330 C.3   174  THR174      0.0375
    129  N         12.4160  -13.3570   29.9740 N.3   176  VAL176     -0.1245
    130  CA        12.6670  -14.7880   29.7750 C.3   176  VAL176      0.1561
    131  C         13.3870  -15.2840   31.0440 C.2   176  VAL176      0.2260
    132  O         14.5200  -14.8680   31.3100 O.2   176  VAL176     -0.2867
    133  CB        13.4910  -15.0470   28.4930 C.3   176  VAL176      0.0252
    134  CG1       13.7700  -16.5260   28.3320 C.3   176  VAL176      0.0019
    135  CG2       12.7610  -14.4880   27.2860 C.3   176  VAL176      0.0019
@<TRIPOS>BOND
     1    75    74    2
     2    74    73    1
     3    73    72    1
     4    73    76    1
     5    80    79    1
     6    79    78    1
     7    76    77    1
     8    90    89    1
     9    78    77    1
    10    81    82    1
    11    89    91    1
    12    89    86    1
    13    62    61    2
    14    85    86    1
    15    85    83   am
    16    63    61   am
    17    82    83    1
    18    86    87    1
    19    61    60    1
    20    83    84    2
    21    87    88    2
    22    56    57    1
    23    57    60    1
    24    57    58    1
    25    15    14    2
    26    59    58    2
    27    58    64   am
    28    43    41    1
    29    23    24    1
    30   112   110   ar
    31   112   113   ar
    32    41    40    1
    33   110   108   ar
    34    42    40    1
    35    24    25    1
    36    24    27    1
    37    14    16   am
    38    14    13    1
    39    64    65    1
    40    26    25    2
    41    40    37    1
    42   114   113    1
    43    10     9    1
    44    10    11    1
    45    10    13    1
    46    12    11    2
    47   113   111   ar
    48    92    93    1
    49   108   107    1
    50   108   109   ar
    51    11    17   am
    52    65    66    1
    53    65    68    1
    54    66    67    2
    55   107   104    1
    56    47    46    2
    57   111   109   ar
    58    37    36    1
    59    37    38    1
    60    96    93    1
    61    96    97    1
    62   103   104    1
    63   103    94   am
    64    53    54    1
    65    53    52    1
    66    93    94    1
    67    20    19    2
    68    19    18    1
    69    54    55    1
    70    17    18    1
    71   104   105    1
    72    70    69    1
    73    94    95    2
    74    68    69    1
    75    49    52    1
    76    49    50    1
    77    49    48    1
    78    38    39    2
    79    38    44   am
    80   105   106    2
    81    69    71    1
    82    46    48   am
    83    46    45    1
    84    18    21    1
    85    97    99   ar
    86    97    98   ar
    87    50    51    2
    88    44    45    1
    89     1     2    1
    90    99   101   ar
    91     4     3    2
    92     3     2    1
    93     2     5    1
    94    98   100   ar
    95    21    22    1
    96   101   102   ar
    97     8     6    1
    98   100   102   ar
    99     5     6    1
   100   127   126    1
   101     6     7    1
   102    35    33   ar
   103    34    33   ar
   104    33    32    1
   105   126   128    1
   106   126   123    1
   107    32    29    1
   108   120   119    1
   109   135   133    1
   110   122   123    1
   111   121   119    1
   112   123   124    1
   113    29    30    1
   114    29    28    1
   115    30    31    2
   116   119   116    1
   117   134   133    1
   118   133   130    1
   119   125   124    2
   120   116   117    1
   121   116   115    1
   122   130   129    1
   123   130   131    1
   124   118   117    2
   125   131   132    2
