@<TRIPOS>MOLECULE
tmp/4ykxA00.pdb
 116 106 0 0 0
SMALL
GASTEIGER

@<TRIPOS>ATOM
      1  N         30.7280   11.2520   15.9520 N.3    33  LEU33      -0.1245
      2  CA        30.1040   11.7350   17.1970 C.3    33  LEU33       0.1561
      3  C         28.8020   11.0050   17.5210 C.2    33  LEU33       0.2260
      4  O         28.5440   10.7000   18.6960 O.2    33  LEU33      -0.2867
      5  CB        29.8730   13.2570   17.1410 C.3    33  LEU33       0.0270
      6  CG        31.1540   14.0980   17.0690 C.3    33  LEU33       0.0019
      7  CD1       30.8130   15.5760   16.8630 C.3    33  LEU33       0.0001
      8  CD2       32.0760   13.9060   18.3550 C.3    33  LEU33       0.0001
      9  N         29.8170    7.6980   19.0130 N.3    36  ASN36      -0.1225
     10  CA        30.2070    7.8730   20.4140 C.3    36  ASN36       0.1785
     11  C         28.9500    7.9700   21.2870 C.2    36  ASN36       0.2597
     12  O         28.8790    7.3360   22.3320 O.2    36  ASN36      -0.2718
     13  CB        31.0790    9.1340   20.5660 C.3    36  ASN36       0.1169
     14  CG        32.4980    8.9200   20.1200 C.2    36  ASN36       0.2627
     15  OD1       32.8640    7.8790   19.5590 O.2    36  ASN36      -0.2716
     16  ND2       33.3160    9.9200   20.3090 N.am   36  ASN36      -0.0877
     17  N         27.9440    8.7470   20.8430 N.am   37  SER37      -0.1952
     18  CA        26.6760    8.8760   21.5840 C.3    37  SER37       0.1924
     19  C         25.9840    7.5180   21.7040 C.2    37  SER37       0.2314
     20  O         25.5190    7.1660   22.7890 O.2    37  SER37      -0.2863
     21  CB        25.7400    9.8410   20.8620 C.3    37  SER37       0.2116
     22  OG        26.1870   11.1820   20.9770 O.3    37  SER37      -0.2180
     23  N         27.3730    4.5680   21.6740 N.3    39  ASP39      -0.1225
     24  CA        28.1720    3.7760   22.6150 C.3    39  ASP39       0.1805
     25  C         27.8420    4.1410   24.0700 C.2    39  ASP39       0.2597
     26  O         27.7190    3.2490   24.9090 O.2    39  ASP39      -0.2718
     27  CB        29.6720    3.9620   22.3570 C.3    39  ASP39       0.1424
     28  CG        30.2130    3.3060   21.1050 C.2    39  ASP39       0.3668
     29  OD1       29.4490    2.5550   20.4380 O.co2  39  ASP39      -0.2456
     30  OD2       31.3700    3.6000   20.7420 O.co2  39  ASP39      -0.2456
     31  N         27.6780    5.4470   24.3640 N.am   40  ALA40      -0.1979
     32  CA        27.3140    5.9480   25.6990 C.3    40  ALA40       0.1597
     33  C         25.8960    5.5100   26.0890 C.2    40  ALA40       0.2287
     34  O         25.6480    5.1980   27.2420 O.2    40  ALA40      -0.2864
     35  CB        27.3960    7.4570   25.7250 C.3    40  ALA40       0.0319
     36  N         25.8910    1.8400   26.9880 N.3    43  LYS43      -0.1245
     37  CA        26.4220    1.6440   28.3350 C.3    43  LYS43       0.1561
     38  C         25.3640    1.8760   29.4100 C.2    43  LYS43       0.2260
     39  O         25.2280    1.0370   30.3050 O.2    43  LYS43      -0.2867
     40  CB        27.6230    2.5520   28.6060 C.3    43  LYS43       0.0271
     41  CG        28.8720    2.1010   27.8700 C.3    43  LYS43       0.0035
     42  CD        30.1260    2.6830   28.4930 C.3    43  LYS43       0.0206
     43  CE        31.3260    1.8180   28.1820 C.3    43  LYS43       0.1093
     44  NZ        31.7810    1.9810   26.7720 N.3    43  LYS43      -0.1314
     45  N         23.1210   13.6740   23.7430 N.3    78  ASP78      -0.1239
     46  CA        22.6390   12.3170   23.9760 C.3    78  ASP78       0.1674
     47  C         22.3110   12.1630   25.4630 C.2    78  ASP78       0.2266
     48  O         22.7870   12.9580   26.2950 O.2    78  ASP78      -0.2867
     49  CB        23.6240   11.2470   23.4900 C.3    78  ASP78       0.1410
     50  CG        24.9230   11.2030   24.2730 C.2    78  ASP78       0.3668
     51  OD1       24.8890   10.8260   25.4880 O.co2  78  ASP78      -0.2456
     52  OD2       25.9850   11.4950   23.6760 O.co2  78  ASP78      -0.2456
     53  N         25.4520    7.4180   29.1790 N.3    81  ILE81      -0.1231
     54  CA        25.9770    7.2550   30.5470 C.3    81  ILE81       0.1692
     55  C         26.6710    8.5410   31.0850 C.2    81  ILE81       0.2593
     56  O         26.8100    8.7070   32.2980 O.2    81  ILE81      -0.2718
     57  CB        26.9160    6.0210   30.6220 C.3    81  ILE81       0.0266
     58  CG1       27.1640    5.5840   32.1020 C.3    81  ILE81       0.0019
     59  CG2       28.2050    6.2160   29.8100 C.3    81  ILE81       0.0020
     60  CD1       27.3110    4.1250   32.3040 C.3    81  ILE81       0.0001
     61  N         27.1270    9.4010   30.1880 N.am   82  GLY82      -0.1942
     62  CA        27.8680   10.5870   30.5930 C.3    82  GLY82       0.2014
     63  C         29.2550   10.2160   31.0750 C.2    82  GLY82       0.2638
     64  O         29.6590    9.0440   31.0320 O.2    82  GLY82      -0.2714
     65  N         30.0080   11.2210   31.4840 N.am   83  MET83      -0.1976
     66  CA        31.3840   11.0260   31.9180 C.3    83  MET83       0.1605
     67  C         31.6430   11.7160   33.2330 C.2    83  MET83       0.2287
     68  O         31.1700   12.8360   33.4370 O.2    83  MET83      -0.2864
     69  CB        32.3430   11.6090   30.8580 C.3    83  MET83       0.0413
     70  CG        32.3650   10.8360   29.5620 C.3    83  MET83       0.0598
     71  SD        33.4140   11.6790   28.3530 S.3    83  MET83      -0.1393
     72  CE        32.3110   13.0610   27.8430 C.3    83  MET83       0.0692
     73  N         38.4760   12.1740   27.5700 N.3    92  LEU92      -0.1231
     74  CA        37.0420   11.9340   27.3410 C.3    92  LEU92       0.1693
     75  C         36.7160   10.4300   27.2720 C.2    92  LEU92       0.2592
     76  O         35.9760    9.9820   26.3820 O.2    92  LEU92      -0.2718
     77  CB        36.5770   12.6670   26.0490 C.3    92  LEU92       0.0284
     78  CG        36.7880   14.2110   26.0820 C.3    92  LEU92       0.0019
     79  CD1       38.0930   14.6150   25.3780 C.3    92  LEU92       0.0001
     80  CD2       35.6650   14.9050   25.3960 C.3    92  LEU92       0.0001
     81  N         37.2570    9.6760   28.2240 N.am   93  GLY93      -0.1957
     82  CA        36.9980    8.2360   28.3310 C.3    93  GLY93       0.1869
     83  C         37.5500    7.3660   27.2160 C.2    93  GLY93       0.2309
     84  O         37.1390    6.2090   27.0810 O.2    93  GLY93      -0.2863
     85  N         36.1700   11.0000   18.4500 N.3   123  PHE123     -0.1241
     86  CA        35.7950   12.3140   18.9990 C.3   123  PHE123      0.1605
     87  C         36.6120   13.4360   18.3510 C.2   123  PHE123      0.2264
     88  O         36.0670   14.4730   18.0040 O.2   123  PHE123     -0.2867
     89  CB        36.0070   12.3710   20.5260 C.3   123  PHE123      0.0534
     90  CG        35.9370   13.7860   21.0540 C.ar  123  PHE123     -0.0203
     91  CD1       34.7180   14.4600   21.1330 C.ar  123  PHE123     -0.0042
     92  CD2       37.0930   14.4620   21.4430 C.ar  123  PHE123     -0.0042
     93  CE1       34.6620   15.7920   21.5870 C.ar  123  PHE123     -0.0003
     94  CE2       37.0310   15.7870   21.9050 C.ar  123  PHE123     -0.0003
     95  CZ        35.8200   16.4360   21.9790 C.ar  123  PHE123     -0.0000
     96  N         32.2960   20.3770   25.5360 N.3   135  VAL135     -0.1245
     97  CA        31.6150   19.1230   25.8970 C.3   135  VAL135      0.1561
     98  C         31.0350   19.3060   27.2990 C.2   135  VAL135      0.2260
     99  O         31.7850   19.4860   28.2620 O.2   135  VAL135     -0.2867
    100  CB        32.5580   17.8910   25.8040 C.3   135  VAL135      0.0252
    101  CG1       31.8470   16.6110   26.2570 C.3   135  VAL135      0.0019
    102  CG2       33.1210   17.7140   24.3780 C.3   135  VAL135      0.0019
    103  N         25.6560   13.5210   27.5440 N.3   169  THR169     -0.1218
    104  CA        26.7190   14.3830   27.0170 C.3   169  THR169      0.1862
    105  C         26.1920   15.2580   25.8860 C.2   169  THR169      0.2287
    106  O         25.3780   14.8110   25.0510 O.2   169  THR169     -0.2866
    107  CB        27.8790   13.5040   26.5400 C.3   169  THR169      0.1770
    108  OG1       28.4180   12.8000   27.6670 O.3   169  THR169     -0.2211
    109  CG2       29.0090   14.2990   25.8490 C.3   169  THR169      0.0375
    110  N         27.8330   17.7180   22.9180 N.3   171  VAL171     -0.1245
    111  CA        29.0480   18.1340   22.1920 C.3   171  VAL171      0.1561
    112  C         28.6660   19.3570   21.3890 C.2   171  VAL171      0.2260
    113  O         27.8320   19.2430   20.4870 O.2   171  VAL171     -0.2867
    114  CB        29.6570   17.0310   21.2850 C.3   171  VAL171      0.0252
    115  CG1       30.8540   17.5840   20.4870 C.3   171  VAL171      0.0019
    116  CG2       30.0760   15.8070   22.1130 C.3   171  VAL171      0.0019
@<TRIPOS>BOND
     1     1     2    1
     2     7     6    1
     3     6     5    1
     4     6     8    1
     5     5     2    1
     6     2     3    1
     7     3     4    2
     8    88    87    2
     9    87    86    1
    10    85    86    1
    11    86    89    1
    12     9    10    1
    13    15    14    2
    14    14    16   am
    15    14    13    1
    16    10    13    1
    17    10    11    1
    18    29    28   ar
    19   115   114    1
    20   113   112    2
    21    89    90    1
    22    30    28   ar
    23    17    11   am
    24    17    18    1
    25    21    22    1
    26    21    18    1
    27    90    91   ar
    28    90    92   ar
    29    28    27    1
    30    91    93   ar
    31   114   116    1
    32   114   111    1
    33    11    12    2
    34   112   111    1
    35    92    94   ar
    36    18    19    1
    37    93    95   ar
    38    23    24    1
    39    19    20    2
    40    94    95   ar
    41   111   110    1
    42    27    24    1
    43    24    25    1
    44    49    46    1
    45    49    50    1
    46    52    50   ar
    47    45    46    1
    48    46    47    1
    49    25    31   am
    50    25    26    2
    51    50    51   ar
    52    31    32    1
    53   102   100    1
    54   106   105    2
    55    79    78    1
    56    80    78    1
    57    47    48    2
    58    96    97    1
    59    32    35    1
    60    32    33    1
    61   100    97    1
    62   100   101    1
    63   109   107    1
    64   105   104    1
    65    97    98    1
    66    77    78    1
    67    77    74    1
    68    33    34    2
    69    76    75    2
    70   107   104    1
    71   107   108    1
    72    44    43    1
    73    36    37    1
    74   104   103    1
    75    84    83    2
    76    83    82    1
    77    75    74    1
    78    75    81   am
    79    98    99    2
    80    74    73    1
    81    72    71    1
    82    41    42    1
    83    41    40    1
    84    43    42    1
    85    81    82    1
    86    37    40    1
    87    37    38    1
    88    71    70    1
    89    53    54    1
    90    38    39    2
    91    70    69    1
    92    59    57    1
    93    61    62    1
    94    61    55   am
    95    54    57    1
    96    54    55    1
    97    62    63    1
    98    57    58    1
    99    69    66    1
   100    64    63    2
   101    63    65   am
   102    55    56    2
   103    65    66    1
   104    66    67    1
   105    58    60    1
   106    67    68    2
