@<TRIPOS>MOLECULE
tmp/4ykyA00.pdb
 124 113 0 0 0
SMALL
GASTEIGER

@<TRIPOS>ATOM
      1  N          1.7270  -33.0370  -15.8510 N.3    33  LEU33      -0.1245
      2  CA         2.3450  -32.5720  -17.1140 C.3    33  LEU33       0.1561
      3  C          3.6490  -33.3020  -17.4290 C.2    33  LEU33       0.2260
      4  O          3.9350  -33.5840  -18.6030 O.2    33  LEU33      -0.2867
      5  CB         2.5650  -31.0540  -17.0740 C.3    33  LEU33       0.0270
      6  CG         1.2540  -30.2490  -16.9990 C.3    33  LEU33       0.0019
      7  CD1        1.5690  -28.7330  -16.8380 C.3    33  LEU33       0.0001
      8  CD2        0.3450  -30.4600  -18.2800 C.3    33  LEU33       0.0001
      9  N          2.6450  -36.6290  -18.8830 N.3    36  ASN36      -0.1225
     10  CA         2.2510  -36.4890  -20.2820 C.3    36  ASN36       0.1785
     11  C          3.4900  -36.4070  -21.1740 C.2    36  ASN36       0.2597
     12  O          3.5500  -37.0670  -22.2190 O.2    36  ASN36      -0.2718
     13  CB         1.3930  -35.2200  -20.4690 C.3    36  ASN36       0.1169
     14  CG         0.0010  -35.3330  -19.9140 C.2    36  ASN36       0.2627
     15  OD1       -0.4390  -36.3910  -19.4500 O.2    36  ASN36      -0.2716
     16  ND2       -0.6890  -34.2150  -19.8810 N.am   36  ASN36      -0.0877
     17  N          4.4840  -35.6010  -20.7500 N.am   37  SER37      -0.1952
     18  CA         5.7520  -35.4460  -21.4950 C.3    37  SER37       0.1924
     19  C          6.4430  -36.8180  -21.5970 C.2    37  SER37       0.2314
     20  O          6.8890  -37.1920  -22.6860 O.2    37  SER37      -0.2863
     21  CB         6.6710  -34.4460  -20.7810 C.3    37  SER37       0.2116
     22  OG         6.1960  -33.1140  -20.9480 O.3    37  SER37      -0.2180
     23  N          5.0540  -39.7850  -21.5430 N.3    39  ASP39      -0.1225
     24  CA         4.2740  -40.5900  -22.4880 C.3    39  ASP39       0.1805
     25  C          4.6140  -40.2380  -23.9340 C.2    39  ASP39       0.2597
     26  O          4.7650  -41.1300  -24.7570 O.2    39  ASP39      -0.2718
     27  CB         2.7690  -40.4130  -22.2550 C.3    39  ASP39       0.1424
     28  CG         2.2220  -41.0070  -20.9830 C.2    39  ASP39       0.3668
     29  OD1        2.9540  -41.7720  -20.3200 O.co2  39  ASP39      -0.2456
     30  OD2        1.0510  -40.7080  -20.6460 O.co2  39  ASP39      -0.2456
     31  N          4.7560  -38.9450  -24.2330 N.am   40  ALA40      -0.1979
     32  CA         5.0960  -38.4330  -25.5720 C.3    40  ALA40       0.1597
     33  C          6.5050  -38.8740  -25.9670 C.2    40  ALA40       0.2287
     34  O          6.7520  -39.1740  -27.1280 O.2    40  ALA40      -0.2864
     35  CB         5.0120  -36.9240  -25.5810 C.3    40  ALA40       0.0319
     36  N          6.5220  -42.5070  -26.8790 N.3    43  LYS43      -0.1245
     37  CA         5.9690  -42.7210  -28.2240 C.3    43  LYS43       0.1561
     38  C          7.0040  -42.4970  -29.3200 C.2    43  LYS43       0.2260
     39  O          7.1290  -43.3280  -30.2360 O.2    43  LYS43      -0.2867
     40  CB         4.7840  -41.7880  -28.4610 C.3    43  LYS43       0.0271
     41  CG         3.5380  -42.2370  -27.7190 C.3    43  LYS43       0.0035
     42  CD         2.3690  -41.3720  -28.1270 C.3    43  LYS43       0.0206
     43  CE         1.2860  -42.1440  -28.8410 C.3    43  LYS43       0.1093
     44  NZ         0.1140  -41.2760  -29.1550 N.3    43  LYS43      -0.1314
     45  N          9.1850  -30.6720  -23.7600 N.3    78  ASP78      -0.1239
     46  CA         9.6850  -32.0210  -23.9750 C.3    78  ASP78       0.1674
     47  C          9.9960  -32.1860  -25.4580 C.2    78  ASP78       0.2266
     48  O          9.5070  -31.4010  -26.2990 O.2    78  ASP78      -0.2867
     49  CB         8.6910  -33.0840  -23.4750 C.3    78  ASP78       0.1410
     50  CG         7.3940  -33.1300  -24.2630 C.2    78  ASP78       0.3668
     51  OD1        7.4320  -33.5370  -25.4630 O.co2  78  ASP78      -0.2456
     52  OD2        6.3110  -32.8510  -23.6580 O.co2  78  ASP78      -0.2456
     53  N          6.9160  -36.9560  -29.1290 N.3    81  ILE81      -0.1231
     54  CA         6.3590  -37.1510  -30.4810 C.3    81  ILE81       0.1692
     55  C          5.6630  -35.8940  -31.0190 C.2    81  ILE81       0.2593
     56  O          5.5340  -35.7550  -32.2390 O.2    81  ILE81      -0.2718
     57  CB         5.4050  -38.3950  -30.5020 C.3    81  ILE81       0.0266
     58  CG1        5.0690  -38.8360  -31.9540 C.3    81  ILE81       0.0019
     59  CG2        4.1500  -38.1830  -29.6410 C.3    81  ILE81       0.0020
     60  CD1        5.0710  -40.2610  -32.1690 C.3    81  ILE81       0.0001
     61  N          5.1780  -35.0290  -30.1260 N.am   82  GLY82      -0.1942
     62  CA         4.4360  -33.8320  -30.5120 C.3    82  GLY82       0.2014
     63  C          3.0520  -34.1980  -30.9970 C.2    82  GLY82       0.2638
     64  O          2.6450  -35.3680  -30.9340 O.2    82  GLY82      -0.2714
     65  N          2.2950  -33.1880  -31.4120 N.am   83  MET83      -0.1976
     66  CA         0.9140  -33.3990  -31.8450 C.3    83  MET83       0.1605
     67  C          0.6570  -32.7320  -33.1630 C.2    83  MET83       0.2287
     68  O          1.1170  -31.6160  -33.3760 O.2    83  MET83      -0.2864
     69  CB        -0.0390  -32.7850  -30.7880 C.3    83  MET83       0.0413
     70  CG        -0.0400  -33.5540  -29.4850 C.3    83  MET83       0.0598
     71  SD        -1.0920  -32.7380  -28.2660 S.3    83  MET83      -0.1393
     72  CE         0.0220  -31.3910  -27.7160 C.3    83  MET83       0.0692
     73  N         -4.7680  -33.5890  -33.8590 N.3    87  ASP87      -0.1239
     74  CA        -4.6260  -34.0590  -32.4720 C.3    87  ASP87       0.1674
     75  C         -4.8280  -32.9130  -31.4900 C.2    87  ASP87       0.2266
     76  O         -5.5180  -33.0800  -30.4860 O.2    87  ASP87      -0.2867
     77  CB        -3.2170  -34.6390  -32.2550 C.3    87  ASP87       0.1410
     78  CG        -2.9250  -36.0100  -32.8310 C.2    87  ASP87       0.3668
     79  OD1       -3.8870  -36.7910  -33.0290 O.co2  87  ASP87      -0.2456
     80  OD2       -1.7160  -36.3230  -33.0400 O.co2  87  ASP87      -0.2456
     81  N         -6.0850  -32.2960  -27.4800 N.3    92  LEU92      -0.1231
     82  CA        -4.6580  -32.5360  -27.2710 C.3    92  LEU92       0.1693
     83  C         -4.3240  -34.0310  -27.2000 C.2    92  LEU92       0.2592
     84  O         -3.5660  -34.4630  -26.3220 O.2    92  LEU92      -0.2718
     85  CB        -4.1770  -31.7830  -25.9980 C.3    92  LEU92       0.0284
     86  CG        -4.4080  -30.2430  -26.0510 C.3    92  LEU92       0.0019
     87  CD1       -5.6760  -29.8580  -25.3060 C.3    92  LEU92       0.0001
     88  CD2       -3.2560  -29.5270  -25.4580 C.3    92  LEU92       0.0001
     89  N         -4.8890  -34.7980  -28.1340 N.am   93  GLY93      -0.1957
     90  CA        -4.6120  -36.2330  -28.2490 C.3    93  GLY93       0.1869
     91  C         -5.1680  -37.1190  -27.1460 C.2    93  GLY93       0.2309
     92  O         -4.7450  -38.2760  -27.0090 O.2    93  GLY93      -0.2863
     93  N         -3.7050  -33.3550  -18.4660 N.3   123  PHE123     -0.1241
     94  CA        -3.3330  -32.0460  -19.0190 C.3   123  PHE123      0.1605
     95  C         -4.1550  -30.9230  -18.3790 C.2   123  PHE123      0.2264
     96  O         -3.6080  -29.8740  -18.0590 O.2   123  PHE123     -0.2867
     97  CB        -3.5590  -32.0090  -20.5390 C.3   123  PHE123      0.0534
     98  CG        -3.4680  -30.6150  -21.1090 C.ar  123  PHE123     -0.0203
     99  CD1       -2.2320  -30.0000  -21.2940 C.ar  123  PHE123     -0.0042
    100  CD2       -4.6260  -29.8850  -21.4000 C.ar  123  PHE123     -0.0042
    101  CE1       -2.1510  -28.6850  -21.7810 C.ar  123  PHE123     -0.0003
    102  CE2       -4.5420  -28.5800  -21.9120 C.ar  123  PHE123     -0.0003
    103  CZ        -3.3110  -27.9850  -22.0770 C.ar  123  PHE123     -0.0000
    104  N          0.0240  -23.9510  -25.6260 N.3   135  VAL135     -0.1245
    105  CA         0.7240  -25.1980  -25.9710 C.3   135  VAL135      0.1561
    106  C          1.3090  -25.0150  -27.3730 C.2   135  VAL135      0.2260
    107  O          0.5640  -24.7780  -28.3280 O.2   135  VAL135     -0.2867
    108  CB        -0.2150  -26.4310  -25.8970 C.3   135  VAL135      0.0252
    109  CG1        0.4900  -27.7010  -26.3820 C.3   135  VAL135      0.0019
    110  CG2       -0.7830  -26.6320  -24.4840 C.3   135  VAL135      0.0019
    111  N          6.6240  -30.8230  -27.5430 N.3   169  THR169     -0.1218
    112  CA         5.5610  -29.9690  -27.0270 C.3   169  THR169      0.1862
    113  C          6.0940  -29.0830  -25.9270 C.2   169  THR169      0.2287
    114  O          6.8780  -29.5370  -25.0730 O.2   169  THR169     -0.2866
    115  CB         4.4240  -30.8820  -26.5270 C.3   169  THR169      0.1770
    116  OG1        3.8690  -31.5980  -27.6480 O.3   169  THR169     -0.2211
    117  CG2        3.3040  -30.1190  -25.8240 C.3   169  THR169      0.0375
    118  N          4.4830  -26.6060  -22.9630 N.3   171  VAL171     -0.1245
    119  CA         3.2810  -26.1820  -22.2230 C.3   171  VAL171      0.1561
    120  C          3.6660  -24.9530  -21.4140 C.2   171  VAL171      0.2260
    121  O          4.4860  -25.0540  -20.4900 O.2   171  VAL171     -0.2867
    122  CB         2.6730  -27.2880  -21.3220 C.3   171  VAL171      0.0252
    123  CG1        1.4480  -26.7480  -20.5530 C.3   171  VAL171      0.0019
    124  CG2        2.3010  -28.5390  -22.1410 C.3   171  VAL171      0.0019
@<TRIPOS>BOND
     1    73    74    1
     2    68    67    2
     3    67    66    1
     4    80    78   ar
     5    79    78   ar
     6    78    77    1
     7    74    77    1
     8    74    75    1
     9    56    55    2
    10    60    58    1
    11    58    57    1
    12    66    65    1
    13    66    69    1
    14    75    76    2
    15    65    63   am
    16    55    54    1
    17    55    61   am
    18    63    64    2
    19    63    62    1
    20    69    70    1
    21    62    61    1
    22    57    54    1
    23    57    59    1
    24    54    53    1
    25    39    38    2
    26    70    71    1
    27    38    37    1
    28    44    43    1
    29    43    42    1
    30    40    37    1
    31    40    41    1
    32   107   106    2
    33    71    72    1
    34    90    89    1
    35    90    91    1
    36    37    36    1
    37    89    83   am
    38    42    41    1
    39   116   115    1
    40   111   112    1
    41    81    82    1
    42   106   105    1
    43    82    83    1
    44    82    85    1
    45    83    84    2
    46    91    92    2
    47    34    33    2
    48   112   115    1
    49   112   113    1
    50   115   117    1
    51   109   108    1
    52    48    47    2
    53    86    85    1
    54    86    88    1
    55    86    87    1
    56   105   108    1
    57   105   104    1
    58    33    32    1
    59   113   114    2
    60   108   110    1
    61    35    32    1
    62    32    31    1
    63    51    50   ar
    64    47    46    1
    65    26    25    2
    66    50    52   ar
    67    50    49    1
    68    31    25   am
    69    46    45    1
    70    46    49    1
    71    25    24    1
    72   118   119    1
    73    20    19    2
    74    24    27    1
    75    24    23    1
    76    27    28    1
    77   119   120    1
    78   119   122    1
    79    12    11    2
    80   124   122    1
    81   103   102   ar
    82   103   101   ar
    83   102   100   ar
    84   101    99   ar
    85    19    18    1
    86    18    21    1
    87    18    17    1
    88   120   121    2
    89   100    98   ar
    90   122   123    1
    91    99    98   ar
    92    11    17   am
    93    11    10    1
    94    98    97    1
    95    28    30   ar
    96    28    29   ar
    97    22    21    1
    98    97    94    1
    99    13    10    1
   100    13    14    1
   101    10     9    1
   102    14    16   am
   103    14    15    2
   104    94    93    1
   105    94    95    1
   106     4     3    2
   107    95    96    2
   108     8     6    1
   109     3     2    1
   110     2     5    1
   111     2     1    1
   112     5     6    1
   113     6     7    1
