@<TRIPOS>MOLECULE
tmp/4ykzA00.pdb
 117 107 0 0 0
SMALL
GASTEIGER

@<TRIPOS>ATOM
      1  N         -1.6770   32.7860  -15.8970 N.3    33  LEU33      -0.1245
      2  CA        -2.3050   32.3160  -17.1510 C.3    33  LEU33       0.1561
      3  C         -3.6160   33.0220  -17.4610 C.2    33  LEU33       0.2260
      4  O         -3.9090   33.3130  -18.6280 O.2    33  LEU33      -0.2867
      5  CB        -2.5150   30.7900  -17.1050 C.3    33  LEU33       0.0270
      6  CG        -1.2260   29.9750  -17.0550 C.3    33  LEU33       0.0019
      7  CD1       -1.5490   28.4980  -16.8720 C.3    33  LEU33       0.0001
      8  CD2       -0.3750   30.1670  -18.3560 C.3    33  LEU33       0.0001
      9  N         -2.6210   36.3790  -18.8440 N.3    36  ASN36      -0.1225
     10  CA        -2.2450   36.2510  -20.2580 C.3    36  ASN36       0.1785
     11  C         -3.4830   36.1510  -21.1410 C.2    36  ASN36       0.2597
     12  O         -3.5470   36.8100  -22.1860 O.2    36  ASN36      -0.2718
     13  CB        -1.3640   35.0090  -20.4790 C.3    36  ASN36       0.1169
     14  CG         0.0350   35.0990  -19.9280 C.2    36  ASN36       0.2627
     15  OD1        0.4950   36.1330  -19.4380 O.2    36  ASN36      -0.2716
     16  ND2        0.7490   33.9910  -20.0000 N.am   36  ASN36      -0.0877
     17  N         -4.4780   35.3390  -20.7240 N.am   37  SER37      -0.1952
     18  CA        -5.7390   35.2000  -21.4770 C.3    37  SER37       0.1924
     19  C         -6.4290   36.5680  -21.5810 C.2    37  SER37       0.2314
     20  O         -6.8690   36.9440  -22.6660 O.2    37  SER37      -0.2863
     21  CB        -6.6630   34.1830  -20.8020 C.3    37  SER37       0.2116
     22  OG        -6.1490   32.8590  -20.9150 O.3    37  SER37      -0.2180
     23  N         -5.0510   39.5680  -21.4850 N.3    39  ASP39      -0.1225
     24  CA        -4.2480   40.3500  -22.4360 C.3    39  ASP39       0.1805
     25  C         -4.6090   39.9890  -23.8860 C.2    39  ASP39       0.2597
     26  O         -4.7730   40.8820  -24.7250 O.2    39  ASP39      -0.2718
     27  CB        -2.7390   40.1240  -22.2000 C.3    39  ASP39       0.1424
     28  CG        -2.1700   40.7570  -20.9460 C.2    39  ASP39       0.3668
     29  OD1       -2.8920   41.5540  -20.2980 O.co2  39  ASP39      -0.2456
     30  OD2       -1.0240   40.4160  -20.5830 O.co2  39  ASP39      -0.2456
     31  N         -4.7450   38.6800  -24.1750 N.am   40  ALA40      -0.1979
     32  CA        -5.1010   38.1590  -25.5120 C.3    40  ALA40       0.1597
     33  C         -6.5250   38.5800  -25.9070 C.2    40  ALA40       0.2287
     34  O         -6.7860   38.8620  -27.0730 O.2    40  ALA40      -0.2864
     35  CB        -4.9910   36.6400  -25.5240 C.3    40  ALA40       0.0319
     36  N         -6.5610   42.2520  -26.7660 N.3    43  LYS43      -0.1245
     37  CA        -5.9720   42.4440  -28.0970 C.3    43  LYS43       0.1561
     38  C         -6.9890   42.2410  -29.2100 C.2    43  LYS43       0.2260
     39  O         -7.0770   43.0830  -30.1050 O.2    43  LYS43      -0.2867
     40  CB        -4.7810   41.5020  -28.3020 C.3    43  LYS43       0.0271
     41  CG        -3.8590   41.9730  -29.4090 C.3    43  LYS43       0.0035
     42  CD        -2.4430   41.4740  -29.1980 C.3    43  LYS43       0.0206
     43  CE        -1.5480   42.0210  -30.2810 C.3    43  LYS43       0.1093
     44  NZ        -0.1300   41.6380  -30.0750 N.3    43  LYS43      -0.1314
     45  N         -9.2430   30.3900  -23.7000 N.3    78  ASP78      -0.1239
     46  CA        -9.7270   31.7500  -23.9260 C.3    78  ASP78       0.1674
     47  C        -10.0770   31.8920  -25.3790 C.2    78  ASP78       0.2266
     48  O         -9.5760   31.1090  -26.2000 O.2    78  ASP78      -0.2867
     49  CB        -8.7300   32.8280  -23.4780 C.3    78  ASP78       0.1410
     50  CG        -7.4250   32.8560  -24.2580 C.2    78  ASP78       0.3668
     51  OD1       -7.4530   33.2410  -25.4550 O.co2  78  ASP78      -0.2456
     52  OD2       -6.3530   32.5950  -23.6360 O.co2  78  ASP78      -0.2456
     53  N         -6.9470   36.7040  -29.0300 N.3    81  ILE81      -0.1231
     54  CA        -6.3800   36.9190  -30.3700 C.3    81  ILE81       0.1692
     55  C         -5.7830   35.6410  -30.9640 C.2    81  ILE81       0.2593
     56  O         -5.7070   35.5070  -32.1930 O.2    81  ILE81      -0.2718
     57  CB        -5.3490   38.0980  -30.3560 C.3    81  ILE81       0.0266
     58  CG1       -4.9000   38.5510  -31.7660 C.3    81  ILE81       0.0019
     59  CG2       -4.1640   37.8210  -29.4600 C.3    81  ILE81       0.0020
     60  CD1       -5.7070   39.5780  -32.3450 C.3    81  ILE81       0.0001
     61  N         -5.3090   34.7570  -30.0990 N.am   82  GLY82      -0.1942
     62  CA        -4.6140   33.5510  -30.5220 C.3    82  GLY82       0.2014
     63  C         -3.2080   33.8870  -30.9730 C.2    82  GLY82       0.2638
     64  O         -2.8040   35.0590  -31.0020 O.2    82  GLY82      -0.2714
     65  N         -2.4500   32.8480  -31.3160 N.am   83  MET83      -0.1976
     66  CA        -1.0590   33.0200  -31.7020 C.3    83  MET83       0.1605
     67  C         -0.7630   32.3540  -33.0120 C.2    83  MET83       0.2287
     68  O         -1.2680   31.2780  -33.3070 O.2    83  MET83      -0.2864
     69  CB        -0.1450   32.4330  -30.6050 C.3    83  MET83       0.0413
     70  CG        -0.1210   33.2840  -29.3410 C.3    83  MET83       0.0598
     71  SD         0.9180   32.5400  -28.0460 S.3    83  MET83      -0.1393
     72  CE        -0.1760   31.2100  -27.4580 C.3    83  MET83       0.0692
     73  N          4.5230   33.3870  -33.5440 N.3    87  ASP87      -0.1239
     74  CA         4.3350   33.7860  -32.1380 C.3    87  ASP87       0.1674
     75  C          4.7000   32.6420  -31.2060 C.2    87  ASP87       0.2266
     76  O          5.3980   32.8530  -30.2170 O.2    87  ASP87      -0.2867
     77  CB         2.8790   34.1930  -31.8690 C.3    87  ASP87       0.1410
     78  CG         2.4200   35.5460  -32.3710 C.2    87  ASP87       0.3668
     79  OD1        3.2300   36.5100  -32.3200 O.co2  87  ASP87      -0.2456
     80  OD2        1.2360   35.6570  -32.7690 O.co2  87  ASP87      -0.2456
     81  N          6.0280   32.0870  -27.2690 N.3    92  LEU92      -0.1231
     82  CA         4.6030   32.3480  -27.0740 C.3    92  LEU92       0.1693
     83  C          4.2680   33.8600  -27.0350 C.2    92  LEU92       0.2592
     84  O          3.4580   34.2940  -26.2130 O.2    92  LEU92      -0.2718
     85  CB         4.0950   31.6300  -25.8120 C.3    92  LEU92       0.0284
     86  CG         4.1730   30.0880  -25.8920 C.3    92  LEU92       0.0019
     87  CD1        5.4410   29.5790  -25.2070 C.3    92  LEU92       0.0001
     88  CD2        2.9880   29.4750  -25.2590 C.3    92  LEU92       0.0001
     89  N          4.8620   34.6200  -27.9510 N.am   93  GLY93      -0.1957
     90  CA         4.5960   36.0550  -28.0810 C.3    93  GLY93       0.1869
     91  C          5.2000   36.9430  -27.0020 C.2    93  GLY93       0.2309
     92  O          4.7910   38.0980  -26.8570 O.2    93  GLY93      -0.2863
     93  N          3.7750   33.0940  -18.3660 N.3   123  PHE123     -0.1241
     94  CA         3.3940   31.7850  -18.9510 C.3   123  PHE123      0.1605
     95  C          4.1840   30.6330  -18.3130 C.2   123  PHE123      0.2264
     96  O          3.6070   29.5980  -18.0030 O.2   123  PHE123     -0.2867
     97  CB         3.6150   31.7350  -20.4870 C.3   123  PHE123      0.0534
     98  CG         3.4500   30.3440  -21.0750 C.ar  123  PHE123     -0.0203
     99  CD1        2.1840   29.8150  -21.3090 C.ar  123  PHE123     -0.0042
    100  CD2        4.5640   29.5460  -21.3550 C.ar  123  PHE123     -0.0042
    101  CE1        2.0340   28.5040  -21.8130 C.ar  123  PHE123     -0.0003
    102  CE2        4.4110   28.2400  -21.8480 C.ar  123  PHE123     -0.0003
    103  CZ         3.1490   27.7340  -22.0790 C.ar  123  PHE123     -0.0000
    104  N         -6.7650   30.5870  -27.4950 N.3   169  THR169     -0.1218
    105  CA        -5.6980   29.7350  -26.9910 C.3   169  THR169      0.1862
    106  C         -6.2110   28.8510  -25.8760 C.2   169  THR169      0.2287
    107  O         -6.9800   29.3170  -25.0160 O.2   169  THR169     -0.2866
    108  CB        -4.5160   30.6330  -26.5310 C.3   169  THR169      0.1770
    109  OG1       -3.9640   31.3380  -27.6600 O.3   169  THR169     -0.2211
    110  CG2       -3.3930   29.8600  -25.8360 C.3   169  THR169      0.0375
    111  N         -4.5750   26.3860  -22.9170 N.3   171  VAL171     -0.1245
    112  CA        -3.3410   25.9840  -22.2260 C.3   171  VAL171      0.1561
    113  C         -3.6780   24.7410  -21.4180 C.2   171  VAL171      0.2260
    114  O         -4.4740   24.8250  -20.4720 O.2   171  VAL171     -0.2867
    115  CB        -2.7220   27.1170  -21.3520 C.3   171  VAL171      0.0252
    116  CG1       -1.5100   26.6010  -20.5560 C.3   171  VAL171      0.0019
    117  CG2       -2.3120   28.3060  -22.2180 C.3   171  VAL171      0.0019
@<TRIPOS>BOND
     1    73    74    1
     2    68    67    2
     3    67    66    1
     4    80    78   ar
     5    78    79   ar
     6    78    77    1
     7    60    58    1
     8    56    55    2
     9    74    77    1
    10    74    75    1
    11    58    57    1
    12    66    65    1
    13    66    69    1
    14    65    63   am
    15    75    76    2
    16    64    63    2
    17    63    62    1
    18    55    54    1
    19    55    61   am
    20    69    70    1
    21    62    61    1
    22    54    57    1
    23    54    53    1
    24    57    59    1
    25    43    44    1
    26    43    42    1
    27    39    38    2
    28    41    42    1
    29    41    40    1
    30    70    71    1
    31    38    37    1
    32    40    37    1
    33    37    36    1
    34    90    89    1
    35    90    91    1
    36    71    72    1
    37    89    83   am
    38   109   108    1
    39   104   105    1
    40    81    82    1
    41    82    83    1
    42    82    85    1
    43    34    33    2
    44    83    84    2
    45    91    92    2
    46   105   108    1
    47   105   106    1
    48   108   110    1
    49    48    47    2
    50    33    32    1
    51    86    85    1
    52    86    88    1
    53    86    87    1
    54   106   107    2
    55    35    32    1
    56    32    31    1
    57    51    50   ar
    58    47    46    1
    59    26    25    2
    60    50    52   ar
    61    50    49    1
    62    31    25   am
    63    46    45    1
    64    46    49    1
    65    25    24    1
    66   111   112    1
    67    20    19    2
    68    24    27    1
    69    24    23    1
    70   112   113    1
    71   112   115    1
    72   117   115    1
    73    27    28    1
    74    12    11    2
    75   103   102   ar
    76   103   101   ar
    77   102   100   ar
    78   101    99   ar
    79    19    18    1
    80    18    21    1
    81    18    17    1
    82   113   114    2
    83   100    98   ar
    84   115   116    1
    85    99    98   ar
    86    11    17   am
    87    11    10    1
    88    98    97    1
    89    28    30   ar
    90    28    29   ar
    91    22    21    1
    92    97    94    1
    93    13    10    1
    94    13    14    1
    95    10     9    1
    96    16    14   am
    97    14    15    2
    98    94    93    1
    99    94    95    1
   100     4     3    2
   101     8     6    1
   102    95    96    2
   103     3     2    1
   104     2     5    1
   105     2     1    1
   106     5     6    1
   107     6     7    1
