@<TRIPOS>MOLECULE
tmp/4yl1A04.pdb
 73 67 0 0 0
SMALL
GASTEIGER

@<TRIPOS>ATOM
      1  N         13.4480   -5.4340   19.1530 N.3    22  LYS22      -0.1245
      2  CA        13.9220   -4.8100   20.3960 C.3    22  LYS22       0.1561
      3  C         12.8440   -4.8080   21.4920 C.2    22  LYS22       0.2260
      4  O         13.1560   -4.9590   22.6730 O.2    22  LYS22      -0.2867
      5  CB        14.4160   -3.3840   20.1310 C.3    22  LYS22       0.0271
      6  CG        15.0910   -2.7200   21.3290 C.3    22  LYS22       0.0035
      7  CD        14.6670   -1.2620   21.4770 C.3    22  LYS22       0.0206
      8  CE        13.2180   -1.1360   21.9350 C.3    22  LYS22       0.1093
      9  NZ        13.0180   -1.6510   23.3200 N.3    22  LYS22      -0.1314
     10  N         12.6510   -8.2910   22.8000 N.3    25  VAL25      -0.1231
     11  CA        13.7700   -8.4700   23.7340 C.3    25  VAL25       0.1692
     12  C         13.3940   -7.9590   25.1320 C.2    25  VAL25       0.2591
     13  O         13.6740   -8.6230   26.1360 O.2    25  VAL25      -0.2718
     14  CB        15.0730   -7.8080   23.2220 C.3    25  VAL25       0.0266
     15  CG1       16.1580   -7.8420   24.2940 C.3    25  VAL25       0.0020
     16  CG2       15.5700   -8.5080   21.9630 C.3    25  VAL25       0.0020
     17  N         12.7400   -6.8000   25.1950 N.am   26  VAL26      -0.1980
     18  CA        12.2470   -6.2770   26.4740 C.3    26  VAL26       0.1595
     19  C         11.2550   -7.2440   27.1310 C.2    26  VAL26       0.2287
     20  O         11.3380   -7.4930   28.3330 O.2    26  VAL26      -0.2864
     21  CB        11.6510   -4.8560   26.3370 C.3    26  VAL26       0.0276
     22  CG1       10.9830   -4.4130   27.6320 C.3    26  VAL26       0.0022
     23  CG2       12.7400   -3.8680   25.9500 C.3    26  VAL26       0.0022
     24  N         13.3260  -10.1710   28.5350 N.3    29  ILE29      -0.1245
     25  CA        14.0010   -9.7160   29.7510 C.3    29  ILE29       0.1561
     26  C         13.0190   -9.6410   30.9290 C.2    29  ILE29       0.2260
     27  O         13.3360  -10.0920   32.0330 O.2    29  ILE29      -0.2867
     28  CB        14.7210   -8.3630   29.5330 C.3    29  ILE29       0.0252
     29  CG1       15.9150   -8.5480   28.5840 C.3    29  ILE29       0.0019
     30  CG2       15.1740   -7.7670   30.8620 C.3    29  ILE29       0.0019
     31  CD1       16.5240   -7.2570   28.0710 C.3    29  ILE29       0.0001
     32  N         16.9480    2.5710   20.8900 N.3   107  VAL107     -0.1245
     33  CA        17.8190    1.5400   21.4540 C.3   107  VAL107      0.1561
     34  C         18.5330    2.1050   22.6850 C.2   107  VAL107      0.2260
     35  O         18.5820    1.4530   23.7360 O.2   107  VAL107     -0.2867
     36  CB        18.8180    0.9750   20.4180 C.3   107  VAL107      0.0252
     37  CG1       19.8280    0.0500   21.0860 C.3   107  VAL107      0.0019
     38  CG2       18.0710    0.2240   19.3220 C.3   107  VAL107      0.0019
     39  N         16.2060    2.2610   25.7910 N.3   110  THR110     -0.1203
     40  CA        16.0590    0.9980   26.5060 C.3   110  THR110      0.1994
     41  C         17.3060    0.6800   27.3400 C.2   110  THR110      0.2617
     42  O         17.1940    0.2370   28.4860 O.2   110  THR110     -0.2717
     43  CB        15.7200   -0.1500   25.5360 C.3   110  THR110      0.1784
     44  OG1       14.5080    0.1770   24.8490 O.3   110  THR110     -0.2211
     45  CG2       15.5220   -1.4600   26.2830 C.3   110  THR110      0.0376
     46  N         18.4860    0.9200   26.7670 N.am  111  VAL111     -0.1979
     47  CA        19.7410    0.7500   27.5060 C.3   111  VAL111      0.1595
     48  C         19.7720    1.6630   28.7400 C.2   111  VAL111      0.2287
     49  O         20.1050    1.2150   29.8410 O.2   111  VAL111     -0.2864
     50  CB        20.9710    0.9950   26.5990 C.3   111  VAL111      0.0276
     51  CG1       22.2630    0.9820   27.4080 C.3   111  VAL111      0.0022
     52  CG2       21.0370   -0.0560   25.5000 C.3   111  VAL111      0.0022
     53  N         16.7420    0.3310   31.3440 N.3   114  LEU114     -0.1231
     54  CA        17.0030   -0.9380   32.0090 C.3   114  LEU114      0.1693
     55  C         18.3470   -0.9340   32.7330 C.2   114  LEU114      0.2593
     56  O         18.5120   -1.6230   33.7410 O.2   114  LEU114     -0.2718
     57  CB        16.9160   -2.1030   31.0210 C.3   114  LEU114      0.0284
     58  CG        15.5670   -2.2750   30.3070 C.3   114  LEU114      0.0019
     59  CD1       15.5780   -3.5500   29.4750 C.3   114  LEU114      0.0001
     60  CD2       14.3900   -2.2780   31.2740 C.3   114  LEU114      0.0001
     61  N         19.2920   -0.1500   32.2150 N.am  115  GLY115     -0.1942
     62  CA        20.6110   -0.0020   32.8300 C.3   115  GLY115      0.2014
     63  C         20.6790    0.9990   33.9690 C.2   115  GLY115      0.2638
     64  O         21.7360    1.1580   34.5890 O.2   115  GLY115     -0.2714
     65  N         19.5610    1.6720   34.2450 N.am  116  LYS116     -0.1977
     66  CA        19.4520    2.6330   35.3560 C.3   116  LYS116      0.1596
     67  C         20.5040    3.7420   35.2650 C.2   116  LYS116      0.2287
     68  O         21.1130    4.1290   36.2690 O.2   116  LYS116     -0.2864
     69  CB        19.5250    1.9160   36.7190 C.3   116  LYS116      0.0298
     70  CG        18.5490    0.7580   36.8730 C.3   116  LYS116      0.0038
     71  CD        18.7400    0.0060   38.1810 C.3   116  LYS116      0.0206
     72  CE        17.8800   -1.2500   38.2100 C.3   116  LYS116      0.1093
     73  NZ        18.0530   -2.0330   39.4660 N.3   116  LYS116     -0.1314
@<TRIPOS>BOND
     1     1     2    1
     2    38    36    1
     3     5     2    1
     4     5     6    1
     5     2     3    1
     6    36    37    1
     7    36    33    1
     8    32    33    1
     9     6     7    1
    10    33    34    1
    11     7     8    1
    12     3     4    2
    13     8     9    1
    14    16    14    1
    15    34    35    2
    16    10    11    1
    17    14    11    1
    18    14    15    1
    19    11    12    1
    20    44    43    1
    21    12    17   am
    22    12    13    2
    23    17    18    1
    24    52    50    1
    25    43    45    1
    26    43    40    1
    27    39    40    1
    28    23    21    1
    29    21    18    1
    30    21    22    1
    31    18    19    1
    32    40    41    1
    33    50    51    1
    34    50    47    1
    35    46    41   am
    36    46    47    1
    37    19    20    2
    38    41    42    2
    39    47    48    1
    40    31    29    1
    41    24    25    1
    42    29    28    1
    43    48    49    2
    44    59    58    1
    45    28    25    1
    46    28    30    1
    47    25    26    1
    48    58    57    1
    49    58    60    1
    50    26    27    2
    51    57    54    1
    52    53    54    1
    53    54    55    1
    54    61    55   am
    55    61    62    1
    56    55    56    2
    57    62    63    1
    58    63    65   am
    59    63    64    2
    60    65    66    1
    61    67    66    1
    62    67    68    2
    63    66    69    1
    64    69    70    1
    65    70    71    1
    66    71    72    1
    67    72    73    1
