@<TRIPOS>MOLECULE
tmp/4ylaA00.pdb
 192 184 0 0 0
SMALL
GASTEIGER

@<TRIPOS>ATOM
      1  N          2.9420    8.5350  -11.2490 N.3     3  ASP3       -0.1239
      2  CA         2.0090    8.3840  -10.1350 C.3     3  ASP3        0.1674
      3  C          2.7560    7.9100   -8.8940 C.2     3  ASP3        0.2266
      4  O          3.4590    6.9010   -8.9490 O.2     3  ASP3       -0.2867
      5  CB         0.9130    7.3940  -10.5380 C.3     3  ASP3        0.1410
      6  CG        -0.2520    7.3710   -9.5740 C.2     3  ASP3        0.3668
      7  OD1       -0.0160    7.1710   -8.3660 O.co2   3  ASP3       -0.2456
      8  OD2       -1.4030    7.5230  -10.0220 O.co2   3  ASP3       -0.2456
      9  N          1.5190    6.6920   -6.1830 N.3     5  PHE5       -0.1227
     10  CA         0.7320    5.7560   -5.3800 C.3     5  PHE5        0.1736
     11  C          0.7220    4.3460   -5.9310 C.2     5  PHE5        0.2595
     12  O          0.4830    3.3990   -5.1910 O.2     5  PHE5       -0.2718
     13  CB        -0.7050    6.2560   -5.2560 C.3     5  PHE5        0.0547
     14  CG        -0.7950    7.6720   -4.7970 C.ar    5  PHE5       -0.0202
     15  CD1       -0.4220    8.0080   -3.5070 C.ar    5  PHE5       -0.0042
     16  CD2       -1.2330    8.6690   -5.6490 C.ar    5  PHE5       -0.0042
     17  CE1       -0.4820    9.3110   -3.0660 C.ar    5  PHE5       -0.0003
     18  CE2       -1.2920    9.9810   -5.2260 C.ar    5  PHE5       -0.0003
     19  CZ        -0.9070   10.3040   -3.9190 C.ar    5  PHE5       -0.0000
     20  N          0.9300    4.2180   -7.2400 N.am    6  VAL6       -0.1980
     21  CA         1.0090    2.9200   -7.9040 C.3     6  VAL6        0.1595
     22  C          2.2520    2.9420   -8.7950 C.2     6  VAL6        0.2287
     23  O          2.8210    4.0140   -9.0350 O.2     6  VAL6       -0.2864
     24  CB        -0.2530    2.6040   -8.7460 C.3     6  VAL6        0.0276
     25  CG1       -1.5010    2.5840   -7.8760 C.3     6  VAL6        0.0022
     26  CG2       -0.4240    3.6120   -9.8810 C.3     6  VAL6        0.0022
     27  N          0.6160    1.2120  -16.5420 N.3    79  TYR79      -0.1227
     28  CA        -0.1520    2.0280  -15.5970 C.3    79  TYR79       0.1736
     29  C         -1.6500    1.7640  -15.6720 C.2    79  TYR79       0.2595
     30  O         -2.3770    1.9940  -14.7130 O.2    79  TYR79      -0.2718
     31  CB         0.1180    3.4940  -15.9430 C.3    79  TYR79       0.0548
     32  CG        -0.4620    4.5570  -15.0240 C.ar   79  TYR79      -0.0200
     33  CD1       -0.2660    4.5180  -13.6470 C.ar   79  TYR79      -0.0009
     34  CD2       -1.1320    5.6520  -15.5560 C.ar   79  TYR79      -0.0009
     35  CE1       -0.7630    5.5410  -12.8220 C.ar   79  TYR79       0.0417
     36  CE2       -1.6280    6.6740  -14.7440 C.ar   79  TYR79       0.0417
     37  CZ        -1.4400    6.6080  -13.3850 C.ar   79  TYR79       0.1957
     38  OH        -1.9200    7.6260  -12.5990 O.3    79  TYR79      -0.2866
     39  N         -2.1090    1.2760  -16.8230 N.am   80  VAL80      -0.1980
     40  CA        -3.5370    1.2270  -17.0930 C.3    80  VAL80       0.1595
     41  C         -4.3130    0.2490  -16.2080 C.2    80  VAL80       0.2287
     42  O         -5.4730    0.5000  -15.9170 O.2    80  VAL80      -0.2864
     43  CB        -3.7940    0.9710  -18.6030 C.3    80  VAL80       0.0276
     44  CG1       -3.3370   -0.4140  -19.0010 C.3    80  VAL80       0.0022
     45  CG2       -5.2590    1.1880  -18.9710 C.3    80  VAL80       0.0022
     46  N         -4.2310   -2.2550  -12.5370 N.3    82  VAL82      -0.1245
     47  CA        -3.5220   -2.3220  -11.2520 C.3    82  VAL82       0.1561
     48  C         -2.5850   -3.5210  -11.1130 C.2    82  VAL82       0.2260
     49  O         -1.7270   -3.5420  -10.2400 O.2    82  VAL82      -0.2867
     50  CB        -4.4540   -2.2320  -10.0100 C.3    82  VAL82       0.0252
     51  CG1       -5.1670   -0.8800   -9.9700 C.3    82  VAL82       0.0019
     52  CG2       -5.4290   -3.4110   -9.9730 C.3    82  VAL82       0.0019
     53  N         -7.1860   -2.8460  -19.3990 N.3    88  GLU88      -0.1245
     54  CA        -8.0610   -2.8360  -18.2240 C.3    88  GLU88       0.1567
     55  C         -9.5010   -2.8030  -18.7050 C.2    88  GLU88       0.2260
     56  O         -9.8310   -2.0760  -19.6420 O.2    88  GLU88      -0.2867
     57  CB        -7.7760   -1.6040  -17.3650 C.3    88  GLU88       0.0388
     58  CG        -8.6280   -1.5060  -16.0890 C.3    88  GLU88       0.1160
     59  CD        -8.5920   -0.1240  -15.4640 C.2    88  GLU88       0.3649
     60  OE1       -8.9130    0.8610  -16.1720 O.co2  88  GLU88      -0.2457
     61  OE2       -8.2520   -0.0360  -14.2690 O.co2  88  GLU88      -0.2457
     62  N         -9.4520   -0.0960  -21.8610 N.3   104  THR104     -0.1218
     63  CA        -8.4290    0.9350  -21.9070 C.3   104  THR104      0.1862
     64  C         -7.0980    0.2160  -22.0420 C.2   104  THR104      0.2287
     65  O         -6.8620   -0.7880  -21.3670 O.2   104  THR104     -0.2866
     66  CB        -8.4470    1.8350  -20.6470 C.3   104  THR104      0.1770
     67  OG1       -9.7930    2.2460  -20.3780 O.3   104  THR104     -0.2211
     68  CG2       -7.5960    3.0640  -20.8700 C.3   104  THR104      0.0375
     69  N          3.6650    7.2120  -19.9030 N.3   156  TRP156     -0.1241
     70  CA         2.4490    6.5030  -20.2570 C.3   156  TRP156      0.1605
     71  C          1.5400    7.4130  -21.0630 C.2   156  TRP156      0.2264
     72  O          1.6060    8.6400  -20.9440 O.2   156  TRP156     -0.2867
     73  CB         1.7180    5.9890  -19.0000 C.3   156  TRP156      0.0550
     74  CG         1.3490    7.0430  -17.9890 C.ar  156  TRP156      0.0003
     75  CD1        2.0660    7.3900  -16.8830 C.ar  156  TRP156      0.0946
     76  CD2        0.1740    7.8640  -17.9830 C.ar  156  TRP156      0.0152
     77  NE1        1.4080    8.3840  -16.1820 N.ar  156  TRP156     -0.2442
     78  CE2        0.2480    8.6990  -16.8420 C.ar  156  TRP156      0.0810
     79  CE3       -0.9370    7.9720  -18.8250 C.ar  156  TRP156      0.0012
     80  CZ2       -0.7470    9.6270  -16.5200 C.ar  156  TRP156      0.0191
     81  CZ3       -1.9320    8.8960  -18.5070 C.ar  156  TRP156      0.0001
     82  CH2       -1.8280    9.7140  -17.3610 C.ar  156  TRP156      0.0015
     83  N         -2.7010    6.5240  -22.2940 N.3   158  MET158     -0.1245
     84  CA        -3.6830    5.4480  -22.2880 C.3   158  MET158      0.1570
     85  C         -4.7950    5.7420  -23.2820 C.2   158  MET158      0.2261
     86  O         -5.1870    6.8950  -23.4770 O.2   158  MET158     -0.2867
     87  CB        -4.2860    5.2550  -20.8940 C.3   158  MET158      0.0387
     88  CG        -3.2370    5.0300  -19.8180 C.3   158  MET158      0.0595
     89  SD        -3.8830    4.6370  -18.1880 S.3   158  MET158     -0.1393
     90  CE        -4.4040    6.2740  -17.6880 C.3   158  MET158      0.0692
     91  N         -5.9340    9.4670  -22.4930 N.3   174  TYR174     -0.1241
     92  CA        -5.4800    9.9650  -21.1940 C.3   174  TYR174      0.1605
     93  C         -4.0110   10.3330  -21.3230 C.2   174  TYR174      0.2264
     94  O         -3.1660    9.4920  -21.6820 O.2   174  TYR174     -0.2867
     95  CB        -5.6070    8.8770  -20.1160 C.3   174  TYR174      0.0534
     96  CG        -7.0110    8.3560  -19.9460 C.ar  174  TYR174     -0.0201
     97  CD1       -7.8230    8.8220  -18.9260 C.ar  174  TYR174     -0.0009
     98  CD2       -7.5210    7.4170  -20.8300 C.ar  174  TYR174     -0.0009
     99  CE1       -9.1240    8.3860  -18.8210 C.ar  174  TYR174      0.0417
    100  CE2       -8.7980    6.9460  -20.7030 C.ar  174  TYR174      0.0417
    101  CZ        -9.5960    7.4320  -19.7100 C.ar  174  TYR174      0.1957
    102  OH       -10.8820    6.9310  -19.5900 O.3   174  TYR174     -0.2866
    103  N         -3.6090   14.1290  -12.0410 N.3   219  GLY219     -0.1210
    104  CA        -3.3010   12.7830  -12.4900 C.3   219  GLY219      0.1956
    105  C         -3.3110   12.5930  -14.0000 C.2   219  GLY219      0.2612
    106  O         -2.5450   11.7950  -14.5170 O.2   219  GLY219     -0.2717
    107  N         -4.1930   13.3000  -14.6980 N.am  220  SER220     -0.1952
    108  CA        -4.2800   13.1690  -16.1460 C.3   220  SER220      0.1924
    109  C         -5.0920   14.3040  -16.7240 C.2   220  SER220      0.2314
    110  O         -5.9900   14.8580  -16.0730 O.2   220  SER220     -0.2863
    111  CB        -4.9430   11.8430  -16.5390 C.3   220  SER220      0.2116
    112  OG        -4.9740   11.6710  -17.9620 O.3   220  SER220     -0.2180
    113  N         -8.2240   15.0900  -14.0640 N.3   236  TYR236     -0.1241
    114  CA        -8.3190   14.2490  -12.8790 C.3   236  TYR236      0.1605
    115  C         -7.4460   14.8240  -11.7760 C.2   236  TYR236      0.2264
    116  O         -6.2310   14.9740  -11.9390 O.2   236  TYR236     -0.2867
    117  CB        -7.8910   12.8160  -13.2070 C.3   236  TYR236      0.0534
    118  CG        -8.8180   12.1360  -14.1830 C.ar  236  TYR236     -0.0201
    119  CD1       -9.7620   11.2130  -13.7450 C.ar  236  TYR236     -0.0009
    120  CD2       -8.7570   12.4120  -15.5480 C.ar  236  TYR236     -0.0009
    121  CE1      -10.6290   10.5880  -14.6420 C.ar  236  TYR236      0.0417
    122  CE2       -9.6100   11.7950  -16.4410 C.ar  236  TYR236      0.0417
    123  CZ       -10.5360   10.8930  -15.9830 C.ar  236  TYR236      0.1957
    124  OH       -11.3750   10.3030  -16.9020 O.3   236  TYR236     -0.2866
    125  N         -6.0730   14.2760   -8.1070 N.3   238  GLN238     -0.1245
    126  CA        -5.8170   13.2780   -7.0620 C.3   238  GLN238      0.1566
    127  C         -5.7190   13.9930   -5.7160 C.2   238  GLN238      0.2260
    128  O         -4.8280   14.8290   -5.5210 O.2   238  GLN238     -0.2867
    129  CB        -4.5160   12.5200   -7.3410 C.3   238  GLN238      0.0367
    130  CG        -4.4270   11.8810   -8.7210 C.3   238  GLN238      0.0905
    131  CD        -3.1360   11.1010   -8.9160 C.2   238  GLN238      0.2608
    132  OE1       -2.0520   11.5410   -8.5110 O.2   238  GLN238     -0.2717
    133  NE2       -3.2450    9.9220   -9.5270 N.am  238  GLN238     -0.0878
    134  N         -4.2990    4.8020   -1.6820 N.3   278  LYS278     -0.1245
    135  CA        -4.1600    5.9200   -2.6030 C.3   278  LYS278      0.1561
    136  C         -5.3940    6.8010   -2.4180 C.2   278  LYS278      0.2260
    137  O         -6.4550    6.3070   -2.0300 O.2   278  LYS278     -0.2867
    138  CB        -4.0540    5.4200   -4.0470 C.3   278  LYS278      0.0271
    139  CG        -5.3010    4.7240   -4.5680 C.3   278  LYS278      0.0035
    140  CD        -5.0180    4.0680   -5.9090 C.3   278  LYS278      0.0206
    141  CE        -6.2360    3.2750   -6.3810 C.3   278  LYS278      0.1093
    142  NZ        -5.9560    2.6470   -7.7030 N.3   278  LYS278     -0.1314
    143  N         -9.9820   10.5320   -6.3300 N.3   281  VAL281     -0.1245
    144  CA        -9.6660   11.4000   -7.4580 C.3   281  VAL281      0.1561
    145  C        -10.9660   11.9600   -7.9970 C.2   281  VAL281      0.2260
    146  O        -11.9290   11.2050   -8.1670 O.2   281  VAL281     -0.2867
    147  CB        -8.9780   10.5880   -8.5690 C.3   281  VAL281      0.0252
    148  CG1       -8.6400   11.4770   -9.7640 C.3   281  VAL281      0.0019
    149  CG2       -7.7450    9.8870   -8.0340 C.3   281  VAL281      0.0019
    150  N        -13.8520    9.3000   -8.1120 N.3   299  TYR299     -0.1241
    151  CA       -13.2180    7.9870   -8.1640 C.3   299  TYR299      0.1605
    152  C        -12.8320    7.5780   -6.7460 C.2   299  TYR299      0.2264
    153  O        -12.0040    8.2200   -6.0900 O.2   299  TYR299     -0.2867
    154  CB       -12.0270    8.0040   -9.1370 C.3   299  TYR299      0.0534
    155  CG       -12.4690    8.1370  -10.5860 C.ar  299  TYR299     -0.0201
    156  CD1      -13.0010    9.3290  -11.0660 C.ar  299  TYR299     -0.0009
    157  CD2      -12.4050    7.0540  -11.4550 C.ar  299  TYR299     -0.0009
    158  CE1      -13.4270    9.4450  -12.3660 C.ar  299  TYR299      0.0417
    159  CE2      -12.8330    7.1680  -12.7670 C.ar  299  TYR299      0.0417
    160  CZ       -13.3400    8.3590  -13.2010 C.ar  299  TYR299      0.1957
    161  OH       -13.7760    8.4760  -14.5090 O.3   299  TYR299     -0.2866
    162  N         -9.4740   -0.9680   -9.5840 N.3   348  ASN348     -0.1225
    163  CA        -8.6740    0.2360   -9.5670 C.3   348  ASN348      0.1785
    164  C         -9.3540    1.2850   -8.6650 C.2   348  ASN348      0.2597
    165  O         -8.8000    1.6910   -7.6350 O.2   348  ASN348     -0.2718
    166  CB        -8.5400    0.7280  -11.0160 C.3   348  ASN348      0.1169
    167  CG        -7.4140    1.7080  -11.2090 C.2   348  ASN348      0.2627
    168  OD1       -6.9080    2.3120  -10.2610 O.2   348  ASN348     -0.2716
    169  ND2       -6.9920    1.8660  -12.4590 N.am  348  ASN348     -0.0877
    170  N        -10.5470    1.7010   -9.0850 N.am  349  PHE349     -0.1976
    171  CA       -11.4520    2.5640   -8.3240 C.3   349  PHE349      0.1639
    172  C        -12.8520    2.1280   -8.7360 C.2   349  PHE349      0.2290
    173  O        -13.0270    1.4310   -9.7410 O.2   349  PHE349     -0.2864
    174  CB       -11.3380    4.0330   -8.7670 C.3   349  PHE349      0.0560
    175  CG       -10.0610    4.7330   -8.3810 C.ar  349  PHE349     -0.0200
    176  CD1       -9.9640    5.4180   -7.1770 C.ar  349  PHE349     -0.0042
    177  CD2       -8.9940    4.7830   -9.2640 C.ar  349  PHE349     -0.0042
    178  CE1       -8.8280    6.1010   -6.8420 C.ar  349  PHE349     -0.0003
    179  CE2       -7.8480    5.4620   -8.9200 C.ar  349  PHE349     -0.0003
    180  CZ        -7.7620    6.1220   -7.7070 C.ar  349  PHE349     -0.0000
    181  N        -13.6370   -0.4000  -12.7440 N.3   366  TYR366     -0.1241
    182  CA       -12.3960   -0.4560  -13.5050 C.3   366  TYR366      0.1605
    183  C        -11.6040   -1.5850  -12.9010 C.2   366  TYR366      0.2264
    184  O        -11.2780   -1.5370  -11.7220 O.2   366  TYR366     -0.2867
    185  CB       -11.6320    0.8590  -13.3510 C.3   366  TYR366      0.0534
    186  CG       -12.3930    2.0310  -13.8980 C.ar  366  TYR366     -0.0201
    187  CD1      -12.2580    2.4160  -15.2260 C.ar  366  TYR366     -0.0009
    188  CD2      -13.2800    2.7390  -13.0930 C.ar  366  TYR366     -0.0009
    189  CE1      -12.9890    3.4840  -15.7350 C.ar  366  TYR366      0.0417
    190  CE2      -13.9960    3.8040  -13.5920 C.ar  366  TYR366      0.0417
    191  CZ       -13.8450    4.1690  -14.9030 C.ar  366  TYR366      0.1957
    192  OH       -14.5680    5.2330  -15.4050 O.3   366  TYR366     -0.2866
@<TRIPOS>BOND
     1    86    85    2
     2    85    84    1
     3    91    92    1
     4    83    84    1
     5    84    87    1
     6    64    63    1
     7    64    65    2
     8    63    62    1
     9    63    66    1
    10    94    93    2
    11    93    92    1
    12    92    95    1
    13    71    72    2
    14    71    70    1
    15    87    88    1
    16    68    66    1
    17    98   100   ar
    18    98    96   ar
    19   100   101   ar
    20    66    67    1
    21    70    69    1
    22    70    73    1
    23    95    96    1
    24    96    97   ar
    25    88    89    1
    26   101   102    1
    27   101    99   ar
    28    56    55    2
    29    53    54    1
    30    44    43    1
    31    73    74    1
    32    45    43    1
    33    97    99   ar
    34    79    81   ar
    35    79    76   ar
    36    55    54    1
    37    43    40    1
    38    81    82   ar
    39    54    57    1
    40    89    90    1
    41    74    76   ar
    42    74    75   ar
    43    76    78   ar
    44   112   111    1
    45    57    58    1
    46    82    80   ar
    47    40    39    1
    48    40    41    1
    49   124   123    1
    50    75    77   ar
    51    78    80   ar
    52    78    77   ar
    53    39    29   am
    54   109   108    1
    55   109   110    2
    56    27    28    1
    57   111   108    1
    58   122   123   ar
    59   122   120   ar
    60    41    42    2
    61    60    59   ar
    62   108   107    1
    63    58    59    1
    64   123   121   ar
    65    31    28    1
    66    31    32    1
    67   189   187   ar
    68   189   191   ar
    69    29    28    1
    70    29    30    2
    71    34    32   ar
    72    34    36   ar
    73   120   118   ar
    74    59    61   ar
    75   192   191    1
    76   187   186   ar
    77    32    33   ar
    78   191   190   ar
    79    36    37   ar
    80   107   105   am
    81   121   119   ar
    82   106   105    2
    83   161   160    1
    84   118   119   ar
    85   118   117    1
    86   113   114    1
    87   105   104    1
    88   186   185    1
    89   186   188   ar
    90    33    35   ar
    91   190   188   ar
    92   182   185    1
    93   182   183    1
    94   182   181    1
    95    37    35   ar
    96    37    38    1
    97   117   114    1
    98   160   159   ar
    99   160   158   ar
   100   183   184    2
   101   114   115    1
   102   159   157   ar
   103    46    47    1
   104   104   103    1
   105   169   167   am
   106   158   156   ar
   107   116   115    2
   108   157   155   ar
   109    47    48    1
   110    47    50    1
   111     1     2    1
   112   167   166    1
   113   167   168    2
   114    48    49    2
   115   156   155   ar
   116   166   163    1
   117   155   154    1
   118     5     2    1
   119     5     6    1
   120     2     3    1
   121     8     6   ar
   122    50    52    1
   123    50    51    1
   124    26    24    1
   125   148   147    1
   126   173   172    2
   127   162   163    1
   128     6     7   ar
   129   163   164    1
   130   133   131   am
   131   177   179   ar
   132   177   175   ar
   133   154   151    1
   134   170   164   am
   135   170   171    1
   136    23    22    2
   137     4     3    2
   138   179   180   ar
   139   131   130    1
   140   131   132    2
   141    22    21    1
   142   174   175    1
   143   174   171    1
   144    24    21    1
   145    24    25    1
   146   172   171    1
   147   130   129    1
   148   164   165    2
   149   147   149    1
   150   147   144    1
   151   175   176   ar
   152   146   145    2
   153   151   150    1
   154   151   152    1
   155   125   126    1
   156   145   144    1
   157    21    20    1
   158   180   178   ar
   159   142   141    1
   160   144   143    1
   161   129   126    1
   162    20    11   am
   163   176   178   ar
   164   126   127    1
   165   152   153    2
   166   141   140    1
   167     9    10    1
   168    11    10    1
   169    11    12    2
   170   140   139    1
   171   127   128    2
   172    16    18   ar
   173    16    14   ar
   174    10    13    1
   175    13    14    1
   176    18    19   ar
   177    14    15   ar
   178   139   138    1
   179   138   135    1
   180    19    17   ar
   181    15    17   ar
   182   135   136    1
   183   135   134    1
   184   136   137    2
