@<TRIPOS>MOLECULE
tmp/4ylaA01.pdb
 165 151 0 0 0
SMALL
GASTEIGER

@<TRIPOS>ATOM
      1  N         -2.1090    1.2760  -16.8230 N.3    80  VAL80      -0.1245
      2  CA        -3.5370    1.2270  -17.0930 C.3    80  VAL80       0.1561
      3  C         -4.3130    0.2490  -16.2080 C.2    80  VAL80       0.2260
      4  O         -5.4730    0.5000  -15.9170 O.2    80  VAL80      -0.2867
      5  CB        -3.7940    0.9710  -18.6030 C.3    80  VAL80       0.0252
      6  CG1       -3.3370   -0.4140  -19.0010 C.3    80  VAL80       0.0019
      7  CG2       -5.2590    1.1880  -18.9710 C.3    80  VAL80       0.0019
      8  N         -7.1860   -2.8460  -19.3990 N.3    88  GLU88      -0.1245
      9  CA        -8.0610   -2.8360  -18.2240 C.3    88  GLU88       0.1567
     10  C         -9.5010   -2.8030  -18.7050 C.2    88  GLU88       0.2260
     11  O         -9.8310   -2.0760  -19.6420 O.2    88  GLU88      -0.2867
     12  CB        -7.7760   -1.6040  -17.3650 C.3    88  GLU88       0.0388
     13  CG        -8.6280   -1.5060  -16.0890 C.3    88  GLU88       0.1160
     14  CD        -8.5920   -0.1240  -15.4640 C.2    88  GLU88       0.3649
     15  OE1       -8.9130    0.8610  -16.1720 O.co2  88  GLU88      -0.2457
     16  OE2       -8.2520   -0.0360  -14.2690 O.co2  88  GLU88      -0.2457
     17  N        -16.0580   -0.9160  -21.6260 N.3   102  ARG102     -0.1245
     18  CA       -14.9150   -0.1640  -22.1220 C.3   102  ARG102      0.1563
     19  C        -13.6420   -0.9520  -21.9080 C.2   102  ARG102      0.2260
     20  O        -13.5110   -1.6910  -20.9320 O.2   102  ARG102     -0.2867
     21  CB       -14.8090    1.1920  -21.4220 C.3   102  ARG102      0.0307
     22  CG       -16.0750    2.0560  -21.5070 C.3   102  ARG102      0.0489
     23  CD       -17.0180    1.8660  -20.3080 C.3   102  ARG102      0.2205
     24  NE       -16.4730    2.4030  -19.0680 N.pl3 102  ARG102     -0.0865
     25  CZ       -16.5040    3.6870  -18.7240 C.cat 102  ARG102      0.5346
     26  NH1      -17.0650    4.5860  -19.5250 N.pl3 102  ARG102      0.1354
     27  NH2      -15.9690    4.0680  -17.5730 N.pl3 102  ARG102      0.1354
     28  N         -9.4520   -0.0960  -21.8610 N.3   104  THR104     -0.1218
     29  CA        -8.4290    0.9350  -21.9070 C.3   104  THR104      0.1862
     30  C         -7.0980    0.2160  -22.0420 C.2   104  THR104      0.2287
     31  O         -6.8620   -0.7880  -21.3670 O.2   104  THR104     -0.2866
     32  CB        -8.4470    1.8350  -20.6470 C.3   104  THR104      0.1770
     33  OG1       -9.7930    2.2460  -20.3780 O.3   104  THR104     -0.2211
     34  CG2       -7.5960    3.0640  -20.8700 C.3   104  THR104      0.0375
     35  N         -2.7010    6.5240  -22.2940 N.3   158  MET158     -0.1245
     36  CA        -3.6830    5.4480  -22.2880 C.3   158  MET158      0.1570
     37  C         -4.7950    5.7420  -23.2820 C.2   158  MET158      0.2261
     38  O         -5.1870    6.8950  -23.4770 O.2   158  MET158     -0.2867
     39  CB        -4.2860    5.2550  -20.8940 C.3   158  MET158      0.0387
     40  CG        -3.2370    5.0300  -19.8180 C.3   158  MET158      0.0595
     41  SD        -3.8830    4.6370  -18.1880 S.3   158  MET158     -0.1393
     42  CE        -4.4040    6.2740  -17.6880 C.3   158  MET158      0.0692
     43  N        -11.2990    7.6130  -26.3370 N.3   172  LYS172     -0.1245
     44  CA       -10.8180    8.5310  -25.3210 C.3   172  LYS172      0.1561
     45  C         -9.3150    8.3590  -25.2030 C.2   172  LYS172      0.2260
     46  O         -8.7850    7.2650  -25.4420 O.2   172  LYS172     -0.2867
     47  CB       -11.4510    8.1890  -23.9740 C.3   172  LYS172      0.0271
     48  CG       -11.2630    9.2550  -22.9410 C.3   172  LYS172      0.0035
     49  CD       -11.9490    8.9230  -21.6530 C.3   172  LYS172      0.0206
     50  CE       -11.7240   10.0810  -20.6800 C.3   172  LYS172      0.1093
     51  NZ       -11.9270    9.7490  -19.2540 N.3   172  LYS172     -0.1314
     52  N         -5.9340    9.4670  -22.4930 N.3   174  TYR174     -0.1241
     53  CA        -5.4800    9.9650  -21.1940 C.3   174  TYR174      0.1605
     54  C         -4.0110   10.3330  -21.3230 C.2   174  TYR174      0.2264
     55  O         -3.1660    9.4920  -21.6820 O.2   174  TYR174     -0.2867
     56  CB        -5.6070    8.8770  -20.1160 C.3   174  TYR174      0.0534
     57  CG        -7.0110    8.3560  -19.9460 C.ar  174  TYR174     -0.0201
     58  CD1       -7.8230    8.8220  -18.9260 C.ar  174  TYR174     -0.0009
     59  CD2       -7.5210    7.4170  -20.8300 C.ar  174  TYR174     -0.0009
     60  CE1       -9.1240    8.3860  -18.8210 C.ar  174  TYR174      0.0417
     61  CE2       -8.7980    6.9460  -20.7030 C.ar  174  TYR174      0.0417
     62  CZ        -9.5960    7.4320  -19.7100 C.ar  174  TYR174      0.1957
     63  OH       -10.8820    6.9310  -19.5900 O.3   174  TYR174     -0.2866
     64  N         -4.1930   13.3000  -14.6980 N.3   220  SER220     -0.1217
     65  CA        -4.2800   13.1690  -16.1460 C.3   220  SER220      0.1889
     66  C         -5.0920   14.3040  -16.7240 C.2   220  SER220      0.2288
     67  O         -5.9900   14.8580  -16.0730 O.2   220  SER220     -0.2866
     68  CB        -4.9430   11.8430  -16.5390 C.3   220  SER220      0.2089
     69  OG        -4.9740   11.6710  -17.9620 O.3   220  SER220     -0.2183
     70  N        -12.2170   13.3070  -24.8170 N.3   224  ASP224     -0.1239
     71  CA       -13.1400   12.5540  -25.6600 C.3   224  ASP224      0.1674
     72  C        -12.8160   12.8860  -27.1120 C.2   224  ASP224      0.2266
     73  O        -12.8660   14.0480  -27.5190 O.2   224  ASP224     -0.2867
     74  CB       -14.5800   12.9640  -25.3580 C.3   224  ASP224      0.1410
     75  CG       -15.0050   12.6120  -23.9470 C.2   224  ASP224      0.3668
     76  OD1      -14.5290   11.5830  -23.4190 O.co2 224  ASP224     -0.2456
     77  OD2      -15.8210   13.3760  -23.3730 O.co2 224  ASP224     -0.2456
     78  N        -11.2750   16.5260  -19.8190 N.3   234  LYS234     -0.1245
     79  CA       -11.4010   16.0450  -18.4550 C.3   234  LYS234      0.1561
     80  C        -10.0760   16.1620  -17.7230 C.2   234  LYS234      0.2260
     81  O         -9.0270   15.7980  -18.2550 O.2   234  LYS234     -0.2867
     82  CB       -11.8970   14.5990  -18.4590 C.3   234  LYS234      0.0271
     83  CG       -13.3320   14.5180  -18.9800 C.3   234  LYS234      0.0035
     84  CD       -13.9990   13.1580  -18.8680 C.3   234  LYS234      0.0206
     85  CE       -15.5160   13.3460  -18.9390 C.3   234  LYS234      0.1093
     86  NZ       -16.3170   12.0880  -18.8810 N.3   234  LYS234     -0.1314
     87  N         -8.2240   15.0900  -14.0640 N.3   236  TYR236     -0.1241
     88  CA        -8.3190   14.2490  -12.8790 C.3   236  TYR236      0.1605
     89  C         -7.4460   14.8240  -11.7760 C.2   236  TYR236      0.2264
     90  O         -6.2310   14.9740  -11.9390 O.2   236  TYR236     -0.2867
     91  CB        -7.8910   12.8160  -13.2070 C.3   236  TYR236      0.0534
     92  CG        -8.8180   12.1360  -14.1830 C.ar  236  TYR236     -0.0201
     93  CD1       -9.7620   11.2130  -13.7450 C.ar  236  TYR236     -0.0009
     94  CD2       -8.7570   12.4120  -15.5480 C.ar  236  TYR236     -0.0009
     95  CE1      -10.6290   10.5880  -14.6420 C.ar  236  TYR236      0.0417
     96  CE2       -9.6100   11.7950  -16.4410 C.ar  236  TYR236      0.0417
     97  CZ       -10.5360   10.8930  -15.9830 C.ar  236  TYR236      0.1957
     98  OH       -11.3750   10.3030  -16.9020 O.3   236  TYR236     -0.2866
     99  N        -12.7510   13.7330  -11.2460 N.3   283  CYS283     -0.1235
    100  CA       -12.6400   14.1250  -12.6400 C.3   283  CYS283      0.1677
    101  C        -13.5520   15.3110  -12.9100 C.2   283  CYS283      0.2270
    102  O        -14.7760   15.2000  -12.7930 O.2   283  CYS283     -0.2867
    103  CB       -13.0340   12.9780  -13.5520 C.3   283  CYS283      0.0956
    104  SG       -12.9170   13.4610  -15.2790 S.3   283  CYS283     -0.0801
    105  N        -17.0190   13.9460  -11.3030 N.3   297  THR297     -0.1218
    106  CA       -17.2000   12.5270  -11.0450 C.3   297  THR297      0.1862
    107  C        -16.1390   12.0670  -10.0500 C.2   297  THR297      0.2287
    108  O        -14.9630   12.4160  -10.1760 O.2   297  THR297     -0.2866
    109  CB       -17.0490   11.7560  -12.3560 C.3   297  THR297      0.1770
    110  OG1      -18.0160   12.2510  -13.2900 O.3   297  THR297     -0.2211
    111  CG2      -17.2350   10.2580  -12.1430 C.3   297  THR297      0.0375
    112  N        -13.8520    9.3000   -8.1120 N.3   299  TYR299     -0.1241
    113  CA       -13.2180    7.9870   -8.1640 C.3   299  TYR299      0.1605
    114  C        -12.8320    7.5780   -6.7460 C.2   299  TYR299      0.2264
    115  O        -12.0040    8.2200   -6.0900 O.2   299  TYR299     -0.2867
    116  CB       -12.0270    8.0040   -9.1370 C.3   299  TYR299      0.0534
    117  CG       -12.4690    8.1370  -10.5860 C.ar  299  TYR299     -0.0201
    118  CD1      -13.0010    9.3290  -11.0660 C.ar  299  TYR299     -0.0009
    119  CD2      -12.4050    7.0540  -11.4550 C.ar  299  TYR299     -0.0009
    120  CE1      -13.4270    9.4450  -12.3660 C.ar  299  TYR299      0.0417
    121  CE2      -12.8330    7.1680  -12.7670 C.ar  299  TYR299      0.0417
    122  CZ       -13.3400    8.3590  -13.2010 C.ar  299  TYR299      0.1957
    123  OH       -13.7760    8.4760  -14.5090 O.3   299  TYR299     -0.2866
    124  N         -9.4740   -0.9680   -9.5840 N.3   348  ASN348     -0.1240
    125  CA        -8.6740    0.2360   -9.5670 C.3   348  ASN348      0.1653
    126  C         -9.3540    1.2850   -8.6650 C.2   348  ASN348      0.2266
    127  O         -8.8000    1.6910   -7.6350 O.2   348  ASN348     -0.2867
    128  CB        -8.5400    0.7280  -11.0160 C.3   348  ASN348      0.1155
    129  CG        -7.4140    1.7080  -11.2090 C.2   348  ASN348      0.2627
    130  OD1       -6.9080    2.3120  -10.2610 O.2   348  ASN348     -0.2716
    131  ND2       -6.9920    1.8660  -12.4590 N.am  348  ASN348     -0.0877
    132  N        -21.1540    9.4870  -10.0240 N.3   353  ARG353     -0.1245
    133  CA       -21.6600   10.8390  -10.1720 C.3   353  ARG353      0.1563
    134  C        -23.1210   10.8100   -9.7800 C.2   353  ARG353      0.2260
    135  O        -23.9080   10.0750  -10.3760 O.2   353  ARG353     -0.2867
    136  CB       -21.5290   11.3290  -11.6090 C.3   353  ARG353      0.0307
    137  CG       -21.8420   12.8120  -11.7500 C.3   353  ARG353      0.0489
    138  CD       -21.9260   13.2460  -13.1930 C.3   353  ARG353      0.2205
    139  NE       -20.6990   12.9700  -13.9190 N.pl3 353  ARG353     -0.0865
    140  CZ       -20.5680   13.1280  -15.2310 C.cat 353  ARG353      0.5346
    141  NH1      -21.5940   13.5700  -15.9480 N.pl3 353  ARG353      0.1354
    142  NH2      -19.4150   12.8450  -15.8240 N.pl3 353  ARG353      0.1354
    143  N        -24.7810    7.8210  -11.9110 N.3   362  ARG362     -0.1245
    144  CA       -23.7890    7.0940  -12.6960 C.3   362  ARG362      0.1563
    145  C        -22.8560    6.3410  -11.7810 C.2   362  ARG362      0.2260
    146  O        -22.4820    6.8350  -10.7260 O.2   362  ARG362     -0.2867
    147  CB       -22.9410    8.0580  -13.5160 C.3   362  ARG362      0.0307
    148  CG       -23.6790    8.7970  -14.6010 C.3   362  ARG362      0.0489
    149  CD       -22.6790    9.5860  -15.4180 C.3   362  ARG362      0.2205
    150  NE       -23.2770   10.3670  -16.4900 N.pl3 362  ARG362     -0.0865
    151  CZ       -22.5650   11.0090  -17.4120 C.cat 362  ARG362      0.5346
    152  NH1      -21.2380   10.9460  -17.3850 N.pl3 362  ARG362      0.1354
    153  NH2      -23.1750   11.7080  -18.3600 N.pl3 362  ARG362      0.1354
    154  N        -13.6370   -0.4000  -12.7440 N.3   366  TYR366     -0.1241
    155  CA       -12.3960   -0.4560  -13.5050 C.3   366  TYR366      0.1605
    156  C        -11.6040   -1.5850  -12.9010 C.2   366  TYR366      0.2264
    157  O        -11.2780   -1.5370  -11.7220 O.2   366  TYR366     -0.2867
    158  CB       -11.6320    0.8590  -13.3510 C.3   366  TYR366      0.0534
    159  CG       -12.3930    2.0310  -13.8980 C.ar  366  TYR366     -0.0201
    160  CD1      -12.2580    2.4160  -15.2260 C.ar  366  TYR366     -0.0009
    161  CD2      -13.2800    2.7390  -13.0930 C.ar  366  TYR366     -0.0009
    162  CE1      -12.9890    3.4840  -15.7350 C.ar  366  TYR366      0.0417
    163  CE2      -13.9960    3.8040  -13.5920 C.ar  366  TYR366      0.0417
    164  CZ       -13.8450    4.1690  -14.9030 C.ar  366  TYR366      0.1957
    165  OH       -14.5680    5.2330  -15.4050 O.3   366  TYR366     -0.2866
@<TRIPOS>BOND
     1    73    72    2
     2    72    71    1
     3    43    44    1
     4    71    74    1
     5    71    70    1
     6    46    45    2
     7    74    75    1
     8    44    45    1
     9    44    47    1
    10    47    48    1
    11    75    76   ar
    12    75    77   ar
    13    38    37    2
    14    37    36    1
    15    48    49    1
    16    52    53    1
    17    35    36    1
    18    36    39    1
    19    18    19    1
    20    18    17    1
    21    18    21    1
    22    30    29    1
    23    30    31    2
    24    19    20    2
    25    29    28    1
    26    29    32    1
    27    55    54    2
    28    49    50    1
    29    22    21    1
    30    22    23    1
    31    54    53    1
    32    53    56    1
    33    39    40    1
    34    34    32    1
    35    59    61   ar
    36    59    57   ar
    37    61    62   ar
    38    50    51    1
    39    32    33    1
    40    23    24    1
    41    56    57    1
    42    57    58   ar
    43    78    79    1
    44    40    41    1
    45    62    63    1
    46    62    60   ar
    47    11    10    2
    48    26    25    1
    49     8     9    1
    50    24    25    2
    51     6     5    1
    52    83    84    1
    53    83    82    1
    54     7     5    1
    55    85    86    1
    56    85    84    1
    57    58    60   ar
    58    25    27    1
    59    10     9    1
    60     5     2    1
    61    82    79    1
    62    79    80    1
    63   153   151    1
    64    81    80    2
    65     9    12    1
    66    41    42    1
    67    69    68    1
    68   151   152    1
    69   151   150    2
    70    12    13    1
    71     2     1    1
    72     2     3    1
    73    98    97    1
    74    66    65    1
    75    66    67    2
    76    68    65    1
    77   150   149    1
    78    96    97   ar
    79    96    94   ar
    80     3     4    2
    81    15    14   ar
    82    65    64    1
    83    13    14    1
    84    97    95   ar
    85   141   140    1
    86   142   140    1
    87   162   160   ar
    88   162   164   ar
    89    94    92   ar
    90    14    16   ar
    91   149   148    1
    92   165   164    1
    93   104   103    1
    94   140   139    2
    95   160   159   ar
    96   164   163   ar
    97    95    93   ar
    98   148   147    1
    99   123   122    1
   100    92    93   ar
   101    92    91    1
   102    87    88    1
   103   139   138    1
   104   159   158    1
   105   159   161   ar
   106   163   161   ar
   107   103   100    1
   108   147   144    1
   109   155   158    1
   110   155   156    1
   111   155   154    1
   112   110   109    1
   113    91    88    1
   114   122   121   ar
   115   122   120   ar
   116   138   137    1
   117   101   102    2
   118   101   100    1
   119   156   157    2
   120    88    89    1
   121   121   119   ar
   122   144   143    1
   123   144   145    1
   124   100    99    1
   125   131   129   am
   126   120   118   ar
   127   109   111    1
   128   109   106    1
   129    90    89    2
   130   145   146    2
   131   137   136    1
   132   136   133    1
   133   119   117   ar
   134   105   106    1
   135   129   128    1
   136   129   130    2
   137   118   117   ar
   138   106   107    1
   139   128   125    1
   140   117   116    1
   141   135   134    2
   142   108   107    2
   143   133   132    1
   144   133   134    1
   145   124   125    1
   146   125   126    1
   147   116   113    1
   148   126   127    2
   149   113   112    1
   150   113   114    1
   151   114   115    2
