@<TRIPOS>MOLECULE
tmp/4yleA00.pdb
 114 107 0 0 0
SMALL
GASTEIGER

@<TRIPOS>ATOM
      1  N          8.8650    4.6560   12.7250 N.3    10  LYS10      -0.1245
      2  CA         9.0720    5.9700   13.3050 C.3    10  LYS10       0.1561
      3  C         10.2770    5.8780   14.2220 C.2    10  LYS10       0.2260
      4  O         11.3340    5.3880   13.8260 O.2    10  LYS10      -0.2867
      5  CB         7.8130    6.4480   14.0240 C.3    10  LYS10       0.0271
      6  CG         6.6310    6.7360   13.0850 C.3    10  LYS10       0.0035
      7  CD         5.2770    6.9760   13.8390 C.3    10  LYS10       0.0206
      8  CE         4.3890    5.7120   13.7930 C.3    10  LYS10       0.1093
      9  NZ         3.4550    5.5870   14.9650 N.3    10  LYS10      -0.1314
     10  N         12.1800    4.6270   20.4900 N.3    14  ASN14      -0.1240
     11  CA        10.9520    4.1200   21.1240 C.3    14  ASN14       0.1653
     12  C         10.9690    2.6040   21.1200 C.2    14  ASN14       0.2266
     13  O         11.0710    2.0030   20.0380 O.2    14  ASN14      -0.2867
     14  CB         9.7480    4.6500   20.3470 C.3    14  ASN14       0.1155
     15  CG         8.4060    4.2880   20.9700 C.2    14  ASN14       0.2627
     16  OD1        8.3070    3.4580   21.8760 O.2    14  ASN14      -0.2716
     17  ND2        7.3590    4.9400   20.4750 N.am   14  ASN14      -0.0877
     18  N          8.7380    0.5120   21.3450 N.3    16  PHE16      -0.1227
     19  CA         7.6840   -0.0160   20.4920 C.3    16  PHE16       0.1736
     20  C          8.2330   -0.4180   19.1200 C.2    16  PHE16       0.2595
     21  O          7.9420   -1.5010   18.5960 O.2    16  PHE16      -0.2718
     22  CB         6.5870    1.0220   20.3330 C.3    16  PHE16       0.0547
     23  CG         5.4400    0.5640   19.4600 C.ar   16  PHE16      -0.0202
     24  CD1        4.4220   -0.2290   19.9690 C.ar   16  PHE16      -0.0042
     25  CD2        5.3680    0.9610   18.1340 C.ar   16  PHE16      -0.0042
     26  CE1        3.3650   -0.6390   19.1540 C.ar   16  PHE16      -0.0003
     27  CE2        4.3240    0.5810   17.3280 C.ar   16  PHE16      -0.0003
     28  CZ         3.3190   -0.2340   17.8280 C.ar   16  PHE16      -0.0000
     29  N          9.0280    0.4550   18.5150 N.am   17  PHE17      -0.1976
     30  CA         9.5520    0.1560   17.1950 C.3    17  PHE17       0.1639
     31  C         10.7240   -0.7750   17.2290 C.2    17  PHE17       0.2290
     32  O         10.9370   -1.5350   16.2650 O.2    17  PHE17      -0.2864
     33  CB         9.8570    1.4630   16.4710 C.3    17  PHE17       0.0560
     34  CG         8.6120    2.2150   16.1620 C.ar   17  PHE17      -0.0200
     35  CD1        7.7220    1.7150   15.2270 C.ar   17  PHE17      -0.0042
     36  CD2        8.2820    3.3550   16.8560 C.ar   17  PHE17      -0.0042
     37  CE1        6.5310    2.3780   14.9750 C.ar   17  PHE17      -0.0003
     38  CE2        7.0960    4.0200   16.6080 C.ar   17  PHE17      -0.0003
     39  CZ         6.2150    3.5150   15.6820 C.ar   17  PHE17      -0.0000
     40  N         10.1540   11.0560   17.0590 N.3    44  GLU44      -0.1245
     41  CA         8.7980   10.7480   16.6240 C.3    44  GLU44       0.1567
     42  C          8.2110   11.7900   15.6810 C.2    44  GLU44       0.2260
     43  O          7.1440   11.5800   15.1130 O.2    44  GLU44      -0.2867
     44  CB         7.8880   10.6000   17.8480 C.3    44  GLU44       0.0388
     45  CG         8.3100    9.4640   18.7750 C.3    44  GLU44       0.1160
     46  CD         7.8180    8.1130   18.3230 C.2    44  GLU44       0.3649
     47  OE1        7.4130    7.9800   17.1450 O.co2  44  GLU44      -0.2457
     48  OE2        7.8380    7.1800   19.1520 O.co2  44  GLU44      -0.2457
     49  N          0.0560    0.5760   11.5470 N.3    92  ASP92      -0.1239
     50  CA         0.1620    1.3370   12.8140 C.3    92  ASP92       0.1674
     51  C         -0.7210    2.5810   12.8140 C.2    92  ASP92       0.2266
     52  O         -1.7550    2.6310   13.4880 O.2    92  ASP92      -0.2867
     53  CB         1.6160    1.7070   13.0870 C.3    92  ASP92       0.1410
     54  CG         1.7910    2.5300   14.3600 C.2    92  ASP92       0.3668
     55  OD1        0.9180    2.4640   15.2260 O.co2  92  ASP92      -0.2456
     56  OD2        2.8220    3.2310   14.4950 O.co2  92  ASP92      -0.2456
     57  N         -3.7750    7.8290   14.8080 N.3   146  ASN146     -0.1240
     58  CA        -3.7770    6.9940   16.0010 C.3   146  ASN146      0.1653
     59  C         -3.7870    7.8460   17.2650 C.2   146  ASN146      0.2266
     60  O         -4.4210    7.4780   18.2410 O.2   146  ASN146     -0.2867
     61  CB        -2.6340    5.9570   16.0040 C.3   146  ASN146      0.1155
     62  CG        -1.2580    6.5390   15.8700 C.2   146  ASN146      0.2627
     63  OD1       -1.0560    7.6380   15.3820 O.2   146  ASN146     -0.2716
     64  ND2       -0.2680    5.7490   16.2820 N.am  146  ASN146     -0.0877
     65  N         -6.9080    7.5540   19.9660 N.3   150  ARG150     -0.1245
     66  CA        -6.6750    7.2060   21.3710 C.3   150  ARG150      0.1563
     67  C         -7.2790    8.2560   22.2670 C.2   150  ARG150      0.2260
     68  O         -7.9060    7.9380   23.2710 O.2   150  ARG150     -0.2867
     69  CB        -5.1800    7.0490   21.6860 C.3   150  ARG150      0.0307
     70  CG        -4.6770    5.7710   21.0380 C.3   150  ARG150      0.0489
     71  CD        -3.2410    5.4550   21.3810 C.3   150  ARG150      0.2205
     72  NE        -2.7430    4.6020   20.3200 N.pl3 150  ARG150     -0.0865
     73  CZ        -1.4740    4.4980   19.9620 C.cat 150  ARG150      0.5346
     74  NH1       -0.5340    5.1770   20.6120 N.pl3 150  ARG150      0.1354
     75  NH2       -1.1540    3.7030   18.9530 N.pl3 150  ARG150      0.1354
     76  N          4.4020   12.1760   21.5160 N.3   171  TRP171     -0.1241
     77  CA         4.8190   10.7830   21.6470 C.3   171  TRP171      0.1605
     78  C          6.0990   10.6160   22.4450 C.2   171  TRP171      0.2264
     79  O          6.5890    9.4870   22.5780 O.2   171  TRP171     -0.2867
     80  CB         5.0270   10.1010   20.2900 C.3   171  TRP171      0.0550
     81  CG         3.8650    9.9830   19.3510 C.ar  171  TRP171      0.0003
     82  CD1        3.8410   10.3660   18.0470 C.ar  171  TRP171      0.0946
     83  CD2        2.5800    9.3660   19.6080 C.ar  171  TRP171      0.0152
     84  NE1        2.6340   10.0470   17.4780 N.ar  171  TRP171     -0.2442
     85  CE2        1.8460    9.4250   18.4100 C.ar  171  TRP171      0.0810
     86  CE3        1.9860    8.7920   20.7350 C.ar  171  TRP171      0.0012
     87  CZ2        0.5450    8.9280   18.3020 C.ar  171  TRP171      0.0191
     88  CZ3        0.6950    8.2750   20.6220 C.ar  171  TRP171      0.0001
     89  CH2       -0.0070    8.3530   19.4120 C.ar  171  TRP171      0.0015
     90  N          0.7830    7.1060   24.7710 N.3   196  ASN196     -0.1240
     91  CA         1.7440    5.9920   24.6540 C.3   196  ASN196      0.1653
     92  C          2.5390    5.8590   25.9460 C.2   196  ASN196      0.2266
     93  O          2.4390    6.7090   26.8260 O.2   196  ASN196     -0.2867
     94  CB         2.6250    6.1560   23.3970 C.3   196  ASN196      0.1155
     95  CG         3.7090    7.1740   23.5490 C.2   196  ASN196      0.2627
     96  OD1        3.6720    7.9970   24.4550 O.2   196  ASN196     -0.2716
     97  ND2        4.7010    7.1250   22.6520 N.am  196  ASN196     -0.0877
     98  N          1.0390    0.6830   24.8190 N.3   221  ASP221     -0.1239
     99  CA         2.1330    0.0250   24.0360 C.3   221  ASP221      0.1674
    100  C          2.6610   -1.2220   24.7310 C.2   221  ASP221      0.2266
    101  O          3.1870   -2.1250   24.0710 O.2   221  ASP221     -0.2867
    102  CB         3.3630    0.9190   23.7460 C.3   221  ASP221      0.1410
    103  CG         3.1010    1.9690   22.6560 C.2   221  ASP221      0.3668
    104  OD1        2.0840    1.8520   21.9500 O.co2 221  ASP221     -0.2456
    105  OD2        3.9050    2.9200   22.5390 O.co2 221  ASP221     -0.2456
    106  N         -0.6390   -3.5780   21.7070 N.3   240  GLN240     -0.1245
    107  CA        -1.1720   -3.4920   20.3340 C.3   240  GLN240      0.1566
    108  C         -0.2720   -4.2390   19.3650 C.2   240  GLN240      0.2260
    109  O         -0.4070   -4.0920   18.1390 O.2   240  GLN240     -0.2867
    110  CB        -1.3490   -2.0340   19.8810 C.3   240  GLN240      0.0367
    111  CG        -0.0490   -1.2370   19.8760 C.3   240  GLN240      0.0905
    112  CD        -0.1050    0.0420   19.0540 C.2   240  GLN240      0.2608
    113  OE1       -0.7390    0.0830   18.0130 O.2   240  GLN240     -0.2717
    114  NE2        0.5820    1.0840   19.5120 N.am  240  GLN240     -0.0878
@<TRIPOS>BOND
     1    49    50    1
     2     1     2    1
     3    50    51    1
     4    50    53    1
     5    51    52    2
     6     6     7    1
     7     6     5    1
     8    53    54    1
     9     2     5    1
    10     2     3    1
    11     8     7    1
    12     8     9    1
    13     4     3    2
    14    54    56   ar
    15    54    55   ar
    16    57    58    1
    17    37    35   ar
    18    37    39   ar
    19    43    42    2
    20    35    34   ar
    21    63    62    2
    22    42    41    1
    23    39    38   ar
    24    62    61    1
    25    62    64   am
    26    58    61    1
    27    58    59    1
    28    34    33    1
    29    34    36   ar
    30    32    31    2
    31    33    30    1
    32    38    36   ar
    33    41    40    1
    34    41    44    1
    35    47    46   ar
    36    30    31    1
    37    30    29    1
    38    59    60    2
    39    27    28   ar
    40    27    25   ar
    41    84    82   ar
    42    84    85   ar
    43    28    26   ar
    44    44    45    1
    45   113   112    2
    46    82    81   ar
    47    25    23   ar
    48   109   108    2
    49    87    85   ar
    50    87    89   ar
    51    46    45    1
    52    46    48   ar
    53    85    83   ar
    54    29    20   am
    55    21    20    2
    56    75    73    1
    57   112   114   am
    58   112   111    1
    59    20    19    1
    60    26    24   ar
    61    81    83   ar
    62    81    80    1
    63   108   107    1
    64    89    88   ar
    65    23    24   ar
    66    23    22    1
    67    83    86   ar
    68   111   110    1
    69   110   107    1
    70    73    72    2
    71    73    74    1
    72    65    66    1
    73    13    12    2
    74    80    77    1
    75    72    71    1
    76    22    19    1
    77   107   106    1
    78    14    15    1
    79    14    11    1
    80    17    15   am
    81    10    11    1
    82    19    18    1
    83    88    86   ar
    84    15    16    2
    85    70    71    1
    86    70    69    1
    87    12    11    1
    88    66    69    1
    89    66    67    1
    90    76    77    1
    91    77    78    1
    92   104   103   ar
    93    67    68    2
    94    78    79    2
    95   105   103   ar
    96    97    95   am
    97   103   102    1
    98    94    95    1
    99    94    91    1
   100    95    96    2
   101   102    99    1
   102    99   100    1
   103    99    98    1
   104   101   100    2
   105    91    90    1
   106    91    92    1
   107    92    93    2
