@<TRIPOS>MOLECULE
tmp/4ylgA00.pdb
 110 104 0 0 0
SMALL
GASTEIGER

@<TRIPOS>ATOM
      1  N         50.6380   12.4530   29.4230 N.3    20  ASP20      -0.1225
      2  CA        49.3220   12.7420   28.8560 C.3    20  ASP20       0.1805
      3  C         49.1250   14.2590   28.7600 C.2    20  ASP20       0.2598
      4  O         49.5770   15.0090   29.6270 O.2    20  ASP20      -0.2718
      5  CB        48.2040   12.1020   29.6900 C.3    20  ASP20       0.1424
      6  CG        47.9950   12.8040   31.0310 C.2    20  ASP20       0.3668
      7  OD1       48.8290   12.6140   31.9450 O.co2  20  ASP20      -0.2456
      8  OD2       46.9980   13.5420   31.1780 O.co2  20  ASP20      -0.2456
      9  N         48.4950   14.6900   27.6670 N.am   21  ALA21      -0.1966
     10  CA        48.0890   16.0690   27.4290 C.3    21  ALA21       0.1728
     11  C         49.2720   16.9770   27.1290 C.2    21  ALA21       0.2616
     12  O         49.1540   18.2000   27.2000 O.2    21  ALA21      -0.2715
     13  CB        47.2750   16.6040   28.6280 C.3    21  ALA21       0.0334
     14  N         50.4090   16.3860   26.7520 N.am   22  ALA22      -0.1963
     15  CA        51.5430   17.2060   26.3330 C.3    22  ALA22       0.1728
     16  C         51.3040   17.8490   24.9500 C.2    22  ALA22       0.2617
     17  O         51.8610   18.9050   24.6620 O.2    22  ALA22      -0.2715
     18  CB        52.8120   16.3830   26.3230 C.3    22  ALA22       0.0334
     19  N         50.4910   17.2240   24.0960 N.am   23  GLY23      -0.1940
     20  CA        50.2510   17.7540   22.7590 C.3    23  GLY23       0.2014
     21  C         50.6640   16.8470   21.6140 C.2    23  GLY23       0.2639
     22  O         50.7850   17.2850   20.4550 O.2    23  GLY23      -0.2714
     23  N         50.8440   15.5660   21.9230 N.am   24  LYS24      -0.1963
     24  CA        51.4250   14.6050   20.9680 C.3    24  LYS24       0.1728
     25  C         50.4830   14.3090   19.8070 C.2    24  LYS24       0.2617
     26  O         50.8900   14.3370   18.6380 O.2    24  LYS24      -0.2715
     27  CB        51.8000   13.3210   21.7080 C.3    24  LYS24       0.0311
     28  CG        52.7860   13.5380   22.8450 C.3    24  LYS24       0.0038
     29  CD        53.2280   12.2180   23.4330 C.3    24  LYS24       0.0206
     30  CE        52.0800   11.4900   24.1130 C.3    24  LYS24       0.1093
     31  NZ        51.3810   12.3020   25.1520 N.3    24  LYS24      -0.1314
     32  N         49.2160   14.0560   20.1210 N.am   25  THR25      -0.1937
     33  CA        48.2100   13.8650   19.0820 C.3    25  THR25       0.2028
     34  C         48.0750   15.0990   18.1930 C.2    25  THR25       0.2642
     35  O         47.9740   14.9840   16.9800 O.2    25  THR25      -0.2714
     36  CB        46.8450   13.5350   19.6840 C.3    25  THR25       0.1808
     37  OG1       46.9840   12.4010   20.5330 O.3    25  THR25      -0.2208
     38  CG2       45.8230   13.2030   18.6010 C.3    25  THR25       0.0379
     39  N         48.0360   16.2720   18.8100 N.am   26  SER26      -0.1949
     40  CA        47.9480   17.5250   18.0780 C.3    26  SER26       0.1924
     41  C         49.1220   17.6980   17.1370 C.2    26  SER26       0.2314
     42  O         48.9580   18.1750   16.0250 O.2    26  SER26      -0.2863
     43  CB        47.8790   18.7100   19.0380 C.3    26  SER26       0.2116
     44  OG        46.7590   18.5890   19.8890 O.3    26  SER26      -0.2180
     45  N         53.2870    6.7930   18.7120 N.3    59  VAL59      -0.1245
     46  CA        53.0070    7.6640   19.8390 C.3    59  VAL59       0.1561
     47  C         52.2870    6.9370   20.9690 C.2    59  VAL59       0.2260
     48  O         51.3300    6.2000   20.7160 O.2    59  VAL59      -0.2867
     49  CB        52.1750    8.8910   19.3830 C.3    59  VAL59       0.0252
     50  CG1       51.6140    9.6360   20.5990 C.3    59  VAL59       0.0019
     51  CG2       53.0050    9.7960   18.5040 C.3    59  VAL59       0.0019
     52  N         51.3990    7.6470   25.6010 N.3    61  ASP61      -0.1239
     53  CA        51.5990    8.3970   26.8520 C.3    61  ASP61       0.1674
     54  C         52.5530    7.6540   27.7860 C.2    61  ASP61       0.2266
     55  O         52.5170    6.4260   27.8520 O.2    61  ASP61      -0.2867
     56  CB        50.2660    8.6330   27.5790 C.3    61  ASP61       0.1410
     57  CG        49.2920    9.4560   26.7690 C.2    61  ASP61       0.3668
     58  OD1       49.7350   10.3390   26.0110 O.co2  61  ASP61      -0.2456
     59  OD2       48.0710    9.2290   26.9000 O.co2  61  ASP61      -0.2456
     60  N         56.4120   22.3940   24.2030 N.3   114  ASN114     -0.1225
     61  CA        55.1780   22.7000   23.4950 C.3   114  ASN114      0.1785
     62  C         54.3000   23.6030   24.3440 C.2   114  ASN114      0.2597
     63  O         54.5660   23.7860   25.5160 O.2   114  ASN114     -0.2718
     64  CB        54.4530   21.3930   23.1260 C.3   114  ASN114      0.1169
     65  CG        53.3170   21.5890   22.1460 C.2   114  ASN114      0.2627
     66  OD1       53.4490   22.2560   21.1070 O.2   114  ASN114     -0.2716
     67  ND2       52.1890   20.9800   22.4610 N.am  114  ASN114     -0.0877
     68  N         53.2550   24.1510   23.7290 N.am  115  LYS115     -0.1980
     69  CA        52.3760   25.1360   24.3380 C.3   115  LYS115      0.1596
     70  C         53.1510   26.3940   24.6890 C.2   115  LYS115      0.2287
     71  O         52.9380   26.9850   25.7420 O.2   115  LYS115     -0.2864
     72  CB        51.6700   24.5840   25.5860 C.3   115  LYS115      0.0298
     73  CG        51.1600   23.1530   25.4300 C.3   115  LYS115      0.0038
     74  CD        49.9920   22.8650   26.3290 C.3   115  LYS115      0.0206
     75  CE        49.6830   21.3540   26.3260 C.3   115  LYS115      0.1093
     76  NZ        48.6040   21.0070   27.2850 N.3   115  LYS115     -0.1314
     77  N         52.7740   29.1360   23.4150 N.3   117  ASP117     -0.1225
     78  CA        51.8660   30.2820   23.2880 C.3   117  ASP117      0.1805
     79  C         51.2790   30.7250   24.6300 C.2   117  ASP117      0.2597
     80  O         50.6730   31.7870   24.7400 O.2   117  ASP117     -0.2718
     81  CB        50.7240   29.9380   22.3370 C.3   117  ASP117      0.1424
     82  CG        50.0430   28.6190   22.7010 C.2   117  ASP117      0.3668
     83  OD1       50.7420   27.5900   22.7680 O.co2 117  ASP117     -0.2456
     84  OD2       48.8150   28.6120   22.9250 O.co2 117  ASP117     -0.2456
     85  N         51.4380   29.8940   25.6490 N.am  118  LEU118     -0.1979
     86  CA        50.7310   30.1070   26.9040 C.3   118  LEU118      0.1596
     87  C         51.4790   31.0960   27.7800 C.2   118  LEU118      0.2287
     88  O         52.6950   31.0420   27.8910 O.2   118  LEU118     -0.2864
     89  CB        50.5150   28.7810   27.6250 C.3   118  LEU118      0.0297
     90  CG        49.3380   27.9810   27.0380 C.3   118  LEU118      0.0022
     91  CD1       49.2180   26.6440   27.7170 C.3   118  LEU118      0.0001
     92  CD2       48.0110   28.7660   27.1540 C.3   118  LEU118      0.0001
     93  N         54.2960   25.4550   19.2010 N.3   147  CYS147     -0.1221
     94  CA        52.8760   25.5670   19.4840 C.3   147  CYS147      0.1808
     95  C         52.1630   24.6140   18.5360 C.2   147  CYS147      0.2601
     96  O         52.0700   24.8650   17.3310 O.2   147  CYS147     -0.2717
     97  CB        52.3640   26.9910   19.3080 C.3   147  CYS147      0.0970
     98  SG        50.5810   27.0990   19.5650 S.3   147  CYS147     -0.0800
     99  N         51.6700   23.5120   19.0790 N.am  148  ALA148     -0.1965
    100  CA        51.1340   22.4400   18.2470 C.3   148  ALA148      0.1728
    101  C         49.8020   22.8110   17.6130 C.2   148  ALA148      0.2616
    102  O         49.3030   22.1000   16.7510 O.2   148  ALA148     -0.2715
    103  CB        50.9890   21.1640   19.0700 C.3   148  ALA148      0.0334
    104  N         49.2170   23.9230   18.0390 N.am  149  THR149     -0.1951
    105  CA        47.8930   24.2720   17.5570 C.3   149  THR149      0.1897
    106  C         47.9720   25.1620   16.3190 C.2   149  THR149      0.2313
    107  O         47.0680   25.1420   15.4880 O.2   149  THR149     -0.2863
    108  CB        47.0610   24.9380   18.6660 C.3   149  THR149      0.1794
    109  OG1       47.8650   25.9020   19.3540 O.3   149  THR149     -0.2208
    110  CG2       46.6260   23.8820   19.6730 C.3   149  THR149      0.0378
@<TRIPOS>BOND
     1   107   106    2
     2    42    41    2
     3   106   105    1
     4   102   101    2
     5    35    34    2
     6    41    40    1
     7    96    95    2
     8   105   104    1
     9   105   108    1
    10   101   104   am
    11   101   100    1
    12    40    39    1
    13    40    43    1
    14    34    39   am
    15    34    33    1
    16   100   103    1
    17   100    99    1
    18    51    49    1
    19    95    99   am
    20    95    94    1
    21    38    36    1
    22    26    25    2
    23   108   109    1
    24   108   110    1
    25    45    46    1
    26    43    44    1
    27    33    36    1
    28    33    32    1
    29    93    94    1
    30    97    94    1
    31    97    98    1
    32    49    46    1
    33    49    50    1
    34    36    37    1
    35    25    32   am
    36    25    24    1
    37    46    47    1
    38    22    21    2
    39    48    47    2
    40    24    27    1
    41    24    23    1
    42    66    65    2
    43    21    23   am
    44    21    20    1
    45    27    28    1
    46    65    67   am
    47    65    64    1
    48    81    82    1
    49    81    78    1
    50    82    83   ar
    51    82    84   ar
    52    20    19    1
    53    28    29    1
    54    64    61    1
    55    78    77    1
    56    78    79    1
    57    29    30    1
    58    61    60    1
    59    61    62    1
    60    68    69    1
    61    68    62   am
    62    19    16   am
    63    30    31    1
    64    69    70    1
    65    69    72    1
    66    62    63    2
    67    79    80    2
    68    79    85   am
    69    17    16    2
    70    70    71    2
    71    16    15    1
    72    73    72    1
    73    73    74    1
    74    52    53    1
    75    85    86    1
    76    58    57   ar
    77    18    15    1
    78    75    74    1
    79    75    76    1
    80    15    14    1
    81    14    11   am
    82    57    59   ar
    83    57    56    1
    84    53    56    1
    85    53    54    1
    86    86    89    1
    87    86    87    1
    88    90    92    1
    89    90    89    1
    90    90    91    1
    91    11    12    2
    92    11    10    1
    93    10     9    1
    94    10    13    1
    95     9     3   am
    96    87    88    2
    97    54    55    2
    98     3     2    1
    99     3     4    2
   100     2     1    1
   101     2     5    1
   102     5     6    1
   103     6     8   ar
   104     6     7   ar
