@<TRIPOS>MOLECULE
tmp/4yljA01.pdb
 79 74 0 0 0
SMALL
GASTEIGER

@<TRIPOS>ATOM
      1  N          7.6610   17.7670   19.7810 N.3    35  SER35      -0.1217
      2  CA         7.2440   19.1520   19.7350 C.3    35  SER35       0.1889
      3  C          7.3100   19.8190   21.0970 C.2    35  SER35       0.2288
      4  O          7.5960   21.0100   21.1890 O.2    35  SER35      -0.2866
      5  CB         5.8340   19.2500   19.1740 C.3    35  SER35       0.2089
      6  OG         4.9840   18.3810   19.8670 O.3    35  SER35      -0.2183
      7  N          9.2650   27.9670   27.2010 N.3    59  LYS59      -0.1245
      8  CA         8.3690   28.9150   26.5830 C.3    59  LYS59       0.1561
      9  C          6.9820   28.7680   27.1580 C.2    59  LYS59       0.2260
     10  O          6.4670   27.6470   27.2970 O.2    59  LYS59      -0.2867
     11  CB         8.3260   28.7530   25.0500 C.3    59  LYS59       0.0271
     12  CG         7.8280   30.0230   24.3820 C.3    59  LYS59       0.0035
     13  CD         7.5210   29.8370   22.9340 C.3    59  LYS59       0.0206
     14  CE         6.7080   30.9970   22.3940 C.3    59  LYS59       0.1093
     15  NZ         6.0130   30.6130   21.1380 N.3    59  LYS59      -0.1314
     16  N          3.7400   28.9840   26.5010 N.3    61  ALA61      -0.1231
     17  CA         2.7040   28.1060   25.9480 C.3    61  ALA61       0.1694
     18  C          2.9760   26.6210   26.1710 C.2    61  ALA61       0.2592
     19  O          2.0430   25.8350   26.3690 O.2    61  ALA61      -0.2718
     20  CB         2.5230   28.3730   24.4580 C.3    61  ALA61       0.0304
     21  N          4.2460   26.2380   26.1270 N.am   62  PHE62      -0.1976
     22  CA         4.6230   24.8490   26.3440 C.3    62  PHE62       0.1639
     23  C          4.5910   24.5190   27.8380 C.2    62  PHE62       0.2290
     24  O          4.0200   23.5030   28.2580 O.2    62  PHE62      -0.2864
     25  CB         5.9880   24.5790   25.7020 C.3    62  PHE62       0.0560
     26  CG         5.9480   24.5800   24.1680 C.ar   62  PHE62      -0.0200
     27  CD1        5.5640   23.4300   23.4460 C.ar   62  PHE62      -0.0042
     28  CD2        6.2830   25.7100   23.4440 C.ar   62  PHE62      -0.0042
     29  CE1        5.5320   23.4220   22.0570 C.ar   62  PHE62      -0.0003
     30  CE2        6.2480   25.7080   22.0270 C.ar   62  PHE62      -0.0003
     31  CZ         5.8900   24.5600   21.3510 C.ar   62  PHE62      -0.0000
     32  N          1.0020   24.1360   28.8580 N.3    65  GLN65      -0.1245
     33  CA         0.3740   22.8930   28.4490 C.3    65  GLN65       0.1566
     34  C          0.9140   21.7070   29.2500 C.2    65  GLN65       0.2260
     35  O          0.1580   20.8130   29.6330 O.2    65  GLN65      -0.2867
     36  CB         0.5390   22.6290   26.9570 C.3    65  GLN65       0.0367
     37  CG        -0.3010   21.4630   26.4690 C.3    65  GLN65       0.0905
     38  CD        -1.8190   21.7320   26.5830 C.2    65  GLN65       0.2608
     39  OE1       -2.3030   22.8000   26.2090 O.2    65  GLN65      -0.2717
     40  NE2       -2.5720   20.7270   27.0640 N.am   65  GLN65      -0.0878
     41  N          0.7520   14.9880   26.8230 N.3   175  GLY175     -0.1210
     42  CA         1.0020   16.4050   26.5480 C.3   175  GLY175      0.1956
     43  C         -0.0340   17.1810   25.7590 C.2   175  GLY175      0.2612
     44  O         -0.0030   18.4110   25.7710 O.2   175  GLY175     -0.2717
     45  N         -0.9550   16.5280   25.0870 N.am  176  SER176     -0.1952
     46  CA        -2.0620   17.2580   24.4790 C.3   176  SER176      0.1924
     47  C         -3.3960   16.7200   24.9200 C.2   176  SER176      0.2314
     48  O         -4.4210   17.0220   24.3360 O.2   176  SER176     -0.2863
     49  CB        -1.9350   17.3130   22.9060 C.3   176  SER176      0.2116
     50  OG        -1.3110   16.1510   22.4020 O.3   176  SER176     -0.2180
     51  N         -8.5650   22.6700   22.1790 N.3   185  TYR185     -0.1241
     52  CA        -7.9210   22.6710   20.8580 C.3   185  TYR185      0.1605
     53  C         -8.8060   22.1500   19.7230 C.2   185  TYR185      0.2264
     54  O         -9.8090   21.4620   19.9230 O.2   185  TYR185     -0.2867
     55  CB        -6.6150   21.8710   20.8750 C.3   185  TYR185      0.0534
     56  CG        -5.4860   22.5590   21.5630 C.ar  185  TYR185     -0.0201
     57  CD1       -4.8920   23.7120   21.0150 C.ar  185  TYR185     -0.0009
     58  CD2       -4.9880   22.0630   22.7770 C.ar  185  TYR185     -0.0009
     59  CE1       -3.8480   24.3440   21.6520 C.ar  185  TYR185      0.0417
     60  CE2       -3.9490   22.6960   23.4180 C.ar  185  TYR185      0.0417
     61  CZ        -3.3870   23.8320   22.8670 C.ar  185  TYR185      0.1957
     62  OH        -2.3470   24.4510   23.5180 O.3   185  TYR185     -0.2866
     63  N         -5.8700   18.5810   16.3350 N.3   187  ILE187     -0.1231
     64  CA        -5.1980   17.6440   17.2110 C.3   187  ILE187      0.1692
     65  C         -5.0810   16.2610   16.6070 C.2   187  ILE187      0.2591
     66  O         -5.6780   15.9740   15.5850 O.2   187  ILE187     -0.2718
     67  CB        -5.9590   17.5020   18.5140 C.3   187  ILE187      0.0266
     68  CG1       -7.4550   17.3840   18.2400 C.3   187  ILE187      0.0019
     69  CG2       -5.6750   18.6880   19.4110 C.3   187  ILE187      0.0020
     70  CD1       -8.2060   16.7050   19.3540 C.3   187  ILE187      0.0001
     71  N         -4.3420   15.3960   17.3050 N.am  188  GLN188     -0.1979
     72  CA        -4.0070   14.0430   16.8580 C.3   188  GLN188      0.1601
     73  C         -2.9690   14.1060   15.7530 C.2   188  GLN188      0.2287
     74  O         -2.8810   15.0970   15.0580 O.2   188  GLN188     -0.2864
     75  CB        -5.2430   13.2530   16.3820 C.3   188  GLN188      0.0394
     76  CG        -6.4400   13.3010   17.3430 C.3   188  GLN188      0.0908
     77  CD        -7.5160   12.2570   17.0460 C.2   188  GLN188      0.2608
     78  OE1       -8.4610   12.5180   16.3220 O.2   188  GLN188     -0.2717
     79  NE2       -7.3540   11.0610   17.6000 N.am  188  GLN188     -0.0878
@<TRIPOS>BOND
     1    74    73    2
     2    66    65    2
     3    73    72    1
     4    78    77    2
     5    63    64    1
     6    75    72    1
     7    75    76    1
     8    65    64    1
     9    65    71   am
    10    72    71    1
    11    77    76    1
    12    77    79   am
    13    64    67    1
    14    68    67    1
    15    68    70    1
    16    67    69    1
    17     5     2    1
    18     5     6    1
    19    53    54    2
    20    53    52    1
    21     2     1    1
    22     2     3    1
    23    52    55    1
    24    52    51    1
    25    55    56    1
    26    57    56   ar
    27    57    59   ar
    28     3     4    2
    29    15    14    1
    30    31    30   ar
    31    31    29   ar
    32    56    58   ar
    33    59    61   ar
    34    30    28   ar
    35    29    27   ar
    36    14    13    1
    37    50    49    1
    38    58    60   ar
    39    61    60   ar
    40    61    62    1
    41    49    46    1
    42    13    12    1
    43    28    26   ar
    44    27    26   ar
    45    26    25    1
    46    48    47    2
    47    12    11    1
    48    20    17    1
    49    46    47    1
    50    46    45    1
    51    11     8    1
    52    45    43   am
    53    25    22    1
    54    43    44    2
    55    43    42    1
    56    17    18    1
    57    17    16    1
    58    21    18   am
    59    21    22    1
    60    18    19    2
    61    39    38    2
    62    22    23    1
    63    37    38    1
    64    37    36    1
    65    42    41    1
    66    38    40   am
    67     8     9    1
    68     8     7    1
    69    36    33    1
    70     9    10    2
    71    23    24    2
    72    33    32    1
    73    33    34    1
    74    34    35    2
