@<TRIPOS>MOLECULE
tmp/4yllA00.pdb
 154 143 0 0 0
SMALL
GASTEIGER

@<TRIPOS>ATOM
      1  N         17.4480   42.4810   40.6220 N.3    32  ILE32      -0.1231
      2  CA        16.2670   42.8960   39.8440 C.3    32  ILE32       0.1692
      3  C         16.6150   43.4320   38.4670 C.2    32  ILE32       0.2593
      4  O         15.7090   43.8330   37.7230 O.2    32  ILE32      -0.2718
      5  CB        15.4160   43.9570   40.6250 C.3    32  ILE32       0.0266
      6  CG1       16.1830   45.2590   40.8950 C.3    32  ILE32       0.0019
      7  CG2       14.8700   43.3590   41.9110 C.3    32  ILE32       0.0020
      8  CD1       15.3350   46.3830   41.5240 C.3    32  ILE32       0.0001
      9  N         17.8940   43.4890   38.0940 N.am   33  GLY33      -0.1942
     10  CA        18.2510   43.9280   36.7470 C.3    33  GLY33       0.2014
     11  C         19.7320   43.7900   36.5450 C.2    33  GLY33       0.2639
     12  O         20.5090   43.6140   37.5000 O.2    33  GLY33      -0.2714
     13  N         20.1250   43.8300   35.2900 N.am   34  LYS34      -0.1963
     14  CA        21.5240   43.9100   34.9650 C.3    34  LYS34       0.1728
     15  C         21.7170   44.4040   33.5500 C.2    34  LYS34       0.2616
     16  O         20.7790   44.4970   32.7670 O.2    34  LYS34      -0.2715
     17  CB        22.1980   42.5470   35.1490 C.3    34  LYS34       0.0311
     18  CG        21.6810   41.4670   34.2010 C.3    34  LYS34       0.0038
     19  CD        22.1780   40.0590   34.5510 C.3    34  LYS34       0.0206
     20  CE        21.4760   38.9880   33.7250 C.3    34  LYS34       0.1093
     21  NZ        19.9980   38.8650   33.9330 N.3    34  LYS34      -0.1314
     22  N         22.9490   44.7720   33.2380 N.am   35  GLY35      -0.1955
     23  CA        23.2750   45.3030   31.9280 C.3    35  GLY35       0.1869
     24  C         24.7690   45.3810   31.8150 C.2    35  GLY35       0.2309
     25  O         25.5150   44.8370   32.6430 O.2    35  GLY35      -0.2863
     26  N         26.7870   47.7030   32.3310 N.3    37  PHE37      -0.1241
     27  CA        27.4010   48.4220   33.4450 C.3    37  PHE37       0.1605
     28  C         27.6670   47.5730   34.7150 C.2    37  PHE37       0.2264
     29  O         28.4620   47.9660   35.5270 O.2    37  PHE37      -0.2867
     30  CB        26.5090   49.6070   33.8520 C.3    37  PHE37       0.0534
     31  CG        25.1220   49.1810   34.2480 C.ar   37  PHE37      -0.0203
     32  CD1       24.8490   48.6900   35.5030 C.ar   37  PHE37      -0.0042
     33  CD2       24.0790   49.2490   33.3310 C.ar   37  PHE37      -0.0042
     34  CE1       23.5660   48.2590   35.8040 C.ar   37  PHE37      -0.0003
     35  CE2       22.8070   48.8440   33.6440 C.ar   37  PHE37      -0.0003
     36  CZ        22.5540   48.3140   34.8800 C.ar   37  PHE37      -0.0000
     37  N         21.6690   45.6020   39.1010 N.3    40  VAL40      -0.1245
     38  CA        20.7870   46.4170   39.9490 C.3    40  VAL40       0.1561
     39  C         20.1480   45.4740   40.9630 C.2    40  VAL40       0.2260
     40  O         19.5300   44.4790   40.5680 O.2    40  VAL40      -0.2867
     41  CB        19.6850   47.1270   39.1170 C.3    40  VAL40       0.0252
     42  CG1       18.8120   47.9920   40.0100 C.3    40  VAL40       0.0019
     43  CG2       20.2710   47.9560   37.9750 C.3    40  VAL40       0.0019
     44  N         16.8950   50.8470   45.0520 N.3    53  ALA53      -0.1245
     45  CA        17.6030   50.1180   43.9940 C.3    53  ALA53       0.1562
     46  C         19.0770   50.5440   44.0270 C.2    53  ALA53       0.2260
     47  O         19.3580   51.7340   44.0010 O.2    53  ALA53      -0.2867
     48  CB        17.0030   50.4810   42.6650 C.3    53  ALA53       0.0290
     49  N         22.5280   50.2740   42.0050 N.3    55  LYS55      -0.1245
     50  CA        23.2150   49.9720   40.7430 C.3    55  LYS55       0.1561
     51  C         24.6830   49.7280   41.1160 C.2    55  LYS55       0.2260
     52  O         25.3920   50.6470   41.5320 O.2    55  LYS55      -0.2867
     53  CB        23.0450   51.1400   39.7790 C.3    55  LYS55       0.0271
     54  CG        23.6470   50.9290   38.3740 C.3    55  LYS55       0.0035
     55  CD        23.4250   52.1620   37.5080 C.3    55  LYS55       0.0206
     56  CE        23.8190   51.9580   36.0450 C.3    55  LYS55       0.1093
     57  NZ        23.4630   53.1630   35.2370 N.3    55  LYS55      -0.1314
     58  N         15.5250   60.1400   36.8880 N.3    89  VAL89      -0.1245
     59  CA        15.7470   59.2610   38.0480 C.3    89  VAL89       0.1561
     60  C         16.4830   60.0020   39.1780 C.2    89  VAL89       0.2260
     61  O         17.4030   60.7870   38.9220 O.2    89  VAL89      -0.2867
     62  CB        16.4800   57.9490   37.6440 C.3    89  VAL89       0.0252
     63  CG1       17.8990   58.1860   37.2170 C.3    89  VAL89       0.0019
     64  CG2       16.3990   56.9210   38.7710 C.3    89  VAL89       0.0019
     65  N         19.4910   54.4750   44.2880 N.3   105  PHE105     -0.1227
     66  CA        18.3990   55.1660   43.6370 C.3   105  PHE105      0.1736
     67  C         17.0840   54.8410   44.3290 C.2   105  PHE105      0.2595
     68  O         16.9180   53.8290   45.0220 O.2   105  PHE105     -0.2718
     69  CB        18.2420   54.6860   42.1720 C.3   105  PHE105      0.0547
     70  CG        19.3530   55.0820   41.2350 C.ar  105  PHE105     -0.0202
     71  CD1       19.3980   56.3780   40.7090 C.ar  105  PHE105     -0.0042
     72  CD2       20.2980   54.1670   40.8090 C.ar  105  PHE105     -0.0042
     73  CE1       20.3600   56.6980   39.7660 C.ar  105  PHE105     -0.0003
     74  CE2       21.2810   54.4960   39.8930 C.ar  105  PHE105     -0.0003
     75  CZ        21.2940   55.7530   39.3310 C.ar  105  PHE105     -0.0000
     76  N         16.0860   55.6540   44.0310 N.am  106  GLU106     -0.1979
     77  CA        14.7250   55.2630   44.2140 C.3   106  GLU106      0.1602
     78  C         14.4240   53.9080   43.4980 C.2   106  GLU106      0.2287
     79  O         15.0070   53.6380   42.4570 O.2   106  GLU106     -0.2864
     80  CB        13.8060   56.3720   43.6710 C.3   106  GLU106      0.0415
     81  CG        13.8810   56.5950   42.1480 C.3   106  GLU106      0.1163
     82  CD        13.0030   57.7190   41.6600 C.2   106  GLU106      0.3649
     83  OE1       11.8630   57.8880   42.1590 O.co2 106  GLU106     -0.2457
     84  OE2       13.4830   58.4670   40.7710 O.co2 106  GLU106     -0.2457
     85  N         12.2960   51.5920   41.0690 N.3   108  LEU108     -0.1231
     86  CA        11.4360   51.7650   39.8930 C.3   108  LEU108      0.1693
     87  C         11.0210   50.3900   39.3960 C.2   108  LEU108      0.2592
     88  O         11.4720   49.3580   39.8900 O.2   108  LEU108     -0.2718
     89  CB        12.1810   52.5230   38.8130 C.3   108  LEU108      0.0284
     90  CG        12.5930   53.9680   39.1780 C.3   108  LEU108      0.0019
     91  CD1       13.5270   54.5390   38.1740 C.3   108  LEU108      0.0001
     92  CD2       11.3440   54.8670   39.2990 C.3   108  LEU108      0.0001
     93  N         10.1360   50.4090   38.3960 N.am  109  SER109     -0.1952
     94  CA         9.6570   49.1840   37.7380 C.3   109  SER109      0.1924
     95  C         10.5110   48.9150   36.4760 C.2   109  SER109      0.2314
     96  O         11.7070   49.2990   36.4300 O.2   109  SER109     -0.2863
     97  CB         8.1620   49.3900   37.4570 C.3   109  SER109      0.2116
     98  OG         7.5540   48.2310   36.8510 O.3   109  SER109     -0.2180
     99  N         11.0370   48.6490   31.9970 N.3   111  ASN111     -0.1240
    100  CA        11.2390   49.7060   30.9960 C.3   111  ASN111      0.1653
    101  C         10.1430   49.6860   29.9140 C.2   111  ASN111      0.2266
    102  O          9.2550   48.8040   29.9110 O.2   111  ASN111     -0.2867
    103  CB        12.6730   49.6330   30.4070 C.3   111  ASN111      0.1155
    104  CG        12.9120   48.4320   29.5050 C.2   111  ASN111      0.2627
    105  OD1       12.0910   48.1320   28.6520 O.2   111  ASN111     -0.2716
    106  ND2       14.0770   47.7720   29.6420 N.am  111  ASN111     -0.0877
    107  N          9.8650   46.4980   27.8470 N.3   114  ASP114     -0.1239
    108  CA         9.0910   45.5100   28.6110 C.3   114  ASP114      0.1674
    109  C          7.5800   45.7920   28.5370 C.2   114  ASP114      0.2266
    110  O          6.7910   44.8660   28.4010 O.2   114  ASP114     -0.2867
    111  CB         9.5290   45.5000   30.0880 C.3   114  ASP114      0.1410
    112  CG        10.9540   45.1590   30.2750 C.2   114  ASP114      0.3668
    113  OD1       11.4020   44.1120   29.7870 O.co2 114  ASP114     -0.2456
    114  OD2       11.6770   45.9490   30.9220 O.co2 114  ASP114     -0.2456
    115  N         14.3050   51.2820   26.2620 N.3   158  GLU158     -0.1231
    116  CA        14.9290   50.5550   27.3800 C.3   158  GLU158      0.1699
    117  C         15.5020   51.4960   28.4580 C.2   158  GLU158      0.2592
    118  O         15.7470   51.0640   29.5880 O.2   158  GLU158     -0.2718
    119  CB        16.0300   49.6050   26.8560 C.3   158  GLU158      0.0402
    120  CG        15.5380   48.4920   25.8980 C.3   158  GLU158      0.1161
    121  CD        15.2390   48.9310   24.4220 C.2   158  GLU158      0.3649
    122  OE1       15.3910   50.0790   23.9900 O.co2 158  GLU158     -0.2457
    123  OE2       14.9200   47.9940   23.5930 O.co2 158  GLU158     -0.2457
    124  N         15.7070   52.7700   28.1250 N.am  159  ASN159     -0.1974
    125  CA        16.2120   53.7220   29.1120 C.3   159  ASN159      0.1688
    126  C         15.1680   54.6350   29.7000 C.2   159  ASN159      0.2292
    127  O         15.4810   55.6850   30.2890 O.2   159  ASN159     -0.2864
    128  CB        17.4020   54.5200   28.5520 C.3   159  ASN159      0.1181
    129  CG        18.6690   53.7180   28.5140 C.2   159  ASN159      0.2629
    130  OD1       18.8190   52.7480   29.2700 O.2   159  ASN159     -0.2716
    131  ND2       19.5590   54.0340   27.5840 N.am  159  ASN159     -0.0877
    132  N         11.9930   54.1810   32.3310 N.3   161  LEU161     -0.1245
    133  CA        11.3790   53.2330   33.2520 C.3   161  LEU161      0.1561
    134  C         10.0500   53.7050   33.7680 C.2   161  LEU161      0.2260
    135  O          9.8800   54.9070   34.0090 O.2   161  LEU161     -0.2867
    136  CB        12.2970   52.9590   34.4440 C.3   161  LEU161      0.0270
    137  CG        13.6830   52.4470   34.1930 C.3   161  LEU161      0.0019
    138  CD1       14.3320   51.8940   35.4420 C.3   161  LEU161      0.0001
    139  CD2       13.8160   51.4280   33.1420 C.3   161  LEU161      0.0001
    140  N         16.5560   56.9570   32.7470 N.3   173  VAL173     -0.1231
    141  CA        17.7730   56.4360   33.3810 C.3   173  VAL173      0.1692
    142  C         18.9460   56.4050   32.3930 C.2   173  VAL173      0.2592
    143  O         18.7820   56.7160   31.2010 O.2   173  VAL173     -0.2718
    144  CB        17.5340   55.0250   33.9900 C.3   173  VAL173      0.0266
    145  CG1       16.4400   55.0830   35.0360 C.3   173  VAL173      0.0020
    146  CG2       17.2080   53.9950   32.8990 C.3   173  VAL173      0.0020
    147  N         20.1180   56.0810   32.9320 N.am  174  ASP174     -0.1974
    148  CA        21.3590   55.8080   32.1910 C.3   174  ASP174      0.1709
    149  C         21.9350   57.0420   31.4890 C.2   174  ASP174      0.2293
    150  O         21.7960   57.2180   30.2660 O.2   174  ASP174     -0.2864
    151  CB        21.2320   54.6590   31.2220 C.3   174  ASP174      0.1436
    152  CG        22.5980   54.1240   30.7810 C.2   174  ASP174      0.3671
    153  OD1       23.6510   54.7930   31.0570 O.co2 174  ASP174     -0.2456
    154  OD2       22.6670   52.9960   30.1750 O.co2 174  ASP174     -0.2456
@<TRIPOS>BOND
     1   123   121   ar
     2   122   121   ar
     3   121   120    1
     4   120   119    1
     5   115   116    1
     6   119   116    1
     7   116   117    1
     8   131   129   am
     9   107   108    1
    10   124   117   am
    11   124   125    1
    12   110   109    2
    13   117   118    2
    14   129   128    1
    15   129   130    2
    16   109   108    1
    17   128   125    1
    18   108   111    1
    19   105   104    2
    20   125   126    1
    21   104   106   am
    22   104   103    1
    23   126   127    2
    24   113   112   ar
    25   102   101    2
    26   101   100    1
    27   111   112    1
    28   154   152   ar
    29   150   149    2
    30   112   114   ar
    31   103   100    1
    32   152   153   ar
    33   152   151    1
    34   100    99    1
    35   143   142    2
    36   151   148    1
    37   149   148    1
    38    24    23    1
    39    24    25    2
    40    23    22    1
    41   148   147    1
    42    26    27    1
    43   132   133    1
    44   142   147   am
    45   142   141    1
    46   140   141    1
    47    16    15    2
    48   146   144    1
    49   139   137    1
    50    22    15   am
    51   133   134    1
    52   133   136    1
    53    33    35   ar
    54    33    31   ar
    55   141   144    1
    56    27    30    1
    57    27    28    1
    58    15    14    1
    59    35    36   ar
    60    20    21    1
    61    20    19    1
    62   134   135    2
    63    30    31    1
    64   144   145    1
    65   137   136    1
    66   137   138    1
    67    18    19    1
    68    18    17    1
    69    31    32   ar
    70    28    29    2
    71    36    34   ar
    72    14    17    1
    73    14    13    1
    74    57    56    1
    75    13    11   am
    76    32    34   ar
    77    56    55    1
    78    96    95    2
    79    95    94    1
    80    11    10    1
    81    11    12    2
    82    10     9    1
    83    98    97    1
    84    58    59    1
    85    63    62    1
    86    97    94    1
    87    55    54    1
    88    62    59    1
    89    62    64    1
    90     4     3    2
    91    94    93    1
    92    43    41    1
    93    59    60    1
    94     9     3   am
    95    91    90    1
    96    54    53    1
    97    93    87   am
    98     3     2    1
    99    89    90    1
   100    89    86    1
   101    61    60    2
   102    37    38    1
   103    41    38    1
   104    41    42    1
   105    90    92    1
   106    75    73   ar
   107    75    74   ar
   108    87    88    2
   109    87    86    1
   110    73    71   ar
   111    53    50    1
   112     2     1    1
   113     2     5    1
   114    74    72   ar
   115    86    85    1
   116    38    39    1
   117    40    39    2
   118     5     6    1
   119     5     7    1
   120    71    70   ar
   121    50    51    1
   122    50    49    1
   123    84    82   ar
   124    72    70   ar
   125     6     8    1
   126    51    52    2
   127    70    69    1
   128    82    81    1
   129    82    83   ar
   130    81    80    1
   131    69    66    1
   132    79    78    2
   133    48    45    1
   134    78    77    1
   135    66    65    1
   136    66    67    1
   137    80    77    1
   138    45    46    1
   139    45    44    1
   140    47    46    2
   141    76    77    1
   142    76    67   am
   143    67    68    2
