@<TRIPOS>MOLECULE
tmp/4ylqB00.pdb
 193 190 0 0 0
SMALL
GASTEIGER

@<TRIPOS>ATOM
      1  N         13.4260   -6.9860  -60.4030 N.3    25  LEU25      -0.1231
      2  CA        12.0120   -7.4150  -60.3270 C.3    25  LEU25       0.1693
      3  C         11.5700   -7.8250  -58.9140 C.2    25  LEU25       0.2592
      4  O         10.5470   -7.3420  -58.3940 O.2    25  LEU25      -0.2718
      5  CB        11.7560   -8.5670  -61.3150 C.3    25  LEU25       0.0284
      6  CG        10.3540   -9.1620  -61.3870 C.3    25  LEU25       0.0019
      7  CD1        9.3880   -8.1690  -61.9920 C.3    25  LEU25       0.0001
      8  CD2       10.3320  -10.4960  -62.1350 C.3    25  LEU25       0.0001
      9  N         12.3020   -8.7430  -58.2930 N.am   26  CYS26      -0.1970
     10  CA        11.8370   -9.4180  -57.0690 C.3    26  CYS26       0.1712
     11  C         13.0040  -10.1760  -56.5070 C.2    26  CYS26       0.2296
     12  O         14.0900  -10.2560  -57.1180 O.2    26  CYS26      -0.2864
     13  CB        10.7240  -10.4440  -57.4300 C.3    26  CYS26       0.0983
     14  SG         9.0320   -9.7990  -57.3490 S.3    26  CYS26      -0.0798
     15  N          3.1730  -13.3450  -57.6940 N.3    41  HIS41      -0.1241
     16  CA         2.7810  -11.9920  -58.1270 C.3    41  HIS41       0.1621
     17  C          3.9100  -11.2370  -58.8000 C.2    41  HIS41       0.2264
     18  O          3.6490  -10.2690  -59.5040 O.2    41  HIS41      -0.2867
     19  CB         2.1810  -11.1750  -56.9850 C.3    41  HIS41       0.0745
     20  CG         3.1860  -10.4760  -56.1410 C.ar   41  HIS41       0.0817
     21  ND1        3.4960  -10.9040  -54.8680 N.ar   41  HIS41      -0.2268
     22  CD2        3.9110   -9.3640  -56.3410 C.ar   41  HIS41       0.1154
     23  CE1        4.3680  -10.0840  -54.3200 C.ar   41  HIS41       0.1986
     24  NE2        4.6670   -9.1410  -55.2020 N.ar   41  HIS41      -0.2212
     25  N          3.0970  -11.1290  -62.5510 N.3    44  ASP44      -0.1239
     26  CA         1.7530  -10.7000  -63.0040 C.3    44  ASP44       0.1674
     27  C          1.8250   -9.7720  -64.1980 C.2    44  ASP44       0.2266
     28  O          0.8460   -9.6770  -64.9530 O.2    44  ASP44      -0.2867
     29  CB         0.9970   -9.9290  -61.9100 C.3    44  ASP44       0.1410
     30  CG         0.3820  -10.7840  -60.8610 C.2    44  ASP44       0.3668
     31  OD1        0.5630  -12.0100  -60.8490 O.co2  44  ASP44      -0.2456
     32  OD2       -0.2740  -10.1590  -59.9840 O.co2  44  ASP44      -0.2456
     33  N         -3.8460  -19.8130  -58.1830 N.3    82  TYR82      -0.1241
     34  CA        -3.3870  -18.4340  -58.1380 C.3    82  TYR82       0.1605
     35  C         -4.1010  -17.5660  -59.1790 C.2    82  TYR82       0.2264
     36  O         -4.1840  -17.9560  -60.3570 O.2    82  TYR82      -0.2867
     37  CB        -1.8650  -18.3670  -58.3660 C.3    82  TYR82       0.0534
     38  CG        -1.3650  -16.9320  -58.3920 C.ar   82  TYR82      -0.0201
     39  CD1       -1.3070  -16.1810  -57.2320 C.ar   82  TYR82      -0.0009
     40  CD2       -1.0610  -16.2760  -59.6050 C.ar   82  TYR82      -0.0009
     41  CE1       -0.9410  -14.8680  -57.2470 C.ar   82  TYR82       0.0417
     42  CE2       -0.6850  -14.9360  -59.6230 C.ar   82  TYR82       0.0417
     43  CZ        -0.6460  -14.2350  -58.4490 C.ar   82  TYR82       0.1957
     44  OH        -0.3070  -12.9080  -58.4300 O.3    82  TYR82      -0.2866
     45  N         -3.2190  -10.5060  -59.3470 N.3    85  GLY85      -0.1210
     46  CA        -3.8940   -9.3820  -58.7430 C.3    85  GLY85       0.1956
     47  C         -4.6190   -9.6980  -57.4160 C.2    85  GLY85       0.2613
     48  O         -5.1640   -8.7810  -56.7620 O.2    85  GLY85      -0.2717
     49  N         -4.5980  -10.9770  -57.0160 N.am   86  THR86      -0.1938
     50  CA        -5.2510  -11.4270  -55.7690 C.3    86  THR86       0.2028
     51  C         -4.1780  -12.1180  -54.9130 C.2    86  THR86       0.2642
     52  O         -3.3380  -12.8020  -55.4430 O.2    86  THR86      -0.2714
     53  CB        -6.4200  -12.3680  -56.0870 C.3    86  THR86       0.1808
     54  OG1       -7.4580  -11.5720  -56.6960 O.3    86  THR86      -0.2208
     55  CG2       -6.9520  -13.1380  -54.8120 C.3    86  THR86       0.0379
     56  N         -4.2900  -12.0090  -53.5870 N.am   87  THR87      -0.1950
     57  CA        -3.1910  -12.3470  -52.7010 C.3    87  THR87       0.1897
     58  C         -2.9760  -13.8480  -52.4670 C.2    87  THR87       0.2313
     59  O         -1.8550  -14.2570  -52.1090 O.2    87  THR87      -0.2863
     60  CB        -3.3910  -11.7460  -51.3260 C.3    87  THR87       0.1794
     61  OG1       -4.6880  -12.0850  -50.8750 O.3    87  THR87      -0.2208
     62  CG2       -3.2580  -10.2360  -51.3520 C.3    87  THR87       0.0378
     63  N          0.3510  -17.1460  -53.1730 N.3    90  ASP90      -0.1239
     64  CA         1.3860  -16.3170  -53.7850 C.3    90  ASP90       0.1674
     65  C          2.7780  -16.9920  -53.7430 C.2    90  ASP90       0.2266
     66  O          3.6500  -16.6350  -52.9110 O.2    90  ASP90      -0.2867
     67  CB         1.4020  -14.9240  -53.1330 C.3    90  ASP90       0.1410
     68  CG         2.2240  -13.9240  -53.9080 C.2    90  ASP90       0.3668
     69  OD1        2.5840  -14.2080  -55.0560 O.co2  90  ASP90      -0.2456
     70  OD2        2.4990  -12.8490  -53.3440 O.co2  90  ASP90      -0.2456
     71  N          9.7780   -3.9210  -41.2320 N.3   181  ASP181     -0.1225
     72  CA         8.9280   -4.7510  -42.0950 C.3   181  ASP181      0.1805
     73  C          9.6930   -5.0750  -43.3710 C.2   181  ASP181      0.2598
     74  O         10.7080   -4.4320  -43.6700 O.2   181  ASP181     -0.2718
     75  CB         7.6560   -3.9470  -42.4480 C.3   181  ASP181      0.1424
     76  CG         6.4960   -4.7700  -43.0590 C.2   181  ASP181      0.3668
     77  OD1        6.5270   -6.0080  -43.2320 O.co2 181  ASP181     -0.2456
     78  OD2        5.4450   -4.1030  -43.2630 O.co2 181  ASP181     -0.2456
     79  N          9.2460   -6.0740  -44.0830 N.am  182  SER182     -0.1938
     80  CA         9.6220   -6.1820  -45.4970 C.3   182  SER182      0.2055
     81  C          8.8200   -5.1610  -46.3060 C.2   182  SER182      0.2643
     82  O          7.9650   -4.4630  -45.7820 O.2   182  SER182     -0.2714
     83  CB         9.4710   -7.5820  -46.0180 C.3   182  SER182      0.2130
     84  OG         8.1960   -8.0900  -45.7920 O.3   182  SER182     -0.2179
     85  N          9.1550   -5.0210  -47.5860 N.am  183  CYS183     -0.1953
     86  CA         8.4900   -4.0130  -48.3840 C.3   183  CYS183      0.1843
     87  C          8.4850   -4.3710  -49.8900 C.2   183  CYS183      0.2625
     88  O          8.8810   -5.4460  -50.2920 O.2   183  CYS183     -0.2714
     89  CB         9.1460   -2.6660  -48.1220 C.3   183  CYS183      0.0997
     90  SG         8.1600   -1.1840  -48.5710 S.3   183  CYS183     -0.0797
     91  N          7.9010   -3.5030  -50.7030 N.am  184  LYS184     -0.1963
     92  CA         7.8180   -3.7310  -52.1380 C.3   184  LYS184      0.1728
     93  C          9.1730   -3.9220  -52.7740 C.2   184  LYS184      0.2616
     94  O         10.0860   -3.1580  -52.5400 O.2   184  LYS184     -0.2715
     95  CB         7.0330   -2.5870  -52.7770 C.3   184  LYS184      0.0311
     96  CG         5.5730   -2.5720  -52.2790 C.3   184  LYS184      0.0038
     97  CD         4.7240   -1.6270  -53.0510 C.3   184  LYS184      0.0206
     98  CE         3.3460   -1.6000  -52.3890 C.3   184  LYS184      0.1093
     99  NZ         3.4310   -1.0930  -50.9670 N.3   184  LYS184     -0.1314
    100  N          9.3010   -4.9620  -53.5700 N.am  185  GLY185     -0.1955
    101  CA        10.5840   -5.2900  -54.1580 C.3   185  GLY185      0.1869
    102  C         11.2410   -6.4690  -53.4430 C.2   185  GLY185      0.2309
    103  O         12.1610   -7.0760  -53.9660 O.2   185  GLY185     -0.2863
    104  N          9.4320   -9.0220  -52.4640 N.3   187  SER187     -0.1217
    105  CA         8.6060  -10.1880  -52.7530 C.3   187  SER187      0.1889
    106  C          9.4260  -11.3190  -53.2930 C.2   187  SER187      0.2288
    107  O         10.3380  -11.1240  -54.1390 O.2   187  SER187     -0.2866
    108  CB         7.5230   -9.9000  -53.7520 C.3   187  SER187      0.2089
    109  OG         6.5930   -9.0380  -53.1210 O.3   187  SER187     -0.2183
    110  N          8.0570  -13.5360  -48.8480 N.3   205  VAL205     -0.1231
    111  CA         7.5330  -12.1850  -48.7470 C.3   205  VAL205      0.1692
    112  C          6.4380  -12.0350  -49.8300 C.2   205  VAL205      0.2593
    113  O          6.6840  -12.2630  -51.0260 O.2   205  VAL205     -0.2718
    114  CB         8.6180  -11.1800  -49.0610 C.3   205  VAL205      0.0266
    115  CG1        8.0770   -9.7370  -49.1110 C.3   205  VAL205      0.0020
    116  CG2        9.7670  -11.2340  -48.0410 C.3   205  VAL205      0.0020
    117  N          5.2420  -11.5850  -49.4230 N.am  206  SER206     -0.1938
    118  CA         4.0580  -11.6010  -50.2630 C.3   206  SER206      0.2055
    119  C          3.3610  -10.2460  -50.3620 C.2   206  SER206      0.2643
    120  O          3.3600   -9.6360  -51.4490 O.2   206  SER206     -0.2714
    121  CB         3.1210  -12.6960  -49.8670 C.3   206  SER206      0.2130
    122  OG         1.9570  -12.6700  -50.6970 O.3   206  SER206     -0.2179
    123  N          2.8040   -9.7210  -49.2500 N.am  207  TRP207     -0.1959
    124  CA         2.0440   -8.4980  -49.3180 C.3   207  TRP207      0.1771
    125  C          1.9420   -7.8480  -47.9400 C.2   207  TRP207      0.2620
    126  O          2.3770   -8.4070  -46.9200 O.2   207  TRP207     -0.2715
    127  CB         0.6430   -8.7430  -49.9390 C.3   207  TRP207      0.0590
    128  CG        -0.2910   -9.5730  -49.1470 C.ar  207  TRP207      0.0006
    129  CD1       -0.3670  -10.9180  -49.1750 C.ar  207  TRP207      0.0946
    130  CD2       -1.3700   -9.1350  -48.2880 C.ar  207  TRP207      0.0152
    131  NE1       -1.3750  -11.3660  -48.3630 N.ar  207  TRP207     -0.2442
    132  CE2       -2.0050  -10.2920  -47.7990 C.ar  207  TRP207      0.0810
    133  CE3       -1.8210   -7.8970  -47.8570 C.ar  207  TRP207      0.0012
    134  CZ2       -3.1010  -10.2480  -46.9130 C.ar  207  TRP207      0.0191
    135  CZ3       -2.9180   -7.8370  -47.0130 C.ar  207  TRP207      0.0001
    136  CH2       -3.5150   -9.0070  -46.5180 C.ar  207  TRP207      0.0015
    137  N          1.4020   -6.6500  -47.9390 N.am  208  GLY208     -0.1940
    138  CA         1.1070   -5.9510  -46.7050 C.3   208  GLY208      0.2014
    139  C          0.1720   -4.7910  -47.0100 C.2   208  GLY208      0.2639
    140  O         -0.3290   -4.6470  -48.1270 O.2   208  GLY208     -0.2714
    141  N         -0.0330   -3.9350  -46.0160 N.am  209  GLN209     -0.1963
    142  CA        -0.6910   -2.6530  -46.2280 C.3   209  GLN209      0.1733
    143  C          0.3920   -1.5940  -46.0240 C.2   209  GLN209      0.2617
    144  O          0.8430   -1.3510  -44.9100 O.2   209  GLN209     -0.2715
    145  CB        -1.8640   -2.5260  -45.2680 C.3   209  GLN209      0.0408
    146  CG        -2.7620   -1.3440  -45.5400 C.3   209  GLN209      0.0908
    147  CD        -4.0780   -1.5260  -44.8260 C.2   209  GLN209      0.2608
    148  OE1       -4.4080   -0.7470  -43.9430 O.2   209  GLN209     -0.2717
    149  NE2       -4.8170   -2.5950  -45.1730 N.am  209  GLN209     -0.0878
    150  N          0.8690   -1.0400  -47.1370 N.am  210  GLY210     -0.1940
    151  CA         2.0470   -0.2010  -47.1090 C.3   210  GLY210      0.2014
    152  C          3.2340   -1.0460  -46.6550 C.2   210  GLY210      0.2639
    153  O          3.2900   -2.2330  -46.9140 O.2   210  GLY210     -0.2714
    154  N          4.1500   -0.4240  -45.9370 N.am  211  CYS211     -0.1967
    155  CA         5.2780   -1.1120  -45.2710 C.3   211  CYS211      0.1712
    156  C          5.5730   -0.4500  -43.9720 C.2   211  CYS211      0.2296
    157  O          5.6160    0.7780  -43.8920 O.2   211  CYS211     -0.2864
    158  CB         6.5630   -1.0720  -46.1220 C.3   211  CYS211      0.0983
    159  SG         6.2830   -1.5630  -47.8210 S.3   211  CYS211     -0.0798
    160  N          0.9300   -5.8650  -40.0190 N.3   217  PHE217     -0.1227
    161  CA         2.0830   -6.7540  -40.1020 C.3   217  PHE217      0.1736
    162  C          2.3640   -7.0870  -41.5530 C.2   217  PHE217      0.2596
    163  O          1.4890   -6.8970  -42.3970 O.2   217  PHE217     -0.2718
    164  CB         1.7350   -8.0540  -39.3560 C.3   217  PHE217      0.0547
    165  CG         1.4550   -7.8370  -37.9100 C.ar  217  PHE217     -0.0202
    166  CD1        2.4980   -7.7760  -37.0060 C.ar  217  PHE217     -0.0042
    167  CD2        0.1460   -7.7100  -37.4600 C.ar  217  PHE217     -0.0042
    168  CE1        2.2610   -7.5530  -35.6470 C.ar  217  PHE217     -0.0003
    169  CE2       -0.0990   -7.4810  -36.1070 C.ar  217  PHE217     -0.0003
    170  CZ         0.9630   -7.4140  -35.1980 C.ar  217  PHE217     -0.0000
    171  N          3.5570   -7.6000  -41.8440 N.am  218  GLY218     -0.1942
    172  CA         3.7800   -8.1590  -43.1440 C.3   218  GLY218      0.2014
    173  C          3.0930   -9.4940  -43.2780 C.2   218  GLY218      0.2639
    174  O          2.9400  -10.2200  -42.3010 O.2   218  GLY218     -0.2714
    175  N          2.7030   -9.8310  -44.5020 N.am  219  VAL219     -0.1963
    176  CA         2.0320  -11.0790  -44.7820 C.3   219  VAL219      0.1727
    177  C          2.9020  -11.8920  -45.7610 C.2   219  VAL219      0.2616
    178  O          3.4350  -11.3850  -46.7890 O.2   219  VAL219     -0.2715
    179  CB         0.6400  -10.8460  -45.3930 C.3   219  VAL219      0.0290
    180  CG1       -0.1070  -12.1820  -45.4140 C.3   219  VAL219      0.0023
    181  CG2       -0.1030   -9.8640  -44.4850 C.3   219  VAL219      0.0023
    182  N          3.1040  -13.1410  -45.3530 N.am  220  TYR220     -0.1974
    183  CA         4.0260  -14.0630  -45.9890 C.3   220  TYR220      0.1639
    184  C          3.2520  -15.2730  -46.4380 C.2   220  TYR220      0.2290
    185  O          2.3260  -15.7300  -45.7610 O.2   220  TYR220     -0.2864
    186  CB         5.0860  -14.4810  -44.9690 C.3   220  TYR220      0.0560
    187  CG         5.9170  -13.3040  -44.5330 C.ar  220  TYR220     -0.0198
    188  CD1        5.4840  -12.4490  -43.5010 C.ar  220  TYR220     -0.0009
    189  CD2        7.1190  -13.0270  -45.1590 C.ar  220  TYR220     -0.0009
    190  CE1        6.2200  -11.3060  -43.1900 C.ar  220  TYR220      0.0417
    191  CE2        7.8310  -11.9270  -44.8520 C.ar  220  TYR220      0.0417
    192  CZ         7.3950  -11.0510  -43.8720 C.ar  220  TYR220      0.1957
    193  OH         8.1520   -9.9410  -43.5890 O.3   220  TYR220     -0.2866
@<TRIPOS>BOND
     1    28    27    2
     2    27    26    1
     3    26    25    1
     4    26    29    1
     5     8     6    1
     6     7     6    1
     7    29    30    1
     8     6     5    1
     9     5     2    1
    10    30    31   ar
    11    30    32   ar
    12     1     2    1
    13    36    35    2
    14     2     3    1
    15    42    40   ar
    16    42    43   ar
    17    40    38   ar
    18    18    17    2
    19    45    46    1
    20    35    34    1
    21     3     4    2
    22     3     9   am
    23    17    16    1
    24    46    47    1
    25    43    44    1
    26    43    41   ar
    27    38    37    1
    28    38    39   ar
    29    37    34    1
    30     9    10    1
    31    33    34    1
    32    16    15    1
    33    16    19    1
    34    13    14    1
    35    13    10    1
    36    47    49   am
    37    47    48    2
    38    41    39   ar
    39    12    11    2
    40    10    11    1
    41    49    50    1
    42    19    20    1
    43    54    53    1
    44    22    20   ar
    45    22    24   ar
    46    20    21   ar
    47    53    50    1
    48    53    55    1
    49    50    51    1
    50    52    51    2
    51    24    23   ar
    52    69    68   ar
    53    51    56   am
    54    21    23   ar
    55   101   100    1
    56   101   102    1
    57   107   106    2
    58   103   102    2
    59    68    70   ar
    60    68    67    1
    61    64    65    1
    62    64    63    1
    63    64    67    1
    64   108   109    1
    65   108   105    1
    66    65    66    2
    67    56    57    1
    68   100    93   am
    69   106   105    1
    70    97    98    1
    71    97    96    1
    72    95    96    1
    73    95    92    1
    74    93    94    2
    75    93    92    1
    76   105   104    1
    77    57    58    1
    78    57    60    1
    79    58    59    2
    80    98    99    1
    81    92    91    1
    82   120   119    2
    83    62    60    1
    84    60    61    1
    85   113   112    2
    86    91    87   am
    87   122   121    1
    88   119   118    1
    89   119   123   am
    90    88    87    2
    91   118   121    1
    92   118   117    1
    93   127   124    1
    94   127   128    1
    95    87    86    1
    96   112   117   am
    97   112   111    1
    98   124   123    1
    99   124   125    1
   100   129   128   ar
   101   129   131   ar
   102   128   130   ar
   103   115   114    1
   104   114   111    1
   105   114   116    1
   106   110   111    1
   107    90    89    1
   108    90   159    1
   109    86    89    1
   110    86    85    1
   111   131   132   ar
   112   130   133   ar
   113   130   132   ar
   114   140   139    2
   115   125   137   am
   116   125   126    2
   117   137   138    1
   118   133   135   ar
   119   159   158    1
   120   132   134   ar
   121    85    81   am
   122   150   151    1
   123   150   143   am
   124   151   152    1
   125   135   136   ar
   126   139   138    1
   127   139   141   am
   128   153   152    2
   129   134   136   ar
   130   178   177    2
   131   152   154   am
   132   184   183    1
   133   184   185    2
   134    81    82    2
   135    81    80    1
   136   142   143    1
   137   142   141    1
   138   142   145    1
   139   158   155    1
   140   143   144    2
   141    83    84    1
   142    83    80    1
   143   183   182    1
   144   183   186    1
   145   154   155    1
   146   177   182   am
   147   177   176    1
   148   146   145    1
   149   146   147    1
   150    80    79    1
   151   180   179    1
   152   179   176    1
   153   179   181    1
   154   155   156    1
   155   149   147   am
   156   189   191   ar
   157   189   187   ar
   158   186   187    1
   159   191   192   ar
   160   147   148    2
   161   176   175    1
   162   187   188   ar
   163   175   173   am
   164    79    73   am
   165   156   157    2
   166   192   193    1
   167   192   190   ar
   168    74    73    2
   169   188   190   ar
   170    73    72    1
   171   173   172    1
   172   173   174    2
   173    78    76   ar
   174    77    76   ar
   175   172   171    1
   176    76    75    1
   177    75    72    1
   178   163   162    2
   179    72    71    1
   180   171   162   am
   181   162   161    1
   182   161   160    1
   183   161   164    1
   184   164   165    1
   185   165   167   ar
   186   165   166   ar
   187   167   169   ar
   188   166   168   ar
   189   169   170   ar
   190   168   170   ar
