@<TRIPOS>MOLECULE
tmp/4ylsA00.pdb
 158 148 0 0 0
SMALL
GASTEIGER

@<TRIPOS>ATOM
      1  N        -18.4460  -26.8040  -16.1010 N.3    68  LYS68      -0.1245
      2  CA       -18.4160  -26.5590  -14.6630 C.3    68  LYS68       0.1561
      3  C        -17.1960  -27.1830  -13.9940 C.2    68  LYS68       0.2260
      4  O        -16.6080  -26.5930  -13.0880 O.2    68  LYS68      -0.2867
      5  CB       -19.6960  -27.0860  -14.0080 C.3    68  LYS68       0.0271
      6  CG       -20.9710  -26.4740  -14.5690 C.3    68  LYS68       0.0035
      7  CD       -22.1950  -27.0180  -13.8530 C.3    68  LYS68       0.0206
      8  CE       -22.8410  -28.1580  -14.6200 C.3    68  LYS68       0.1093
      9  NZ       -22.0080  -28.6360  -15.7580 N.3    68  LYS68      -0.1314
     10  N        -17.0310  -19.3120   -5.6650 N.3    90  PRO90      -0.2116
     11  CA       -17.3620  -20.1470   -4.5060 C.3    90  PRO90       0.1372
     12  C        -16.4700  -21.3810   -4.4450 C.2    90  PRO90       0.2244
     13  O        -16.1030  -21.9100   -5.4940 O.2    90  PRO90      -0.2868
     14  CB       -18.8240  -20.5380   -4.7540 C.3    90  PRO90       0.0268
     15  CG       -19.3370  -19.5260   -5.7290 C.3    90  PRO90       0.0207
     16  CD       -18.1690  -19.1680   -6.5860 C.3    90  PRO90       0.0892
     17  N        -23.8890  -27.0190   -1.9160 N.3   119  ILE119     -0.1245
     18  CA       -24.7920  -27.3690   -3.0060 C.3   119  ILE119      0.1561
     19  C        -24.1310  -28.3630   -3.9610 C.2   119  ILE119      0.2260
     20  O        -22.9290  -28.2900   -4.2200 O.2   119  ILE119     -0.2867
     21  CB       -25.2530  -26.1080   -3.7840 C.3   119  ILE119      0.0252
     22  CG1      -26.3350  -26.4640   -4.8080 C.3   119  ILE119      0.0019
     23  CG2      -24.0720  -25.4110   -4.4480 C.3   119  ILE119      0.0019
     24  CD1      -26.8810  -25.2710   -5.5590 C.3   119  ILE119      0.0001
     25  N        -24.2740  -30.1290   -7.8310 N.3   121  LYS121     -0.1231
     26  CA       -24.7760  -29.9150   -9.1840 C.3   121  LYS121      0.1678
     27  C        -24.4610  -31.1010  -10.0910 C.2   121  LYS121      0.2434
     28  O        -23.9800  -32.1330   -9.6240 O.2   121  LYS121     -0.2733
     29  CB       -24.1880  -28.6290   -9.7680 C.3   121  LYS121      0.0284
     30  CG       -24.3110  -27.4250   -8.8490 C.3   121  LYS121      0.0035
     31  CD       -23.5990  -26.2120   -9.4210 C.3   121  LYS121      0.0206
     32  CE       -23.7130  -25.0170   -8.4880 C.3   121  LYS121      0.1093
     33  NZ       -23.0000  -23.8270   -9.0280 N.3   121  LYS121     -0.1314
     34  N        -24.7330  -30.9520  -11.3960 N.am  122  PRO122     -0.2729
     35  CA       -24.4890  -32.0170  -12.3760 C.3   122  PRO122      0.1401
     36  C        -23.0010  -32.2730  -12.5990 C.2   122  PRO122      0.2269
     37  O        -22.4010  -31.6170  -13.4500 O.2   122  PRO122     -0.2865
     38  CB       -25.1380  -31.5220  -13.6530 C.3   122  PRO122      0.0296
     39  CG       -26.3310  -30.6610  -13.2100 C.3   122  PRO122      0.0237
     40  CD       -25.7750  -29.9490  -11.9660 C.3   122  PRO122      0.0939
     41  N        -30.0290  -31.2080   -8.6370 N.3   123  ILE123     -0.1245
     42  CA       -29.3960  -30.2050   -7.7880 C.3   123  ILE123      0.1561
     43  C        -30.0020  -30.2410   -6.3900 C.2   123  ILE123      0.2260
     44  O        -31.2170  -30.1230   -6.2270 O.2   123  ILE123     -0.2867
     45  CB       -29.5310  -28.7800   -8.3760 C.3   123  ILE123      0.0252
     46  CG1      -28.5840  -28.5850   -9.5660 C.3   123  ILE123      0.0019
     47  CG2      -29.2210  -27.7350   -7.3160 C.3   123  ILE123      0.0019
     48  CD1      -29.0330  -29.2500  -10.8550 C.3   123  ILE123      0.0001
     49  N        -20.1350  -27.5700   -3.9760 N.3   136  GLN136     -0.1231
     50  CA       -19.7650  -26.1620   -3.9570 C.3   136  GLN136      0.1698
     51  C        -20.3390  -25.4500   -2.7380 C.2   136  GLN136      0.2592
     52  O        -21.4450  -25.7570   -2.2910 O.2   136  GLN136     -0.2718
     53  CB       -20.2360  -25.4720   -5.2380 C.3   136  GLN136      0.0381
     54  CG       -19.7590  -24.0390   -5.3830 C.3   136  GLN136      0.0905
     55  CD       -20.2920  -23.3770   -6.6340 C.2   136  GLN136      0.2608
     56  OE1      -21.4960  -23.1580   -6.7700 O.2   136  GLN136     -0.2717
     57  NE2      -19.3970  -23.0590   -7.5610 N.am  136  GLN136     -0.0878
     58  N        -19.5760  -24.5020   -2.2020 N.am  137  GLU137     -0.1966
     59  CA       -20.0350  -23.6820   -1.0890 C.3   137  GLU137      0.1733
     60  C        -21.2580  -22.8630   -1.4920 C.2   137  GLU137      0.2616
     61  O        -21.2900  -22.2600   -2.5640 O.2   137  GLU137     -0.2715
     62  CB       -18.9160  -22.7600   -0.6030 C.3   137  GLU137      0.0429
     63  CG       -18.7330  -21.3460   -1.0620 C.3   137  GLU137      0.1163
     64  CD       -17.8020  -20.5170   -0.2020 C.2   137  GLU137      0.3649
     65  OE1      -17.0930  -21.1990    0.5840 O.co2 137  GLU137     -0.2457
     66  OE2      -17.7490  -19.3000   -0.2620 O.co2 137  GLU137     -0.2457
     67  N        -22.2630  -22.8510   -0.6230 N.am  138  TYR138     -0.1960
     68  CA       -23.5250  -22.1780   -0.9060 C.3   138  TYR138      0.1771
     69  C        -23.5380  -20.7620   -0.3440 C.2   138  TYR138      0.2619
     70  O        -23.4000  -20.5700    0.8650 O.2   138  TYR138     -0.2715
     71  CB       -24.6970  -22.9950   -0.3390 C.3   138  TYR138      0.0574
     72  CG       -26.0720  -22.4370   -0.6570 C.ar  138  TYR138     -0.0198
     73  CD1      -26.6500  -22.6300   -1.9050 C.ar  138  TYR138     -0.0009
     74  CD2      -26.8000  -21.7400    0.3010 C.ar  138  TYR138     -0.0009
     75  CE1      -27.9090  -22.1310   -2.1970 C.ar  138  TYR138      0.0417
     76  CE2      -28.0590  -21.2390    0.0180 C.ar  138  TYR138      0.0417
     77  CZ       -28.6080  -21.4380   -1.2320 C.ar  138  TYR138      0.1957
     78  OH       -29.8590  -20.9420   -1.5180 O.3   138  TYR138     -0.2866
     79  N        -23.6950  -19.7780   -1.2250 N.am  139  ILE139     -0.1977
     80  CA       -23.8190  -18.3910   -0.7940 C.3   139  ILE139      0.1596
     81  C        -25.1450  -18.2500   -0.0450 C.2   139  ILE139      0.2287
     82  O        -26.2190  -18.2960   -0.6460 O.2   139  ILE139     -0.2864
     83  CB       -23.7440  -17.3970   -1.9810 C.3   139  ILE139      0.0276
     84  CG1      -22.3160  -17.2830   -2.5300 C.3   139  ILE139      0.0022
     85  CG2      -24.1730  -16.0120   -1.5440 C.3   139  ILE139      0.0022
     86  CD1      -21.8270  -18.4680   -3.3130 C.3   139  ILE139      0.0001
     87  N        -34.8360  -14.0090   -3.7290 N.3   149  LYS149     -0.1245
     88  CA       -33.5290  -14.3070   -4.3010 C.3   149  LYS149      0.1561
     89  C        -33.6240  -14.3060   -5.8230 C.2   149  LYS149      0.2260
     90  O        -34.5330  -14.9080   -6.3930 O.2   149  LYS149     -0.2867
     91  CB       -33.0170  -15.6570   -3.7950 C.3   149  LYS149      0.0271
     92  CG       -31.7360  -16.1370   -4.4550 C.3   149  LYS149      0.0035
     93  CD       -31.3240  -17.4930   -3.9060 C.3   149  LYS149      0.0206
     94  CE       -30.0410  -17.9890   -4.5470 C.3   149  LYS149      0.1093
     95  NZ       -29.6150  -19.3000   -3.9840 N.3   149  LYS149     -0.1314
     96  N        -31.4090  -14.1860   -9.8580 N.3   151  ASP151     -0.1239
     97  CA       -30.2110  -14.5570  -10.6010 C.3   151  ASP151      0.1674
     98  C        -29.8920  -13.5270  -11.6750 C.2   151  ASP151      0.2266
     99  O        -30.7940  -12.9190  -12.2500 O.2   151  ASP151     -0.2867
    100  CB       -30.3810  -15.9350  -11.2380 C.3   151  ASP151      0.1410
    101  CG       -29.6020  -17.0100  -10.5120 C.2   151  ASP151      0.3668
    102  OD1      -30.1460  -17.5890   -9.5490 O.co2 151  ASP151     -0.2456
    103  OD2      -28.4480  -17.2770  -10.9080 O.co2 151  ASP151     -0.2456
    104  N        -28.2490  -12.9320  -15.3410 N.3   153  ARG153     -0.1245
    105  CA       -27.7280  -13.4190  -16.6090 C.3   153  ARG153      0.1563
    106  C        -27.2080  -12.2360  -17.4140 C.2   153  ARG153      0.2260
    107  O        -27.9820  -11.4700  -17.9890 O.2   153  ARG153     -0.2867
    108  CB       -28.8030  -14.1840  -17.3880 C.3   153  ARG153      0.0307
    109  CG       -28.5080  -14.3910  -18.8770 C.3   153  ARG153      0.0489
    110  CD       -27.2730  -15.2450  -19.1180 C.3   153  ARG153      0.2205
    111  NE       -27.4310  -16.6030  -18.6080 N.pl3 153  ARG153     -0.0865
    112  CZ       -27.9890  -17.5970  -19.2900 C.cat 153  ARG153      0.5346
    113  NH1      -28.4540  -17.3870  -20.5130 N.pl3 153  ARG153      0.1354
    114  NH2      -28.0880  -18.8030  -18.7450 N.pl3 153  ARG153      0.1354
    115  N        -33.7410  -13.1710  -12.9670 N.3   175  ARG175     -0.1245
    116  CA       -34.6800  -14.2440  -12.6690 C.3   175  ARG175      0.1563
    117  C        -34.9750  -14.3280  -11.1740 C.2   175  ARG175      0.2260
    118  O        -34.2700  -15.0090  -10.4290 O.2   175  ARG175     -0.2867
    119  CB       -34.1370  -15.5820  -13.1730 C.3   175  ARG175      0.0307
    120  CG       -34.4160  -15.8100  -14.6210 C.3   175  ARG175      0.0489
    121  CD       -33.6790  -17.0270  -15.1070 C.3   175  ARG175      0.2205
    122  NE       -32.2400  -16.8170  -15.0880 N.pl3 175  ARG175     -0.0865
    123  CZ       -31.3590  -17.6750  -15.5920 C.cat 175  ARG175      0.5346
    124  NH1      -31.7780  -18.8060  -16.1410 N.pl3 175  ARG175      0.1354
    125  NH2      -30.0650  -17.4060  -15.5420 N.pl3 175  ARG175      0.1354
    126  N        -23.7540  -16.5240  -15.6680 N.3   251  ASP251     -0.1239
    127  CA       -24.7040  -16.6020  -14.5650 C.3   251  ASP251      0.1674
    128  C        -24.0440  -16.1230  -13.2760 C.2   251  ASP251      0.2266
    129  O        -23.0220  -16.6620  -12.8510 O.2   251  ASP251     -0.2867
    130  CB       -25.2340  -18.0270  -14.4000 C.3   251  ASP251      0.1410
    131  CG       -26.0970  -18.4640  -15.5680 C.2   251  ASP251      0.3668
    132  OD1      -26.6600  -17.5850  -16.2520 O.co2 251  ASP251     -0.2456
    133  OD2      -26.2140  -19.6850  -15.8010 O.co2 251  ASP251     -0.2456
    134  N        -24.5420  -14.4950   -9.1430 N.3   253  LEU253     -0.1245
    135  CA       -25.3350  -14.2270   -7.9500 C.3   253  LEU253      0.1561
    136  C        -24.6850  -13.1490   -7.0860 C.2   253  LEU253      0.2260
    137  O        -23.4800  -13.1770   -6.8390 O.2   253  LEU253     -0.2867
    138  CB       -25.5290  -15.5070   -7.1360 C.3   253  LEU253      0.0270
    139  CG       -26.2530  -15.3400   -5.7960 C.3   253  LEU253      0.0019
    140  CD1      -27.6790  -14.8460   -6.0000 C.3   253  LEU253      0.0001
    141  CD2      -26.2360  -16.6350   -5.0020 C.3   253  LEU253      0.0001
    142  N        -21.2720  -18.1820  -10.9880 N.3   263  LEU263     -0.1231
    143  CA       -21.8520  -19.5110  -10.8390 C.3   263  LEU263      0.1693
    144  C        -21.4200  -20.4230  -11.9840 C.2   263  LEU263      0.2591
    145  O        -20.8500  -21.4890  -11.7530 O.2   263  LEU263     -0.2718
    146  CB       -23.3780  -19.4270  -10.7650 C.3   263  LEU263      0.0284
    147  CG       -23.9340  -18.6150   -9.5920 C.3   263  LEU263      0.0019
    148  CD1      -25.4460  -18.7540   -9.5020 C.3   263  LEU263      0.0001
    149  CD2      -23.2730  -19.0310   -8.2840 C.3   263  LEU263      0.0001
    150  N        -21.6910  -19.9970  -13.2150 N.am  264  GLN264     -0.1979
    151  CA       -21.2510  -20.7330  -14.3970 C.3   264  GLN264      0.1601
    152  C        -21.3090  -19.8650  -15.6490 C.2   264  GLN264      0.2287
    153  O        -21.9560  -18.8180  -15.6630 O.2   264  GLN264     -0.2864
    154  CB       -22.0970  -21.9920  -14.6010 C.3   264  GLN264      0.0394
    155  CG       -23.4990  -21.7270  -15.1250 C.3   264  GLN264      0.0908
    156  CD       -24.3200  -22.9960  -15.2480 C.2   264  GLN264      0.2608
    157  OE1      -23.9410  -24.0460  -14.7270 O.2   264  GLN264     -0.2717
    158  NE2      -25.4500  -22.9090  -15.9420 N.am  264  GLN264     -0.0878
@<TRIPOS>BOND
     1   113   112    1
     2   112   114    1
     3   112   111    2
     4   110   109    1
     5   110   111    1
     6   109   108    1
     7   107   106    2
     8   106   105    1
     9   108   105    1
    10   105   104    1
    11   132   131   ar
    12   124   123    1
    13     1     2    1
    14   158   156   am
    15   133   131   ar
    16     9     8    1
    17   126   127    1
    18   153   152    2
    19   152   151    1
    20   123   125    1
    21   123   122    2
    22   131   130    1
    23   156   155    1
    24   156   157    2
    25   155   154    1
    26   121   122    1
    27   121   120    1
    28     2     5    1
    29     2     3    1
    30   120   119    1
    31     8     7    1
    32   154   151    1
    33     6     5    1
    34     6     7    1
    35   127   130    1
    36   127   128    1
    37   151   150    1
    38     3     4    2
    39    38    39    1
    40    38    35    1
    41    37    36    2
    42   128   129    2
    43   150   144   am
    44    39    40    1
    45   119   116    1
    46   115   116    1
    47   116   117    1
    48    36    35    1
    49    35    34    1
    50    99    98    2
    51   144   145    2
    52   144   143    1
    53    40    34    1
    54    98    97    1
    55    34    27   am
    56   100    97    1
    57   100   101    1
    58   117   118    2
    59   142   143    1
    60   103   101   ar
    61    48    46    1
    62   143   146    1
    63   146   147    1
    64    97    96    1
    65   101   102   ar
    66    27    28    2
    67    27    26    1
    68    29    26    1
    69    29    30    1
    70   147   148    1
    71   147   149    1
    72    46    45    1
    73    31    30    1
    74    31    32    1
    75    26    25    1
    76   134   135    1
    77    33    32    1
    78    41    42    1
    79    45    42    1
    80    45    47    1
    81   135   138    1
    82   135   136    1
    83    42    43    1
    84    57    55   am
    85   138   139    1
    86   136   137    2
    87    56    55    2
    88    55    54    1
    89    16    15    1
    90    16    10    1
    91    90    89    2
    92    43    44    2
    93   140   139    1
    94    89    88    1
    95   139   141    1
    96    15    14    1
    97    10    11    1
    98    24    22    1
    99    13    12    2
   100    54    53    1
   101    53    50    1
   102    22    21    1
   103    14    11    1
   104    94    95    1
   105    94    93    1
   106    11    12    1
   107    92    93    1
   108    92    91    1
   109    23    21    1
   110    88    91    1
   111    88    87    1
   112    20    19    2
   113    49    50    1
   114    19    18    1
   115    50    51    1
   116    21    18    1
   117    86    84    1
   118    18    17    1
   119    51    52    2
   120    51    58   am
   121    61    60    2
   122    84    83    1
   123    58    59    1
   124    75    73   ar
   125    75    77   ar
   126    83    85    1
   127    83    80    1
   128    73    72   ar
   129    78    77    1
   130    60    59    1
   131    60    67   am
   132    77    76   ar
   133    79    80    1
   134    79    69   am
   135    59    62    1
   136    63    62    1
   137    63    64    1
   138    68    67    1
   139    68    69    1
   140    68    71    1
   141    80    81    1
   142    72    71    1
   143    72    74   ar
   144    82    81    2
   145    69    70    2
   146    66    64   ar
   147    64    65   ar
   148    76    74   ar
