@<TRIPOS>MOLECULE
tmp/4yluB00.pdb
 172 169 0 0 0
SMALL
GASTEIGER

@<TRIPOS>ATOM
      1  N         -6.3940  -19.1910   72.5190 N.3    24  SER24      -0.1202
      2  CA        -6.4280  -20.2850   71.5580 C.3    24  SER24       0.2020
      3  C         -5.7140  -19.9140   70.2600 C.2    24  SER24       0.2618
      4  O         -5.7740  -20.6540   69.2750 O.2    24  SER24      -0.2717
      5  CB        -7.8720  -20.6650   71.2440 C.3    24  SER24       0.2103
      6  OG        -8.6690  -20.6470   72.4170 O.3    24  SER24      -0.2182
      7  N         -5.0430  -18.7660   70.2620 N.am   25  MET25      -0.1979
      8  CA        -4.4060  -18.2650   69.0570 C.3    25  MET25       0.1605
      9  C         -2.8820  -18.1620   69.2130 C.2    25  MET25       0.2287
     10  O         -2.3820  -17.6900   70.2160 O.2    25  MET25      -0.2864
     11  CB        -5.0150  -16.9010   68.6950 C.3    25  MET25       0.0413
     12  CG        -4.5070  -16.3440   67.3650 C.3    25  MET25       0.0598
     13  SD        -4.4530  -17.5820   66.0460 S.3    25  MET25      -0.1393
     14  CE        -3.4310  -16.7700   64.8290 C.3    25  MET25       0.0692
     15  N         -4.3800   -9.3070   65.5210 N.3    41  HIS41      -0.1241
     16  CA        -5.4470  -10.3110   65.4990 C.3    41  HIS41       0.1621
     17  C         -5.0930  -11.5950   66.3120 C.2    41  HIS41       0.2264
     18  O         -5.9320  -12.4570   66.4690 O.2    41  HIS41      -0.2867
     19  CB        -5.8690  -10.6600   64.0520 C.3    41  HIS41       0.0745
     20  CG        -4.8270  -11.3410   63.2090 C.ar   41  HIS41       0.0817
     21  ND1       -4.3310  -12.5980   63.4870 N.ar   41  HIS41      -0.2268
     22  CD2       -4.2520  -10.9650   62.0430 C.ar   41  HIS41       0.1154
     23  CE1       -3.4640  -12.9470   62.5500 C.ar   41  HIS41       0.1986
     24  NE2       -3.4030  -11.9750   61.6610 N.ar   41  HIS41      -0.2212
     25  N         -7.6350  -11.8820   68.9950 N.3    44  CYS44      -0.1221
     26  CA        -8.9910  -12.0770   68.5960 C.3    44  CYS44       0.1794
     27  C         -9.3960  -13.5440   68.6780 C.2    44  CYS44       0.2443
     28  O         -8.7400  -14.3860   68.0730 O.2    44  CYS44      -0.2733
     29  CB        -9.1660  -11.5570   67.1810 C.3    44  CYS44       0.0970
     30  SG       -10.8070  -11.5270   66.6510 S.3    44  CYS44      -0.0800
     31  N        -10.4750  -13.8570   69.4280 N.am   45  PRO45      -0.2718
     32  CA       -11.0040  -15.2270   69.4520 C.3    45  PRO45       0.1535
     33  C        -11.5340  -15.6520   68.0970 C.2    45  PRO45       0.2598
     34  O        -11.9470  -14.8000   67.3290 O.2    45  PRO45      -0.2715
     35  CB       -12.1550  -15.1520   70.4630 C.3    45  PRO45       0.0310
     36  CG       -11.9110  -13.9280   71.2390 C.3    45  PRO45       0.0237
     37  CD       -11.2380  -12.9740   70.3270 C.3    45  PRO45       0.0939
     38  N        -11.5480  -16.9490   67.8290 N.am   46  ALA46      -0.1978
     39  CA       -11.9580  -17.4690   66.5340 C.3    46  ALA46       0.1597
     40  C        -13.3800  -17.0430   66.1400 C.2    46  ALA46       0.2287
     41  O        -13.6630  -16.8360   64.9620 O.2    46  ALA46      -0.2864
     42  CB       -11.8490  -18.9770   66.5390 C.3    46  ALA46       0.0319
     43  N        -13.4170  -13.1990   64.4510 N.3    49  LEU49      -0.1245
     44  CA       -12.4610  -12.8270   63.3980 C.3    49  LEU49       0.1561
     45  C        -13.0700  -11.9910   62.2710 C.2    49  LEU49       0.2260
     46  O        -12.3600  -11.2000   61.6610 O.2    49  LEU49      -0.2867
     47  CB       -11.7980  -14.0810   62.7990 C.3    49  LEU49       0.0270
     48  CG       -10.7960  -14.7620   63.7490 C.3    49  LEU49       0.0019
     49  CD1      -10.5090  -16.1840   63.2920 C.3    49  LEU49       0.0001
     50  CD2       -9.4790  -13.9660   63.9430 C.3    49  LEU49       0.0001
     51  N        -13.7980   -7.9670   64.5910 N.3    52  PRO52      -0.2116
     52  CA       -13.1370   -7.7420   65.8700 C.3    52  PRO52       0.1372
     53  C        -13.3340   -6.3120   66.3670 C.2    52  PRO52       0.2244
     54  O        -13.3260   -5.3600   65.5750 O.2    52  PRO52      -0.2868
     55  CB       -11.6660   -8.0360   65.5580 C.3    52  PRO52       0.0268
     56  CG       -11.5360   -7.7760   64.1030 C.3    52  PRO52       0.0207
     57  CD       -12.8440   -8.0880   63.4770 C.3    52  PRO52       0.0892
     58  N        -11.1810   -4.2770   68.2680 N.3    54  TYR54      -0.1241
     59  CA        -9.8080   -4.3640   68.7250 C.3    54  TYR54       0.1605
     60  C         -9.6180   -3.4920   69.9500 C.2    54  TYR54       0.2264
     61  O         -8.7770   -3.7810   70.7760 O.2    54  TYR54      -0.2867
     62  CB        -8.8300   -3.9850   67.6030 C.3    54  TYR54       0.0534
     63  CG        -8.6310   -5.1080   66.6050 C.ar   54  TYR54      -0.0201
     64  CD1       -8.0170   -6.2870   66.9890 C.ar   54  TYR54      -0.0009
     65  CD2       -9.0650   -4.9950   65.2910 C.ar   54  TYR54      -0.0009
     66  CE1       -7.8360   -7.3260   66.1070 C.ar   54  TYR54       0.0417
     67  CE2       -8.8690   -6.0410   64.3780 C.ar   54  TYR54       0.0417
     68  CZ        -8.2460   -7.2040   64.8090 C.ar   54  TYR54       0.1957
     69  OH        -8.0570   -8.2570   63.9440 O.3    54  TYR54      -0.2866
     70  N          2.6350  -18.5550   51.6750 N.3   143  PHE143     -0.1227
     71  CA         2.2570  -18.5100   53.0890 C.3   143  PHE143      0.1736
     72  C          1.1030  -19.4900   53.3810 C.2   143  PHE143      0.2595
     73  O          0.1490  -19.5450   52.6260 O.2   143  PHE143     -0.2718
     74  CB         1.7990  -17.1060   53.5120 C.3   143  PHE143      0.0547
     75  CG         2.8650  -16.0180   53.4080 C.ar  143  PHE143     -0.0202
     76  CD1        3.8530  -15.9090   54.3330 C.ar  143  PHE143     -0.0042
     77  CD2        2.8080  -15.0780   52.4100 C.ar  143  PHE143     -0.0042
     78  CE1        4.7890  -14.9020   54.2500 C.ar  143  PHE143     -0.0003
     79  CE2        3.7400  -14.0650   52.3280 C.ar  143  PHE143     -0.0003
     80  CZ         4.7260  -13.9850   53.2510 C.ar  143  PHE143     -0.0000
     81  N          1.2190  -20.2500   54.4740 N.am  144  LEU144     -0.1966
     82  CA         0.1150  -21.0500   55.0120 C.3   144  LEU144      0.1728
     83  C         -0.3610  -20.4720   56.3390 C.2   144  LEU144      0.2616
     84  O          0.2950  -19.6060   56.9430 O.2   144  LEU144     -0.2715
     85  CB         0.5430  -22.5070   55.2260 C.3   144  LEU144      0.0311
     86  CG         1.1490  -23.1840   53.9870 C.3   144  LEU144      0.0022
     87  CD1        1.6640  -24.5750   54.3280 C.3   144  LEU144      0.0001
     88  CD2        0.1200  -23.2400   52.8610 C.3   144  LEU144      0.0001
     89  N         -1.5090  -20.9590   56.7940 N.am  145  CYS145     -0.1954
     90  CA        -2.0170  -20.5530   58.0830 C.3   145  CYS145      0.1843
     91  C         -0.9460  -20.8570   59.0980 C.2   145  CYS145      0.2626
     92  O         -0.2700  -21.8990   59.0420 O.2   145  CYS145     -0.2714
     93  CB        -3.3240  -21.2680   58.4270 C.3   145  CYS145      0.0997
     94  SG        -3.1140  -23.0320   58.6340 S.3   145  CYS145     -0.0797
     95  N         -0.7400  -19.9000   59.9830 N.am  146  GLY146     -0.1940
     96  CA         0.3190  -19.9900   60.9570 C.3   146  GLY146      0.2014
     97  C          1.5410  -19.1580   60.6030 C.2   146  GLY146      0.2640
     98  O          2.4300  -19.0210   61.4270 O.2   146  GLY146     -0.2714
     99  N          1.5650  -18.5740   59.4080 N.am  147  SER147     -0.1935
    100  CA         2.7030  -17.7630   58.9800 C.3   147  SER147      0.2055
    101  C          2.6380  -16.2950   59.4050 C.2   147  SER147      0.2643
    102  O          3.6050  -15.5500   59.2320 O.2   147  SER147     -0.2714
    103  CB         2.8440  -17.8350   57.4490 C.3   147  SER147      0.2130
    104  OG         1.7070  -17.3150   56.7880 O.3   147  SER147     -0.2179
    105  N          1.5060  -15.8780   59.9690 N.am  148  CYS148     -0.1967
    106  CA         1.3230  -14.4890   60.3690 C.3   148  CYS148      0.1712
    107  C          2.3890  -14.0400   61.3300 C.2   148  CYS148      0.2296
    108  O          2.8210  -14.7980   62.1870 O.2   148  CYS148     -0.2864
    109  CB        -0.0690  -14.2960   60.9800 C.3   148  CYS148      0.0983
    110  SG        -1.3880  -14.7050   59.7860 S.3   148  CYS148     -0.0798
    111  N          3.7570  -10.0630   58.0220 N.3   166  HIS166     -0.1226
    112  CA         2.6850  -10.7300   57.3230 C.3   166  HIS166      0.1752
    113  C          1.3750  -10.7700   58.1380 C.2   166  HIS166      0.2596
    114  O          1.3940  -11.1270   59.3190 O.2   166  HIS166     -0.2718
    115  CB         3.0930  -12.1510   56.9370 C.3   166  HIS166      0.0759
    116  CG         2.0630  -12.8310   56.1010 C.ar  166  HIS166      0.0818
    117  ND1        1.5890  -12.2840   54.9370 N.ar  166  HIS166     -0.2268
    118  CD2        1.3640  -13.9750   56.3030 C.ar  166  HIS166      0.1154
    119  CE1        0.6370  -13.0660   54.4440 C.ar  166  HIS166      0.1986
    120  NE2        0.4690  -14.0810   55.2670 N.ar  166  HIS166     -0.2212
    121  N          0.2640  -10.4040   57.4910 N.am  167  GLN167     -0.1965
    122  CA        -1.0480  -10.3080   58.1400 C.3   167  GLN167      0.1733
    123  C         -2.1080  -11.2330   57.5470 C.2   167  GLN167      0.2616
    124  O         -2.8040  -11.8750   58.3050 O.2   167  GLN167     -0.2715
    125  CB        -1.6000   -8.8750   58.0900 C.3   167  GLN167      0.0408
    126  CG        -0.8300   -7.8770   58.9630 C.3   167  GLN167      0.0908
    127  CD        -1.4780   -7.6370   60.3260 C.2   167  GLN167      0.2608
    128  OE1       -2.4120   -8.3230   60.7090 O.2   167  GLN167     -0.2717
    129  NE2       -0.9780   -6.6560   61.0460 N.am  167  GLN167     -0.0878
    130  N         -2.2350  -11.3530   56.2330 N.am  168  MET168     -0.1963
    131  CA        -3.3890  -12.0570   55.6530 C.3   168  MET168      0.1736
    132  C         -3.2220  -12.5480   54.2090 C.2   168  MET168      0.2616
    133  O         -2.4490  -11.9960   53.4440 O.2   168  MET168     -0.2715
    134  CB        -4.6200  -11.1360   55.7100 C.3   168  MET168      0.0427
    135  CG        -4.6120   -9.9860   54.6940 C.3   168  MET168      0.0599
    136  SD        -5.7870   -8.6280   55.0400 S.3   168  MET168     -0.1393
    137  CE        -5.0770   -8.0090   56.5510 C.3   168  MET168      0.0692
    138  N         -4.0020  -13.5560   53.8450 N.am  169  GLU169     -0.1977
    139  CA        -4.2050  -13.9460   52.4650 C.3   169  GLU169      0.1602
    140  C         -5.5190  -13.3870   51.9450 C.2   169  GLU169      0.2287
    141  O         -6.5480  -13.5020   52.6200 O.2   169  GLU169     -0.2864
    142  CB        -4.2130  -15.4480   52.3370 C.3   169  GLU169      0.0415
    143  CG        -4.3880  -15.9020   50.9600 C.3   169  GLU169      0.1163
    144  CD        -3.8570  -17.3000   50.7510 C.2   169  GLU169      0.3649
    145  OE1       -2.7100  -17.5420   51.1320 O.co2 169  GLU169     -0.2457
    146  OE2       -4.5900  -18.1560   50.2140 O.co2 169  GLU169     -0.2457
    147  N         -7.7190   -5.7930   58.7950 N.3   190  ASP190     -0.1225
    148  CA        -7.4230   -7.0910   59.4380 C.3   190  ASP190      0.1805
    149  C         -8.7080   -7.7020   60.0460 C.2   190  ASP190      0.2598
    150  O         -8.7900   -7.9730   61.2280 O.2   190  ASP190     -0.2718
    151  CB        -6.3190   -6.9670   60.4950 C.3   190  ASP190      0.1424
    152  CG        -6.4920   -5.7630   61.3950 C.2   190  ASP190      0.3668
    153  OD1       -7.3730   -4.9530   61.1000 O.co2 190  ASP190     -0.2456
    154  OD2       -5.7400   -5.6170   62.3780 O.co2 190  ASP190     -0.2456
    155  N         -9.6780   -7.9120   59.1710 N.am  191  LYS191     -0.1966
    156  CA       -10.9230   -8.6470   59.4260 C.3   191  LYS191      0.1728
    157  C        -10.9820   -9.7870   58.4440 C.2   191  LYS191      0.2616
    158  O        -10.4400   -9.6800   57.3320 O.2   191  LYS191     -0.2715
    159  CB       -12.1630   -7.7870   59.1990 C.3   191  LYS191      0.0311
    160  CG       -12.1190   -6.4160   59.8430 C.3   191  LYS191      0.0038
    161  CD       -13.4230   -5.6470   59.6660 C.3   191  LYS191      0.0206
    162  CE       -13.8690   -5.6100   58.2100 C.3   191  LYS191      0.1093
    163  NZ       -14.9070   -4.5620   57.9930 N.3   191  LYS191     -0.1314
    164  N        -11.6730  -10.8580   58.8110 N.am  192  GLN192     -0.1977
    165  CA       -11.8700  -11.9560   57.8830 C.3   192  GLN192      0.1601
    166  C        -13.0990  -11.6860   57.0450 C.2   192  GLN192      0.2287
    167  O        -14.1670  -12.2260   57.3070 O.2   192  GLN192     -0.2864
    168  CB       -12.0030  -13.2880   58.6170 C.3   192  GLN192      0.0394
    169  CG       -12.1670  -14.4820   57.6870 C.3   192  GLN192      0.0908
    170  CD       -12.0350  -15.7960   58.4110 C.2   192  GLN192      0.2608
    171  OE1      -12.9420  -16.2180   59.1380 O.2   192  GLN192     -0.2717
    172  NE2      -10.8980  -16.4530   58.2250 N.am  192  GLN192     -0.0878
@<TRIPOS>BOND
     1   146   144   ar
     2   144   143    1
     3   144   145   ar
     4   143   142    1
     5    70    71    1
     6   140   139    1
     7   140   141    2
     8    79    77   ar
     9    79    80   ar
    10   142   139    1
    11    77    75   ar
    12   139   138    1
    13    73    72    2
    14    88    86    1
    15    71    72    1
    16    71    74    1
    17    80    78   ar
    18    72    81   am
    19    75    74    1
    20    75    76   ar
    21   133   132    2
    22   138   132   am
    23    86    87    1
    24    86    85    1
    25   132   131    1
    26    78    76   ar
    27   119   117   ar
    28   119   120   ar
    29    81    82    1
    30   135   136    1
    31   135   134    1
    32   117   116   ar
    33    82    85    1
    34    82    83    1
    35   136   137    1
    36   120   118   ar
    37   131   134    1
    38   131   130    1
    39   116   118   ar
    40   116   115    1
    41   130   123   am
    42    83    89   am
    43    83    84    2
    44   104   103    1
    45    89    90    1
    46   115   112    1
    47   166   167    2
    48   166   165    1
    49   112   111    1
    50   112   113    1
    51   158   157    2
    52   103   100    1
    53   121   113   am
    54   121   122    1
    55   123   122    1
    56   123   124    2
    57   169   170    1
    58   169   168    1
    59   165   168    1
    60   165   164    1
    61   163   162    1
    62    90    93    1
    63    90    91    1
    64   125   122    1
    65   125   126    1
    66   113   114    2
    67   162   161    1
    68   172   170   am
    69   170   171    2
    70    93    94    1
    71   157   164   am
    72   157   156    1
    73   147   148    1
    74   126   127    1
    75   100   101    1
    76   100    99    1
    77    92    91    2
    78    91    95   am
    79   155   156    1
    80   155   149   am
    81   159   156    1
    82   159   160    1
    83   102   101    2
    84   101   105   am
    85    99    97   am
    86   148   149    1
    87   148   151    1
    88   161   160    1
    89   110   109    1
    90   105   106    1
    91    95    96    1
    92   149   150    2
    93   127   128    2
    94   127   129   am
    95   106   109    1
    96   106   107    1
    97   151   152    1
    98    97    96    1
    99    97    98    2
   100   153   152   ar
   101   107   108    2
   102   152   154   ar
   103    24    22   ar
   104    24    23   ar
   105    46    45    2
   106    22    20   ar
   107    45    44    1
   108    23    21   ar
   109    47    44    1
   110    47    48    1
   111    20    21   ar
   112    20    19    1
   113    49    48    1
   114    44    43    1
   115    57    56    1
   116    57    51    1
   117    48    50    1
   118    69    68    1
   119    19    16    1
   120    56    55    1
   121    67    68   ar
   122    67    65   ar
   123    51    52    1
   124    68    66   ar
   125    14    13    1
   126    41    40    2
   127    65    63   ar
   128    16    15    1
   129    16    17    1
   130    55    52    1
   131    54    53    2
   132    52    53    1
   133    13    12    1
   134    66    64   ar
   135    40    39    1
   136    17    18    2
   137    39    42    1
   138    39    38    1
   139    63    64   ar
   140    63    62    1
   141    30    29    1
   142    29    26    1
   143    34    33    2
   144    12    11    1
   145    62    59    1
   146    38    33   am
   147    28    27    2
   148    33    32    1
   149    58    59    1
   150    26    27    1
   151    26    25    1
   152    27    31   am
   153    11     8    1
   154    59    60    1
   155     8     9    1
   156     8     7    1
   157     9    10    2
   158     4     3    2
   159    31    32    1
   160    31    37    1
   161    32    35    1
   162    60    61    2
   163     3     7   am
   164     3     2    1
   165    37    36    1
   166    35    36    1
   167     5     2    1
   168     5     6    1
   169     2     1    1
