@<TRIPOS>MOLECULE
tmp/4ylwA00.pdb
 166 160 0 0 0
SMALL
GASTEIGER

@<TRIPOS>ATOM
      1  N         23.5630    7.0070    7.2610 N.3     6  TYR6       -0.1241
      2  CA        24.7110    7.8440    6.8220 C.3     6  TYR6        0.1605
      3  C         24.6640    9.2430    7.4320 C.2     6  TYR6        0.2264
      4  O         25.6700    9.8120    7.9200 O.2     6  TYR6       -0.2867
      5  CB        24.7400    7.8700    5.2820 C.3     6  TYR6        0.0534
      6  CG        25.4200    6.6370    4.6890 C.ar    6  TYR6       -0.0201
      7  CD1       24.8220    5.3440    4.7480 C.ar    6  TYR6       -0.0009
      8  CD2       26.6730    6.7650    4.0590 C.ar    6  TYR6       -0.0009
      9  CE1       25.4490    4.2290    4.1650 C.ar    6  TYR6        0.0417
     10  CE2       27.3020    5.6820    3.4940 C.ar    6  TYR6        0.0417
     11  CZ        26.6960    4.4280    3.5490 C.ar    6  TYR6        0.1957
     12  OH        27.4220    3.4040    2.9840 O.3     6  TYR6       -0.2866
     13  N         27.1320    7.5160   10.2750 N.3    10  LEU10      -0.1231
     14  CA        28.4070    7.3630    9.5790 C.3    10  LEU10       0.1693
     15  C         29.1060    8.7080    9.3390 C.2    10  LEU10       0.2591
     16  O         30.2950    8.8750    9.6910 O.2    10  LEU10      -0.2718
     17  CB        28.2940    6.5560    8.2760 C.3    10  LEU10       0.0284
     18  CG        29.6520    6.3220    7.5570 C.3    10  LEU10       0.0019
     19  CD1       30.6670    5.5820    8.4180 C.3    10  LEU10       0.0001
     20  CD2       29.4540    5.5520    6.2620 C.3    10  LEU10       0.0001
     21  N         28.4060    9.6460    8.6820 N.am   11  MET11      -0.1979
     22  CA        29.1110   10.8960    8.3200 C.3    11  MET11       0.1605
     23  C         29.4960   11.6790    9.5800 C.2    11  MET11       0.2287
     24  O         30.6400   12.1610    9.6700 O.2    11  MET11      -0.2864
     25  CB        28.2790   11.7690    7.3500 C.3    11  MET11       0.0413
     26  CG        27.9780   11.0720    6.0420 C.3    11  MET11       0.0598
     27  SD        29.3950   10.2540    5.2420 S.3    11  MET11      -0.1393
     28  CE        30.4430   11.6870    4.8460 C.3    11  MET11       0.0692
     29  N         32.7500   10.0020   10.9060 N.3    14  LEU14      -0.1245
     30  CA        33.9110   10.3250   10.0840 C.3    14  LEU14       0.1561
     31  C         34.3260   11.7440   10.3110 C.2    14  LEU14       0.2260
     32  O         35.5120   11.9880   10.3730 O.2    14  LEU14      -0.2867
     33  CB        33.6320   10.2040    8.5880 C.3    14  LEU14       0.0270
     34  CG        33.4140    8.7980    8.0310 C.3    14  LEU14       0.0019
     35  CD1       33.1330    8.8710    6.5340 C.3    14  LEU14       0.0001
     36  CD2       34.6030    7.9040    8.3680 C.3    14  LEU14       0.0001
     37  N         39.2790   13.3680    5.3810 N.3    23  ALA23      -0.1231
     38  CA        38.0400   12.7240    5.1320 C.3    23  ALA23       0.1694
     39  C         37.8130   12.6780    3.5950 C.2    23  ALA23       0.2592
     40  O         37.3540   11.7010    3.0460 O.2    23  ALA23      -0.2718
     41  CB        36.9180   13.4890    5.8040 C.3    23  ALA23       0.0304
     42  N         38.1220   13.7690    2.9260 N.am   24  HIS24      -0.1976
     43  CA        37.9300   13.8260    1.4320 C.3    24  HIS24       0.1656
     44  C         38.8600   12.8290    0.7090 C.2    24  HIS24       0.2291
     45  O         38.3930   12.0320   -0.1250 O.2    24  HIS24      -0.2864
     46  CB        38.2960   15.1920    0.9210 C.3    24  HIS24       0.0771
     47  CG        38.3630   15.2810   -0.5760 C.ar   24  HIS24       0.0820
     48  ND1       39.5330   15.4340   -1.2730 N.ar   24  HIS24      -0.2267
     49  CD2       37.4150   15.0980   -1.4870 C.ar   24  HIS24       0.1154
     50  CE1       39.2960   15.4090   -2.5650 C.ar   24  HIS24       0.1986
     51  NE2       37.9930   15.2650   -2.7160 N.ar   24  HIS24      -0.2212
     52  N         40.0100   10.0280    1.8920 N.3    26  LEU26      -0.1231
     53  CA        39.4290    8.7040    2.1500 C.3    26  LEU26       0.1693
     54  C         38.2140    8.4470    1.3230 C.2    26  LEU26       0.2591
     55  O         38.0650    7.3890    0.7080 O.2    26  LEU26      -0.2718
     56  CB        39.0990    8.5880    3.6250 C.3    26  LEU26       0.0284
     57  CG        38.6340    7.2340    4.1510 C.3    26  LEU26       0.0019
     58  CD1       39.7630    6.2200    3.8490 C.3    26  LEU26       0.0001
     59  CD2       38.3980    7.4560    5.6520 C.3    26  LEU26       0.0001
     60  N         37.3360    9.4800    1.1970 N.am   27  ALA27      -0.1980
     61  CA        36.1970    9.3620    0.3420 C.3    27  ALA27       0.1597
     62  C         36.5440    9.0810   -1.1230 C.2    27  ALA27       0.2287
     63  O         35.8690    8.3130   -1.7740 O.2    27  ALA27      -0.2864
     64  CB        35.3720   10.6620    0.3850 C.3    27  ALA27       0.0319
     65  N         37.6970    5.4170   -1.2600 N.3    30  PHE30      -0.1227
     66  CA        36.5920    4.4790   -1.2090 C.3    30  PHE30       0.1736
     67  C         35.7560    4.5000   -2.4400 C.2    30  PHE30       0.2596
     68  O         35.2600    3.4600   -2.8990 O.2    30  PHE30      -0.2718
     69  CB        35.6630    4.7000   -0.0300 C.3    30  PHE30       0.0547
     70  CG        36.0450    3.9540    1.2500 C.ar   30  PHE30      -0.0202
     71  CD1       37.3100    4.1120    1.8230 C.ar   30  PHE30      -0.0042
     72  CD2       35.1110    3.1490    1.8770 C.ar   30  PHE30      -0.0042
     73  CE1       37.6500    3.4280    3.0260 C.ar   30  PHE30      -0.0003
     74  CE2       35.4230    2.4480    3.0550 C.ar   30  PHE30      -0.0003
     75  CZ        36.7020    2.6080    3.6110 C.ar   30  PHE30      -0.0000
     76  N         35.5000    5.7160   -2.9940 N.am   31  THR31      -0.1953
     77  CA        34.6810    5.7920   -4.1060 C.3    31  THR31       0.1897
     78  C         35.4200    5.0950   -5.2620 C.2    31  THR31       0.2313
     79  O         34.7600    4.3690   -6.0410 O.2    31  THR31      -0.2863
     80  CB        34.4080    7.2920   -4.4550 C.3    31  THR31       0.1794
     81  OG1       33.7020    7.8530   -3.3490 O.3    31  THR31      -0.2208
     82  CG2       33.4740    7.4220   -5.6810 C.3    31  THR31       0.0378
     83  N         33.4090    1.0870   -2.9640 N.3    35  LEU35      -0.1231
     84  CA        32.9310    0.7310   -1.6050 C.3    35  LEU35       0.1693
     85  C         31.8460    1.7050   -1.1560 C.2    35  LEU35       0.2592
     86  O         32.0720    2.6550   -0.3080 O.2    35  LEU35      -0.2718
     87  CB        34.1080    0.7930   -0.6380 C.3    35  LEU35       0.0284
     88  CG        35.3160   -0.0670   -1.0660 C.3    35  LEU35       0.0019
     89  CD1       36.4310    0.2010   -0.0890 C.3    35  LEU35       0.0001
     90  CD2       34.9920   -1.5360   -1.0930 C.3    35  LEU35       0.0001
     91  N         30.6870    1.4760   -1.6980 N.am   36  LEU36      -0.1966
     92  CA        29.6040    2.4340   -1.5640 C.3    36  LEU36       0.1713
     93  C         28.3200    1.6310   -1.3410 C.2    36  LEU36       0.2458
     94  O         28.2710    0.4700   -1.7140 O.2    36  LEU36      -0.2730
     95  CB        29.4720    3.2300   -2.8780 C.3    36  LEU36       0.0310
     96  CG        30.6800    4.0330   -3.3750 C.3    36  LEU36       0.0022
     97  CD1       30.6670    4.2990   -4.8970 C.3    36  LEU36       0.0001
     98  CD2       30.7120    5.2930   -2.4930 C.3    36  LEU36       0.0001
     99  N         27.3040    2.3290   -0.8120 N.am   37  PRO37      -0.2727
    100  CA        25.9120    1.8700   -0.6620 C.3    37  PRO37       0.1402
    101  C         25.2610    1.7550   -2.0310 C.2    37  PRO37       0.2269
    102  O         25.7400    2.3960   -2.9670 O.2    37  PRO37      -0.2865
    103  CB        25.2610    2.9980    0.1400 C.3    37  PRO37       0.0296
    104  CG        26.0640    4.2070   -0.2000 C.3    37  PRO37       0.0237
    105  CD        27.4760    3.7270   -0.3820 C.3    37  PRO37       0.0939
    106  N         28.0110   15.3220  -10.1650 N.3    62  ILE62      -0.1245
    107  CA        28.9850   15.6590   -9.1250 C.3    62  ILE62       0.1561
    108  C         29.7560   16.8590   -9.6260 C.2    62  ILE62       0.2260
    109  O         30.2330   16.9100  -10.7380 O.2    62  ILE62      -0.2867
    110  CB        29.8990   14.4780   -8.7670 C.3    62  ILE62       0.0252
    111  CG1       30.9330   14.7970   -7.7160 C.3    62  ILE62       0.0019
    112  CG2       30.6520   13.9720   -9.9890 C.3    62  ILE62       0.0019
    113  CD1       30.4110   14.9910   -6.3530 C.3    62  ILE62       0.0001
    114  N         35.6430   17.4670   -6.3340 N.3    66  PHE66      -0.1241
    115  CA        35.5840   16.2250   -5.5780 C.3    66  PHE66       0.1605
    116  C         36.5980   15.2710   -6.1790 C.2    66  PHE66       0.2264
    117  O         37.4940   14.7320   -5.4700 O.2    66  PHE66      -0.2867
    118  CB        34.2390   15.6000   -5.5440 C.3    66  PHE66       0.0534
    119  CG        34.2680   14.2820   -4.8120 C.ar   66  PHE66      -0.0203
    120  CD1       34.4710   14.2540   -3.4380 C.ar   66  PHE66      -0.0042
    121  CD2       34.3100   13.1000   -5.5210 C.ar   66  PHE66      -0.0042
    122  CE1       34.5580   13.0170   -2.7470 C.ar   66  PHE66      -0.0003
    123  CE2       34.3900   11.8650   -4.8410 C.ar   66  PHE66      -0.0003
    124  CZ        34.5900   11.8740   -3.4590 C.ar   66  PHE66      -0.0000
    125  N         27.5040    5.6490   -7.7950 N.3    79  MET79      -0.1245
    126  CA        26.8000    6.4000   -6.7890 C.3    79  MET79       0.1570
    127  C         25.4370    6.9160   -7.2340 C.2    79  MET79       0.2261
    128  O         24.6520    7.2920   -6.4200 O.2    79  MET79      -0.2867
    129  CB        27.6590    7.5650   -6.3390 C.3    79  MET79       0.0387
    130  CG        27.7350    7.7710   -4.8780 C.3    79  MET79       0.0595
    131  SD        28.7660    9.1630   -4.3730 S.3    79  MET79      -0.1393
    132  CE        30.2990    8.4040   -4.4810 C.3    79  MET79       0.0692
    133  N         28.1630   19.1020   -4.4470 N.3   324  TYR324     -0.1241
    134  CA        29.4470   18.7430   -3.8610 C.3   324  TYR324      0.1605
    135  C         29.3910   18.6650   -2.3350 C.2   324  TYR324      0.2264
    136  O         29.7290   17.6410   -1.7400 O.2   324  TYR324     -0.2867
    137  CB        30.5280   19.7350   -4.2940 C.3   324  TYR324      0.0534
    138  CG        31.9220   19.3610   -3.8410 C.ar  324  TYR324     -0.0201
    139  CD1       33.0210   20.1240   -4.2120 C.ar  324  TYR324     -0.0009
    140  CD2       32.1380   18.2450   -3.0440 C.ar  324  TYR324     -0.0009
    141  CE1       34.2970   19.7860   -3.8000 C.ar  324  TYR324      0.0417
    142  CE2       33.4100   17.9000   -2.6280 C.ar  324  TYR324      0.0417
    143  CZ        34.4850   18.6730   -3.0090 C.ar  324  TYR324      0.1957
    144  OH        35.7530   18.3330   -2.5970 O.3   324  TYR324     -0.2866
    145  N         27.2970   16.1330    0.0450 N.3   327  LEU327     -0.1231
    146  CA        27.8750   14.8140    0.2330 C.3   327  LEU327      0.1693
    147  C         28.6530   14.7730    1.5360 C.2   327  LEU327      0.2592
    148  O         28.6240   13.7760    2.2570 O.2   327  LEU327     -0.2718
    149  CB        28.7900   14.4560   -0.9400 C.3   327  LEU327      0.0284
    150  CG        28.2490   13.4240   -1.9320 C.3   327  LEU327      0.0019
    151  CD1       29.2620   13.1550   -3.0340 C.3   327  LEU327      0.0001
    152  CD2       27.8740   12.1360   -1.2160 C.3   327  LEU327      0.0001
    153  N         29.3220   15.8760    1.8410 N.am  328  THR328     -0.1953
    154  CA        30.1840   15.9370    3.0020 C.3   328  THR328      0.1897
    155  C         29.3460   15.6830    4.2390 C.2   328  THR328      0.2313
    156  O         29.7980   15.0300    5.1790 O.2   328  THR328     -0.2863
    157  CB        30.8710   17.3090    3.1270 C.3   328  THR328      0.1794
    158  OG1       29.8830   18.3220    3.3500 O.3   328  THR328     -0.2208
    159  CG2       31.6460   17.6330    1.8590 C.3   328  THR328      0.0378
    160  N         26.8380    9.5480    0.4850 N.3   332  PRO332     -0.2116
    161  CA        26.3200    9.0320   -0.8080 C.3   332  PRO332      0.1372
    162  C         24.8210    8.8720   -0.9650 C.2   332  PRO332      0.2244
    163  O         24.3370    9.0940   -2.0450 O.2   332  PRO332     -0.2868
    164  CB        27.0680    7.7240   -0.9990 C.3   332  PRO332      0.0268
    165  CG        28.3820    8.0090   -0.2930 C.3   332  PRO332      0.0207
    166  CD        28.0390    8.7900    0.9100 C.3   332  PRO332      0.0892
@<TRIPOS>BOND
     1   109   108    2
     2   106   107    1
     3   112   110    1
     4   108   107    1
     5   107   110    1
     6   110   111    1
     7   125   126    1
     8   111   113    1
     9   127   126    1
    10   127   128    2
    11   126   129    1
    12   129   130    1
    13   114   115    1
    14   116   115    1
    15   116   117    2
    16    79    78    2
    17    82    80    1
    18   115   118    1
    19   118   119    1
    20   121   123   ar
    21   121   119   ar
    22    78    77    1
    23    97    96    1
    24   130   131    1
    25   123   124   ar
    26   119   120   ar
    27   132   131    1
    28    80    77    1
    29    80    81    1
    30   133   134    1
    31   137   134    1
    32   137   138    1
    33   139   138   ar
    34   139   141   ar
    35    77    76    1
    36   134   135    1
    37   138   140   ar
    38   141   143   ar
    39   124   122   ar
    40   120   122   ar
    41    96    95    1
    42    96    98    1
    43   140   142   ar
    44   151   150    1
    45   143   142   ar
    46   143   144    1
    47    76    67   am
    48   102   101    2
    49    83    84    1
    50    68    67    2
    51    95    92    1
    52    51    50   ar
    53    51    49   ar
    54    50    48   ar
    55    67    66    1
    56   135   136    2
    57   163   162    2
    58   101   100    1
    59   150   152    1
    60   150   149    1
    61    63    62    2
    62    94    93    2
    63    91    92    1
    64    91    85   am
    65    84    85    1
    66    84    87    1
    67    92    93    1
    68    49    47   ar
    69    93    99   am
    70    48    47   ar
    71    65    66    1
    72    66    69    1
    73    85    86    2
    74    62    61    1
    75    90    88    1
    76    88    87    1
    77    88    89    1
    78   164   161    1
    79   164   165    1
    80   162   161    1
    81   149   146    1
    82    99   100    1
    83    99   105    1
    84   161   160    1
    85   100   103    1
    86    47    46    1
    87   105   104    1
    88   165   166    1
    89   104   103    1
    90    45    44    2
    91    69    70    1
    92   145   146    1
    93   146   147    1
    94    61    64    1
    95    61    60    1
    96   160   166    1
    97    55    54    2
    98    44    43    1
    99    46    43    1
   100    60    54   am
   101    70    71   ar
   102    70    72   ar
   103    54    53    1
   104    43    42    1
   105   147   153   am
   106   147   148    2
   107    71    73   ar
   108   153   154    1
   109   159   157    1
   110    72    74   ar
   111    52    53    1
   112    53    56    1
   113    42    39   am
   114    12    11    1
   115   154   157    1
   116   154   155    1
   117    73    75   ar
   118    40    39    2
   119    74    75   ar
   120   157   158    1
   121    10    11   ar
   122    10     8   ar
   123    11     9   ar
   124    39    38    1
   125    56    57    1
   126    58    57    1
   127     8     6   ar
   128    57    59    1
   129     9     7   ar
   130   155   156    2
   131     6     7   ar
   132     6     5    1
   133    28    27    1
   134    38    37    1
   135    38    41    1
   136    27    26    1
   137     5     2    1
   138    26    25    1
   139    20    18    1
   140    35    34    1
   141     2     1    1
   142     2     3    1
   143    25    22    1
   144     3     4    2
   145    18    17    1
   146    18    19    1
   147    34    36    1
   148    34    33    1
   149    17    14    1
   150    22    21    1
   151    22    23    1
   152    33    30    1
   153    21    15   am
   154    15    14    1
   155    15    16    2
   156    14    13    1
   157    23    24    2
   158    30    31    1
   159    30    29    1
   160    31    32    2
