@<TRIPOS>MOLECULE
tmp/4ym9A00.pdb
 113 108 0 0 0
SMALL
GASTEIGER

@<TRIPOS>ATOM
      1  N          1.6460    3.2170   -4.8430 N.3    29  THR29      -0.1218
      2  CA         2.6470    4.1900   -4.4430 C.3    29  THR29       0.1862
      3  C          3.2530    3.9290   -3.0510 C.2    29  THR29       0.2287
      4  O          4.4250    4.2280   -2.8430 O.2    29  THR29      -0.2866
      5  CB         2.0730    5.6340   -4.5010 C.3    29  THR29       0.1770
      6  OG1        3.1210    6.5810   -4.2480 O.3    29  THR29      -0.2211
      7  CG2        0.9500    5.8400   -3.5160 C.3    29  THR29       0.0375
      8  N          4.4960   11.3760    4.0900 N.3    45  HIS45      -0.1241
      9  CA         5.0830   11.7750    2.8280 C.3    45  HIS45       0.1621
     10  C          4.3970   11.0180    1.6840 C.2    45  HIS45       0.2264
     11  O          4.5220   11.3950    0.5280 O.2    45  HIS45      -0.2867
     12  CB         6.6020   11.5560    2.8280 C.3    45  HIS45       0.0745
     13  CG         7.0380   10.1670    2.5400 C.ar   45  HIS45       0.0817
     14  ND1        7.5730    9.3450    3.5130 N.ar   45  HIS45      -0.2268
     15  CD2        7.0920    9.4680    1.3750 C.ar   45  HIS45       0.1154
     16  CE1        7.9140    8.1910    2.9700 C.ar   45  HIS45       0.1986
     17  NE2        7.6430    8.2420    1.6700 N.ar   45  HIS45      -0.2212
     18  N          1.5570   13.4590    0.7010 N.3    48  ASP48      -0.1239
     19  CA         2.0550   14.7820    0.3470 C.3    48  ASP48       0.1674
     20  C          1.3840   15.3980   -0.8900 C.2    48  ASP48       0.2266
     21  O          0.9950   16.5510   -0.8560 O.2    48  ASP48      -0.2867
     22  CB         3.5730   14.6960    0.0900 C.3    48  ASP48       0.1410
     23  CG         4.4260   15.0750    1.2980 C.2    48  ASP48       0.3668
     24  OD1        3.8830   15.6590    2.2670 O.co2  48  ASP48      -0.2456
     25  OD2        5.6720   14.7960    1.2450 O.co2  48  ASP48      -0.2456
     26  N          4.3830   17.4840   10.6240 N.3    83  TRP83      -0.1241
     27  CA         5.0980   16.9650    9.4630 C.3    83  TRP83       0.1605
     28  C          5.6040   18.0830    8.5470 C.2    83  TRP83       0.2264
     29  O          4.8750   19.0170    8.2390 O.2    83  TRP83      -0.2867
     30  CB         4.1850   16.0270    8.6740 C.3    83  TRP83       0.0550
     31  CG         4.7000   15.7020    7.3140 C.ar   83  TRP83       0.0003
     32  CD1        4.1450   16.0550    6.1200 C.ar   83  TRP83       0.0946
     33  CD2        5.8730   14.9570    7.0100 C.ar   83  TRP83       0.0152
     34  NE1        4.9040   15.5780    5.0840 N.ar   83  TRP83      -0.2442
     35  CE2        5.9760   14.8980    5.5980 C.ar   83  TRP83       0.0810
     36  CE3        6.8540   14.3470    7.7860 C.ar   83  TRP83       0.0012
     37  CZ2        7.0200   14.2330    4.9520 C.ar   83  TRP83       0.0191
     38  CZ3        7.8980   13.6910    7.1480 C.ar   83  TRP83       0.0001
     39  CH2        7.9790   13.6440    5.7390 C.ar   83  TRP83       0.0015
     40  N          7.5890   18.1840    4.8980 N.3    85  THR85      -0.1218
     41  CA         8.1100   17.3770    3.7820 C.3    85  THR85       0.1862
     42  C          9.5550   17.7430    3.3850 C.2    85  THR85       0.2287
     43  O         10.2810   16.9070    2.8340 O.2    85  THR85      -0.2866
     44  CB         7.2060   17.4950    2.5530 C.3    85  THR85       0.1770
     45  OG1        7.6630   16.5900    1.5390 O.3    85  THR85      -0.2211
     46  CG2        7.1980   18.9130    2.0180 C.3    85  THR85       0.0375
     47  N         12.4010   15.2500    6.3480 N.3    88  VAL88      -0.1245
     48  CA        11.9340   13.9530    6.8130 C.3    88  VAL88       0.1561
     49  C         12.7010   13.5490    8.0750 C.2    88  VAL88       0.2260
     50  O         12.1890   12.8130    8.9260 O.2    88  VAL88      -0.2867
     51  CB        12.0710   12.8710    5.7100 C.3    88  VAL88       0.0252
     52  CG1       13.5510   12.5000    5.4270 C.3    88  VAL88       0.0019
     53  CG2       11.2720   11.6530    6.0710 C.3    88  VAL88       0.0019
     54  N         14.0410   -1.8100    3.1300 N.3   183  GLY183     -0.1210
     55  CA        12.9230   -1.1840    2.4460 C.3   183  GLY183      0.1956
     56  C         13.4350   -0.4460    1.2190 C.2   183  GLY183      0.2612
     57  O         14.6300   -0.1790    1.0930 O.2   183  GLY183     -0.2717
     58  N         12.5500   -0.1520    0.2820 N.am  184  CYS184     -0.1956
     59  CA        12.9260    0.5950   -0.9180 C.3   184  CYS184      0.1843
     60  C         11.6850    1.3240   -1.4540 C.2   184  CYS184      0.2625
     61  O         10.5950    1.1990   -0.8600 O.2   184  CYS184     -0.2714
     62  CB        13.5480   -0.3520   -1.9440 C.3   184  CYS184      0.0997
     63  SG        14.6890    0.3430   -3.1160 S.3   184  CYS184     -0.0797
     64  N         11.8560    2.1220   -2.5100 N.am  185  GLN185     -0.1963
     65  CA        10.7520    2.9140   -3.0590 C.3   185  GLN185      0.1733
     66  C          9.4940    2.0680   -3.2480 C.2   185  GLN185      0.2616
     67  O          9.5450    1.0070   -3.8610 O.2   185  GLN185     -0.2715
     68  CB        11.1220    3.5460   -4.4070 C.3   185  GLN185      0.0408
     69  CG        11.9100    4.8230   -4.3280 C.3   185  GLN185      0.0908
     70  CD        13.3890    4.5550   -4.2700 C.2   185  GLN185      0.2608
     71  OE1       13.8170    3.5000   -3.8070 O.2   185  GLN185     -0.2717
     72  NE2       14.1810    5.4920   -4.7750 N.am  185  GLN185     -0.0878
     73  N          8.3680    2.5410   -2.7140 N.am  186  GLY186     -0.1955
     74  CA         7.1110    1.7970   -2.8100 C.3   186  GLY186      0.1869
     75  C          6.7410    1.0690   -1.5200 C.2   186  GLY186      0.2309
     76  O          5.5820    0.6700   -1.3440 O.2   186  GLY186     -0.2863
     77  N          7.4440    2.6130    1.4810 N.3   188  SER188     -0.1217
     78  CA         7.1230    3.7220    2.3910 C.3   188  SER188      0.1889
     79  C          5.6900    3.6250    2.8770 C.2   188  SER188      0.2288
     80  O          4.8060    3.2940    2.0890 O.2   188  SER188     -0.2866
     81  CB         7.2970    5.0680    1.6830 C.3   188  SER188      0.2089
     82  OG         8.6460    5.4930    1.6360 O.3   188  SER188     -0.2183
     83  N          7.2680    2.6860    7.5650 N.3   206  THR206     -0.1203
     84  CA         8.4550    2.9160    6.7260 C.3   206  THR206      0.1994
     85  C          8.5650    4.3620    6.2740 C.2   206  THR206      0.2619
     86  O          7.6450    4.8890    5.6560 O.2   206  THR206     -0.2717
     87  CB         8.4370    2.0150    5.5030 C.3   206  THR206      0.1784
     88  OG1        8.2440    0.6720    5.9480 O.3   206  THR206     -0.2211
     89  CG2        9.7360    2.0970    4.7300 C.3   206  THR206      0.0376
     90  N          9.6900    5.0110    6.5800 N.am  207  SER207     -0.1937
     91  CA         9.8200    6.4320    6.3070 C.3   207  SER207      0.2055
     92  C         10.9470    6.7610    5.3370 C.2   207  SER207      0.2643
     93  O         10.6950    7.4350    4.3480 O.2   207  SER207     -0.2714
     94  CB        10.0300    7.2010    7.6040 C.3   207  SER207      0.2130
     95  OG        10.2120    8.5870    7.3650 O.3   207  SER207     -0.2179
     96  N         12.1910    6.3480    5.6100 N.am  208  PHE208     -0.1959
     97  CA        13.2690    6.6600    4.6720 C.3   208  PHE208      0.1771
     98  C         14.4450    5.7000    4.7090 C.2   208  PHE208      0.2619
     99  O         14.6030    4.9020    5.6300 O.2   208  PHE208     -0.2715
    100  CB        13.7960    8.1160    4.8830 C.3   208  PHE208      0.0574
    101  CG        14.4640    8.4030    6.2400 C.ar  208  PHE208     -0.0200
    102  CD1       13.7260    8.9120    7.3010 C.ar  208  PHE208     -0.0042
    103  CD2       15.8530    8.2980    6.4050 C.ar  208  PHE208     -0.0042
    104  CE1       14.3270    9.2310    8.5080 C.ar  208  PHE208     -0.0003
    105  CE2       16.4550    8.6100    7.6120 C.ar  208  PHE208     -0.0003
    106  CZ        15.7000    9.0930    8.6570 C.ar  208  PHE208     -0.0000
    107  N         15.2300    5.7910    3.6410 N.am  209  VAL209     -0.1977
    108  CA        16.4830    5.0540    3.4570 C.3   209  VAL209      0.1596
    109  C         17.5250    6.0480    2.9550 C.2   209  VAL209      0.2287
    110  O         17.2280    7.2310    2.7420 O.2   209  VAL209     -0.2864
    111  CB        16.3660    3.8720    2.4480 C.3   209  VAL209      0.0276
    112  CG1       15.4280    2.8120    2.9570 C.3   209  VAL209      0.0022
    113  CG2       15.9300    4.3610    1.0410 C.3   209  VAL209      0.0022
@<TRIPOS>BOND
     1     1     2    1
     2    72    70   am
     3     5     2    1
     4     5     6    1
     5     5     7    1
     6     2     3    1
     7    68    69    1
     8    68    65    1
     9    69    70    1
    10    70    71    2
    11    67    66    2
    12    66    65    1
    13    66    73   am
    14    63    62    1
    15    65    64    1
    16     3     4    2
    17    74    73    1
    18    74    75    1
    19    64    60   am
    20    62    59    1
    21    75    76    2
    22    60    59    1
    23    60    61    2
    24    59    58    1
    25    20    21    2
    26    20    19    1
    27    22    19    1
    28    22    23    1
    29    58    56   am
    30    19    18    1
    31    11    10    2
    32   113   111    1
    33    57    56    2
    34    56    55    1
    35    25    23   ar
    36    23    24   ar
    37    15    17   ar
    38    15    13   ar
    39    77    78    1
    40    45    44    1
    41    82    81    1
    42    17    16   ar
    43    81    78    1
    44    10     9    1
    45    46    44    1
    46    80    79    2
    47    78    79    1
    48    55    54    1
    49   111   112    1
    50   111   108    1
    51    13    12    1
    52    13    14   ar
    53    44    41    1
    54   110   109    2
    55     9    12    1
    56     9     8    1
    57    43    42    2
    58   109   108    1
    59    16    14   ar
    60    42    41    1
    61   108   107    1
    62   107    98   am
    63    41    40    1
    64    93    92    2
    65    97    98    1
    66    97   100    1
    67    97    96    1
    68    98    99    2
    69    89    87    1
    70   100   101    1
    71    37    35   ar
    72    37    39   ar
    73    34    35   ar
    74    34    32   ar
    75    92    96   am
    76    92    91    1
    77    52    51    1
    78    87    88    1
    79    87    84    1
    80    35    33   ar
    81    86    85    2
    82    51    53    1
    83    51    48    1
    84    39    38   ar
    85    32    31   ar
    86   101   103   ar
    87   101   102   ar
    88    85    90   am
    89    85    84    1
    90    91    90    1
    91    91    94    1
    92    47    48    1
    93   103   105   ar
    94    84    83    1
    95    48    49    1
    96    33    31   ar
    97    33    36   ar
    98    38    36   ar
    99   102   104   ar
   100    31    30    1
   101    95    94    1
   102   105   106   ar
   103    49    50    2
   104    29    28    2
   105   104   106   ar
   106    28    27    1
   107    30    27    1
   108    27    26    1
