@<TRIPOS>MOLECULE
tmp/4ymaB00.pdb
 139 132 0 0 0
SMALL
GASTEIGER

@<TRIPOS>ATOM
      1  N         -0.6280  -37.0000  -34.8890 N.3    10  GLU10      -0.1245
      2  CA         0.5920  -36.2080  -34.8960 C.3    10  GLU10       0.1567
      3  C          1.2550  -36.4320  -33.5490 C.2    10  GLU10       0.2260
      4  O          0.6520  -36.1510  -32.5140 O.2    10  GLU10      -0.2867
      5  CB         0.2270  -34.7310  -35.0600 C.3    10  GLU10       0.0388
      6  CG         1.3790  -33.7540  -34.9130 C.3    10  GLU10       0.1160
      7  CD         2.2080  -33.6490  -36.1700 C.2    10  GLU10       0.3649
      8  OE1        2.1490  -32.5870  -36.8270 O.co2  10  GLU10      -0.2457
      9  OE2        2.9140  -34.6270  -36.5000 O.co2  10  GLU10      -0.2457
     10  N         -6.2730  -29.0750  -39.9830 N.3    58  TYR58      -0.1241
     11  CA        -6.5700  -28.4070  -38.7140 C.3    58  TYR58       0.1605
     12  C         -7.8280  -27.5530  -38.7780 C.2    58  TYR58       0.2264
     13  O         -8.7050  -27.6700  -37.9260 O.2    58  TYR58      -0.2867
     14  CB        -5.3830  -27.5570  -38.2490 C.3    58  TYR58       0.0534
     15  CG        -4.2420  -28.3950  -37.7260 C.ar   58  TYR58      -0.0201
     16  CD1       -3.2640  -28.8830  -38.5800 C.ar   58  TYR58      -0.0009
     17  CD2       -4.1610  -28.7230  -36.3790 C.ar   58  TYR58      -0.0009
     18  CE1       -2.2320  -29.6670  -38.1010 C.ar   58  TYR58       0.0417
     19  CE2       -3.1340  -29.5070  -35.8980 C.ar   58  TYR58       0.0417
     20  CZ        -2.1720  -29.9680  -36.7640 C.ar   58  TYR58       0.1957
     21  OH        -1.1540  -30.7470  -36.2800 O.3    58  TYR58      -0.2866
     22  N         -3.5430  -30.0990  -31.0940 N.3    86  PRO86      -0.2102
     23  CA        -2.7050  -28.8950  -31.0990 C.3    86  PRO86       0.1504
     24  C         -3.2710  -27.8840  -32.0970 C.2    86  PRO86       0.2576
     25  O         -2.6980  -27.6070  -33.1540 O.2    86  PRO86      -0.2718
     26  CB        -1.3380  -29.4230  -31.5530 C.3    86  PRO86       0.0282
     27  CG        -1.6380  -30.6650  -32.3300 C.3    86  PRO86       0.0208
     28  CD        -2.8270  -31.2740  -31.6220 C.3    86  PRO86       0.0893
     29  N         -4.4250  -27.3360  -31.7380 N.am   87  LEU87      -0.1966
     30  CA        -5.1680  -26.4490  -32.6120 C.3    87  LEU87       0.1728
     31  C         -5.0280  -25.0420  -32.0550 C.2    87  LEU87       0.2616
     32  O         -5.4910  -24.7510  -30.9560 O.2    87  LEU87      -0.2715
     33  CB        -6.6430  -26.8670  -32.6220 C.3    87  LEU87       0.0311
     34  CG        -7.6410  -26.0830  -33.4770 C.3    87  LEU87       0.0022
     35  CD1       -7.3520  -26.3060  -34.9480 C.3    87  LEU87       0.0001
     36  CD2       -9.0700  -26.4940  -33.1430 C.3    87  LEU87       0.0001
     37  N         -4.3840  -24.1720  -32.8140 N.am   88  THR88      -0.1951
     38  CA        -4.1240  -22.8250  -32.3380 C.3    88  THR88       0.1897
     39  C         -5.3880  -21.9770  -32.2820 C.2    88  THR88       0.2313
     40  O         -6.2140  -21.9950  -33.2060 O.2    88  THR88      -0.2863
     41  CB        -3.0410  -22.1340  -33.1810 C.3    88  THR88       0.1794
     42  OG1       -3.4350  -22.1280  -34.5500 O.3    88  THR88      -0.2208
     43  CG2       -1.7470  -22.9150  -33.0730 C.3    88  THR88       0.0378
     44  N        -10.8270  -18.6110  -36.5090 N.3    93  ARG93      -0.1245
     45  CA       -11.4270  -19.8100  -35.9290 C.3    93  ARG93       0.1563
     46  C        -12.3850  -19.4720  -34.7890 C.2    93  ARG93       0.2260
     47  O        -13.4760  -20.0350  -34.7110 O.2    93  ARG93      -0.2867
     48  CB       -10.3580  -20.7910  -35.4420 C.3    93  ARG93       0.0307
     49  CG        -9.5530  -21.4260  -36.5690 C.3    93  ARG93       0.0489
     50  CD        -8.4520  -22.3340  -36.0120 C.3    93  ARG93       0.2205
     51  NE        -7.6880  -22.9520  -37.1020 N.pl3  93  ARG93      -0.0865
     52  CZ        -6.4470  -23.4170  -36.9790 C.cat  93  ARG93       0.5346
     53  NH1       -5.8170  -23.3510  -35.8150 N.pl3  93  ARG93       0.1354
     54  NH2       -5.8290  -23.9510  -38.0230 N.pl3  93  ARG93       0.1354
     55  N          6.9560  -23.1390  -43.8360 N.3   135  LEU135     -0.1245
     56  CA         5.9410  -23.7900  -44.6830 C.3   135  LEU135      0.1561
     57  C          5.5520  -22.8850  -45.8510 C.2   135  LEU135      0.2260
     58  O          5.4660  -21.6730  -45.6690 O.2   135  LEU135     -0.2867
     59  CB         4.6950  -24.0950  -43.8590 C.3   135  LEU135      0.0270
     60  CG         4.8110  -25.2550  -42.8800 C.3   135  LEU135      0.0019
     61  CD1        3.5740  -25.3230  -42.0030 C.3   135  LEU135      0.0001
     62  CD2        4.9590  -26.5330  -43.6620 C.3   135  LEU135      0.0001
     63  N          2.9000  -22.1290  -47.1480 N.3   137  SER137     -0.1202
     64  CA         1.6850  -21.3610  -46.8870 C.3   137  SER137      0.2020
     65  C          1.2290  -21.6160  -45.4590 C.2   137  SER137      0.2619
     66  O          1.5660  -22.6370  -44.8640 O.2   137  SER137     -0.2717
     67  CB         0.5700  -21.7080  -47.8830 C.3   137  SER137      0.2103
     68  OG        -0.0940  -22.9010  -47.5160 O.3   137  SER137     -0.2182
     69  N          0.4620  -20.6870  -44.9010 N.am  138  GLY138     -0.1942
     70  CA         0.0370  -20.8240  -43.5220 C.3   138  GLY138      0.2014
     71  C          0.3800  -19.6080  -42.6890 C.2   138  GLY138      0.2640
     72  O          0.9700  -18.6440  -43.1910 O.2   138  GLY138     -0.2714
     73  N          0.0210  -19.6570  -41.4080 N.am  139  SER139     -0.1935
     74  CA         0.1360  -18.4890  -40.5470 C.3   139  SER139      0.2055
     75  C          1.5810  -18.0500  -40.3120 C.2   139  SER139      0.2644
     76  O          1.8500  -16.8540  -40.2260 O.2   139  SER139     -0.2714
     77  CB        -0.5760  -18.7110  -39.2020 C.3   139  SER139      0.2130
     78  OG         0.0170  -19.7770  -38.4910 O.3   139  SER139     -0.2179
     79  N          2.5060  -19.0000  -40.2080 N.am  140  THR140     -0.1936
     80  CA         3.9020  -18.6460  -39.9550 C.3   140  THR140      0.2028
     81  C          4.4740  -17.8360  -41.1130 C.2   140  THR140      0.2642
     82  O          5.0760  -16.7790  -40.9020 O.2   140  THR140     -0.2714
     83  CB         4.7830  -19.8820  -39.6170 C.3   140  THR140      0.1808
     84  OG1        4.3020  -20.4840  -38.4120 O.3   140  THR140     -0.2208
     85  CG2        6.2300  -19.4710  -39.3930 C.3   140  THR140      0.0379
     86  N          4.2440  -18.3100  -42.3330 N.am  141  LYS141     -0.1977
     87  CA         4.6430  -17.5730  -43.5280 C.3   141  LYS141      0.1596
     88  C          4.0280  -16.1760  -43.5340 C.2   141  LYS141      0.2287
     89  O          4.7100  -15.1830  -43.8190 O.2   141  LYS141     -0.2864
     90  CB         4.2420  -18.3410  -44.7860 C.3   141  LYS141      0.0298
     91  CG         4.7350  -17.7120  -46.0800 C.3   141  LYS141      0.0038
     92  CD         4.4650  -18.6240  -47.2670 C.3   141  LYS141      0.0206
     93  CE         4.9150  -17.9950  -48.5720 C.3   141  LYS141      0.1093
     94  NZ         4.4560  -18.7860  -49.7450 N.3   141  LYS141     -0.1314
     95  N          5.6860  -29.7560  -42.4680 N.3   171  THR171     -0.1218
     96  CA         6.6180  -29.6430  -41.3580 C.3   171  THR171      0.1862
     97  C          7.6020  -30.8130  -41.3500 C.2   171  THR171      0.2287
     98  O          8.7770  -30.6530  -41.0210 O.2   171  THR171     -0.2866
     99  CB         5.8620  -29.5730  -40.0220 C.3   171  THR171      0.1770
    100  OG1        4.7960  -28.6210  -40.1330 O.3   171  THR171     -0.2211
    101  CG2        6.7940  -29.1610  -38.8960 C.3   171  THR171      0.0375
    102  N          9.2340  -22.9770  -37.1940 N.3   189  LEU189     -0.1231
    103  CA         8.0920  -23.8270  -36.8930 C.3   189  LEU189      0.1693
    104  C          7.6510  -23.6290  -35.4360 C.2   189  LEU189      0.2591
    105  O          8.3110  -22.9230  -34.6640 O.2   189  LEU189     -0.2718
    106  CB         8.4500  -25.3000  -37.1520 C.3   189  LEU189      0.0284
    107  CG         9.2780  -26.0660  -36.1100 C.3   189  LEU189      0.0019
    108  CD1        9.3650  -27.5530  -36.4640 C.3   189  LEU189      0.0001
    109  CD2       10.6920  -25.4700  -35.8920 C.3   189  LEU189      0.0001
    110  N          6.5260  -24.2300  -35.0780 N.am  190  GLU190     -0.1979
    111  CA         5.9950  -24.1240  -33.7170 C.3   190  GLU190      0.1602
    112  C          6.9940  -24.6370  -32.6750 C.2   190  GLU190      0.2287
    113  O          7.6030  -25.6910  -32.8620 O.2   190  GLU190     -0.2864
    114  CB         4.6800  -24.8990  -33.5960 C.3   190  GLU190      0.0415
    115  CG         3.5370  -24.3360  -34.4320 C.3   190  GLU190      0.1163
    116  CD         2.1850  -25.0010  -34.1340 C.2   190  GLU190      0.3649
    117  OE1        2.1740  -26.1100  -33.5540 O.co2 190  GLU190     -0.2457
    118  OE2        1.1420  -24.3960  -34.4740 O.co2 190  GLU190     -0.2457
    119  N          1.2320  -17.6870  -28.8510 N.3   215  LYS215     -0.1245
    120  CA        -0.1360  -18.1320  -29.0530 C.3   215  LYS215      0.1561
    121  C         -0.3740  -19.3630  -28.1930 C.2   215  LYS215      0.2260
    122  O          0.5160  -19.7990  -27.4490 O.2   215  LYS215     -0.2867
    123  CB        -0.3540  -18.4600  -30.5220 C.3   215  LYS215      0.0271
    124  CG         0.4850  -19.6120  -30.9870 C.3   215  LYS215      0.0035
    125  CD         0.7390  -19.5380  -32.4880 C.3   215  LYS215      0.0206
    126  CE         1.4710  -18.2710  -32.8700 C.3   215  LYS215      0.1093
    127  NZ         1.8940  -18.3080  -34.3240 N.3   215  LYS215     -0.1314
    128  N         -2.7210  -23.3620  -27.8200 N.3   217  TYR217     -0.1241
    129  CA        -3.6650  -24.3620  -28.2990 C.3   217  TYR217      0.1605
    130  C         -4.8950  -24.3180  -27.4050 C.2   217  TYR217      0.2264
    131  O         -4.7750  -24.1560  -26.1960 O.2   217  TYR217     -0.2867
    132  CB        -3.0790  -25.7570  -28.1800 C.3   217  TYR217      0.0534
    133  CG        -1.8340  -26.0380  -29.0000 C.ar  217  TYR217     -0.0201
    134  CD1       -1.6470  -25.4770  -30.2650 C.ar  217  TYR217     -0.0009
    135  CD2       -0.8610  -26.8950  -28.5050 C.ar  217  TYR217     -0.0009
    136  CE1       -0.5060  -25.7600  -31.0060 C.ar  217  TYR217      0.0417
    137  CE2        0.2720  -27.1770  -29.2180 C.ar  217  TYR217      0.0417
    138  CZ         0.4510  -26.6190  -30.4690 C.ar  217  TYR217      0.1957
    139  OH         1.5990  -26.9420  -31.1590 O.3   217  TYR217     -0.2866
@<TRIPOS>BOND
     1    94    93    1
     2    93    92    1
     3    67    68    1
     4    67    64    1
     5    92    91    1
     6    63    64    1
     7    64    65    1
     8    91    90    1
     9    57    58    2
    10    57    56    1
    11    65    69   am
    12    65    66    2
    13    69    70    1
    14    90    87    1
    15    56    59    1
    16    56    55    1
    17    59    60    1
    18    89    88    2
    19    62    60    1
    20    88    87    1
    21    87    86    1
    22    70    71    1
    23    72    71    2
    24    60    61    1
    25    71    73   am
    26    95    96    1
    27    86    81   am
    28    73    74    1
    29    96    97    1
    30    96    99    1
    31    97    98    2
    32    81    82    2
    33    81    80    1
    34    74    75    1
    35    74    77    1
    36    75    76    2
    37    75    79   am
    38    79    80    1
    39   100    99    1
    40    99   101    1
    41    10    11    1
    42    80    83    1
    43    83    85    1
    44    83    84    1
    45    77    78    1
    46    12    11    1
    47    12    13    2
    48    11    14    1
    49    16    18   ar
    50    16    15   ar
    51    14    15    1
    52    18    20   ar
    53    54    52    1
    54    15    17   ar
    55   102   103    1
    56   106   103    1
    57   106   107    1
    58    51    52    2
    59    51    50    1
    60    52    53    1
    61   103   104    1
    62     8     7   ar
    63    20    21    1
    64    20    19   ar
    65    49    50    1
    66    49    48    1
    67    44    45    1
    68     9     7   ar
    69   108   107    1
    70    17    19   ar
    71     7     6    1
    72   107   109    1
    73    45    48    1
    74    45    46    1
    75   104   110   am
    76   104   105    2
    77   110   111    1
    78     5     6    1
    79     5     2    1
    80    35    34    1
    81     2     1    1
    82     2     3    1
    83    46    47    2
    84    42    41    1
    85   118   116   ar
    86   115   116    1
    87   115   114    1
    88   127   126    1
    89   116   117   ar
    90   111   114    1
    91   111   112    1
    92     3     4    2
    93    34    36    1
    94    34    33    1
    95    40    39    2
    96    41    43    1
    97    41    38    1
    98    25    24    2
    99   126   125    1
   100   113   112    2
   101    37    38    1
   102    37    31   am
   103    33    30    1
   104    30    31    1
   105    30    29    1
   106   125   124    1
   107    38    39    1
   108    27    28    1
   109    27    26    1
   110    24    29   am
   111    24    23    1
   112    31    32    2
   113    28    22    1
   114    26    23    1
   115   139   138    1
   116    23    22    1
   117   136   138   ar
   118   136   134   ar
   119   124   123    1
   120   123   120    1
   121   138   137   ar
   122   134   133   ar
   123   137   135   ar
   124   120   119    1
   125   120   121    1
   126   133   135   ar
   127   133   132    1
   128   129   132    1
   129   129   128    1
   130   129   130    1
   131   121   122    2
   132   130   131    2
