@<TRIPOS>MOLECULE
tmp/4ymbA00.pdb
 156 149 0 0 0
SMALL
GASTEIGER

@<TRIPOS>ATOM
      1  N         -5.4780   31.7150  -18.6510 N.3    10  GLU10      -0.1231
      2  CA        -4.1920   31.6740  -17.9670 C.3    10  GLU10       0.1699
      3  C         -4.0220   30.3480  -17.2520 C.2    10  GLU10       0.2592
      4  O         -4.7300   30.0400  -16.2970 O.2    10  GLU10      -0.2718
      5  CB        -4.0670   32.8210  -16.9610 C.3    10  GLU10       0.0402
      6  CG        -2.6480   33.0460  -16.4670 C.3    10  GLU10       0.1161
      7  CD        -1.8020   33.7770  -17.4900 C.2    10  GLU10       0.3649
      8  OE1       -1.9260   35.0210  -17.6000 O.co2  10  GLU10      -0.2457
      9  OE2       -1.0410   33.1020  -18.2130 O.co2  10  GLU10      -0.2457
     10  N         -3.0500   29.5820  -17.7010 N.am   11  GLU11      -0.1979
     11  CA        -2.8040   28.2740  -17.1420 C.3    11  GLU11       0.1602
     12  C         -2.1090   28.4300  -15.7780 C.2    11  GLU11       0.2287
     13  O         -1.1940   29.2270  -15.6500 O.2    11  GLU11      -0.2864
     14  CB        -1.9540   27.4600  -18.1310 C.3    11  GLU11       0.0415
     15  CG        -1.5860   26.0900  -17.6430 C.3    11  GLU11       0.1163
     16  CD        -0.8350   25.2760  -18.6920 C.2    11  GLU11       0.3649
     17  OE1       -0.2960   24.2220  -18.3240 O.co2  11  GLU11      -0.2457
     18  OE2       -0.7640   25.6970  -19.8670 O.co2  11  GLU11      -0.2457
     19  N         -5.0280   28.5310  -14.0320 N.3    13  TYR13      -0.1241
     20  CA        -6.1650   29.1560  -13.3640 C.3    13  TYR13       0.1605
     21  C         -7.4640   29.0000  -14.1650 C.2    13  TYR13       0.2264
     22  O         -8.5170   28.6860  -13.6170 O.2    13  TYR13      -0.2867
     23  CB        -5.8850   30.6530  -13.1400 C.3    13  TYR13       0.0534
     24  CG        -4.5790   30.9260  -12.4240 C.ar   13  TYR13      -0.0201
     25  CD1       -4.5230   30.9530  -11.0390 C.ar   13  TYR13      -0.0009
     26  CD2       -3.4120   31.1490  -13.1280 C.ar   13  TYR13      -0.0009
     27  CE1       -3.3530   31.2090  -10.3820 C.ar   13  TYR13       0.0417
     28  CE2       -2.2340   31.4090  -12.4800 C.ar   13  TYR13       0.0417
     29  CZ        -2.2120   31.4360  -11.1000 C.ar   13  TYR13       0.1957
     30  OH        -1.0310   31.6950  -10.4200 O.3    13  TYR13      -0.2866
     31  N         -5.1040   42.0730  -17.5140 N.3    58  TYR58      -0.1241
     32  CA        -5.4230   42.0090  -16.1040 C.3    58  TYR58       0.1605
     33  C         -6.0260   43.3420  -15.6560 C.2    58  TYR58       0.2264
     34  O         -7.1640   43.3980  -15.1960 O.2    58  TYR58      -0.2867
     35  CB        -4.1700   41.6330  -15.3060 C.3    58  TYR58       0.0534
     36  CG        -3.8880   40.1460  -15.4010 C.ar   58  TYR58      -0.0201
     37  CD1       -4.5300   39.2410  -14.5600 C.ar   58  TYR58      -0.0009
     38  CD2       -3.0030   39.6370  -16.3430 C.ar   58  TYR58      -0.0009
     39  CE1       -4.2920   37.8700  -14.6560 C.ar   58  TYR58       0.0417
     40  CE2       -2.7650   38.2590  -16.4400 C.ar   58  TYR58       0.0417
     41  CZ        -3.4250   37.4020  -15.6020 C.ar   58  TYR58       0.1957
     42  OH        -3.1870   36.0630  -15.6790 O.3    58  TYR58      -0.2866
     43  N         -6.2300   35.2480  -11.2000 N.3    85  PRO85      -0.2102
     44  CA        -5.0640   35.5350  -10.3530 C.3    85  PRO85       0.1504
     45  C         -4.7080   37.0210  -10.4120 C.2    85  PRO85       0.2576
     46  O         -3.6400   37.4200  -10.8840 O.2    85  PRO85      -0.2718
     47  CB        -3.9790   34.6570  -10.9590 C.3    85  PRO85       0.0282
     48  CG        -4.3440   34.5710  -12.3870 C.3    85  PRO85       0.0208
     49  CD        -5.8420   34.5260  -12.4230 C.3    85  PRO85       0.0893
     50  N         -5.6250   37.8320   -9.9040 N.am   86  LEU86      -0.1966
     51  CA        -5.5030   39.2760   -9.9690 C.3    86  LEU86       0.1728
     52  C         -4.7380   39.8150   -8.7550 C.2    86  LEU86       0.2616
     53  O         -5.2430   39.8090   -7.6270 O.2    86  LEU86      -0.2715
     54  CB        -6.8950   39.9040  -10.0780 C.3    86  LEU86       0.0311
     55  CG        -6.9380   41.4020  -10.3880 C.3    86  LEU86       0.0022
     56  CD1       -6.3970   41.6930  -11.7460 C.3    86  LEU86       0.0001
     57  CD2       -8.3620   41.9070  -10.2870 C.3    86  LEU86       0.0001
     58  N         -3.5200   40.2820   -9.0040 N.am   87  THR87      -0.1951
     59  CA        -2.6340   40.7100   -7.9190 C.3    87  THR87       0.1897
     60  C         -3.2170   41.9320   -7.2400 C.2    87  THR87       0.2313
     61  O         -3.5750   42.9150   -7.8980 O.2    87  THR87      -0.2863
     62  CB        -1.2140   41.0390   -8.4330 C.3    87  THR87       0.1794
     63  OG1       -0.6920   39.9250   -9.1570 O.3    87  THR87      -0.2208
     64  CG2       -0.2640   41.4120   -7.2970 C.3    87  THR87       0.0378
     65  N         -4.5610   49.2400   -7.9590 N.3    92  ARG92      -0.1245
     66  CA        -5.8140   48.5770   -8.2930 C.3    92  ARG92       0.1563
     67  C         -6.8210   48.6660   -7.1560 C.2    92  ARG92       0.2260
     68  O         -8.0160   48.8350   -7.4140 O.2    92  ARG92      -0.2867
     69  CB        -5.5770   47.1080   -8.6580 C.3    92  ARG92       0.0307
     70  CG        -4.8010   46.9100   -9.9770 C.3    92  ARG92       0.0489
     71  CD        -4.5420   45.4410  -10.2220 C.3    92  ARG92       0.2205
     72  NE        -3.8490   45.1600  -11.4730 N.pl3  92  ARG92      -0.0865
     73  CZ        -3.2550   44.0000  -11.7580 C.cat  92  ARG92       0.5346
     74  NH1       -3.2430   43.0150  -10.8620 N.pl3  92  ARG92       0.1354
     75  NH2       -2.6530   43.8260  -12.9370 N.pl3  92  ARG92       0.1354
     76  N          9.1470   41.0520  -16.5610 N.3   134  VAL134     -0.1245
     77  CA         8.1450   41.4520  -17.5360 C.3   134  VAL134      0.1561
     78  C          7.9760   42.9630  -17.4940 C.2   134  VAL134      0.2260
     79  O          7.7740   43.5370  -16.4280 O.2   134  VAL134     -0.2867
     80  CB         6.8080   40.7660  -17.2680 C.3   134  VAL134      0.0252
     81  CG1        5.6850   41.4130  -18.1120 C.3   134  VAL134      0.0019
     82  CG2        6.9490   39.2790  -17.5360 C.3   134  VAL134      0.0019
     83  N          4.9180   45.1340  -15.5070 N.3   137  GLY137     -0.1210
     84  CA         4.1420   44.2690  -14.6280 C.3   137  GLY137      0.1956
     85  C          4.4610   44.5340  -13.1710 C.2   137  GLY137      0.2613
     86  O          5.2040   45.4750  -12.8540 O.2   137  GLY137     -0.2717
     87  N          3.9000   43.6970  -12.2990 N.am  138  SER138     -0.1938
     88  CA         4.0270   43.8550  -10.8580 C.3   138  SER138      0.2055
     89  C          5.4710   43.7470  -10.3990 C.2   138  SER138      0.2643
     90  O          5.9160   44.5130   -9.5460 O.2   138  SER138     -0.2714
     91  CB         3.1690   42.8060  -10.1280 C.3   138  SER138      0.2130
     92  OG         3.7520   41.5030  -10.1650 O.3   138  SER138     -0.2179
     93  N          6.2100   42.7950  -10.9580 N.am  139  THR139     -0.1950
     94  CA         7.6050   42.6350  -10.5740 C.3   139  THR139      0.1897
     95  C          8.3870   43.8940  -10.8990 C.2   139  THR139      0.2313
     96  O          9.1170   44.4200  -10.0470 O.2   139  THR139     -0.2863
     97  CB         8.2280   41.4240  -11.2660 C.3   139  THR139      0.1794
     98  OG1        7.4760   40.2700  -10.8930 O.3   139  THR139     -0.2208
     99  CG2        9.6810   41.2340  -10.8310 C.3   139  THR139      0.0378
    100  N          6.1820   39.4860  -21.7180 N.3   169  ASN169     -0.1225
    101  CA         5.2500   38.8240  -20.8040 C.3   169  ASN169      0.1785
    102  C          5.8660   37.5680  -20.2000 C.2   169  ASN169      0.2597
    103  O          6.9880   37.2030  -20.5440 O.2   169  ASN169     -0.2718
    104  CB         3.9310   38.4740  -21.5220 C.3   169  ASN169      0.1169
    105  CG         4.1420   37.5710  -22.7270 C.2   169  ASN169      0.2627
    106  OD1        5.0630   36.7530  -22.7550 O.2   169  ASN169     -0.2716
    107  ND2        3.3010   37.7390  -23.7440 N.am  169  ASN169     -0.0877
    108  N          5.1300   36.8960  -19.3160 N.am  170  SER170     -0.1952
    109  CA         5.6820   35.7640  -18.5700 C.3   170  SER170      0.1924
    110  C          6.0880   34.6120  -19.4780 C.2   170  SER170      0.2314
    111  O          7.1720   34.0420  -19.3090 O.2   170  SER170     -0.2863
    112  CB         4.6720   35.2620  -17.5280 C.3   170  SER170      0.2116
    113  OG         4.4410   36.2510  -16.5240 O.3   170  SER170     -0.2180
    114  N         12.9460   37.4130  -13.0230 N.3   185  LEU185     -0.1231
    115  CA        12.2590   37.7790  -11.7830 C.3   185  LEU185      0.1693
    116  C         10.7690   37.9000  -12.0660 C.2   185  LEU185      0.2592
    117  O         10.3800   38.6700  -12.9460 O.2   185  LEU185     -0.2718
    118  CB        12.7660   39.1150  -11.2240 C.3   185  LEU185      0.0284
    119  CG        14.1170   39.2320  -10.5070 C.3   185  LEU185      0.0019
    120  CD1       14.0700   38.6050   -9.1180 C.3   185  LEU185      0.0001
    121  CD2       15.2420   38.6430  -11.3340 C.3   185  LEU185      0.0001
    122  N          9.9450   37.1710  -11.3130 N.am  186  MET186     -0.1965
    123  CA         8.4950   37.1470  -11.5360 C.3   186  MET186      0.1736
    124  C          7.7120   36.5970  -10.3340 C.2   186  MET186      0.2616
    125  O          8.3030   36.1420   -9.3600 O.2   186  MET186     -0.2715
    126  CB         8.1660   36.2860  -12.7470 C.3   186  MET186      0.0427
    127  CG         8.2840   34.7830  -12.4210 C.3   186  MET186      0.0599
    128  SD         8.4260   33.7180  -13.8630 S.3   186  MET186     -0.1393
    129  CE         7.0550   34.3580  -14.8250 C.3   186  MET186      0.0692
    130  N          6.3800   36.6210  -10.4340 N.am  187  GLU187     -0.1977
    131  CA         5.5120   36.1270   -9.3570 C.3   187  GLU187      0.1602
    132  C          5.7660   34.6490   -9.1180 C.2   187  GLU187      0.2287
    133  O          5.8510   33.8590  -10.0600 O.2   187  GLU187     -0.2864
    134  CB         4.0260   36.4050   -9.6760 C.3   187  GLU187      0.0415
    135  CG         3.7020   37.8980   -9.5780 C.3   187  GLU187      0.1163
    136  CD         2.2400   38.2550   -9.7920 C.2   187  GLU187      0.3649
    137  OE1        1.4290   37.3460  -10.1020 O.co2 187  GLU187     -0.2457
    138  OE2        1.9240   39.4630   -9.6370 O.co2 187  GLU187     -0.2457
    139  N          3.8360   31.5670  -10.7020 N.3   190  SER190     -0.1217
    140  CA         4.2860   31.2210  -12.0500 C.3   190  SER190      0.1889
    141  C          5.5510   30.3660  -12.0420 C.2   190  SER190      0.2288
    142  O          5.6840   29.3890  -12.8100 O.2   190  SER190     -0.2866
    143  CB         4.5400   32.4870  -12.8450 C.3   190  SER190      0.2089
    144  OG         3.3240   33.1060  -13.1800 O.3   190  SER190     -0.2183
    145  N         -3.3860   37.4110   -4.3440 N.3   213  TYR213     -0.1241
    146  CA        -4.4020   37.4100   -5.3820 C.3   213  TYR213      0.1605
    147  C         -5.7430   37.5120   -4.6970 C.2   213  TYR213      0.2264
    148  O         -5.9730   36.8120   -3.7250 O.2   213  TYR213     -0.2867
    149  CB        -4.3980   36.1170   -6.2110 C.3   213  TYR213      0.0534
    150  CG        -3.1780   35.8600   -7.0670 C.ar  213  TYR213     -0.0201
    151  CD1       -2.2920   36.8760   -7.4130 C.ar  213  TYR213     -0.0009
    152  CD2       -2.9290   34.5730   -7.5570 C.ar  213  TYR213     -0.0009
    153  CE1       -1.1650   36.6020   -8.2230 C.ar  213  TYR213      0.0417
    154  CE2       -1.8300   34.3080   -8.3630 C.ar  213  TYR213      0.0417
    155  CZ        -0.9640   35.3270   -8.6960 C.ar  213  TYR213      0.1957
    156  OH         0.1290   35.0470   -9.4920 O.3   213  TYR213     -0.2866
@<TRIPOS>BOND
     1   107   105   am
     2   106   105    2
     3   105   104    1
     4   100   101    1
     5   104   101    1
     6   101   102    1
     7   103   102    2
     8   102   108   am
     9    18    16   ar
    10   110   111    2
    11   110   109    1
    12   108   109    1
    13    16    17   ar
    14    16    15    1
    15     1     2    1
    16   109   112    1
    17     9     7   ar
    18    14    15    1
    19    14    11    1
    20    81    80    1
    21     2     3    1
    22     2     5    1
    23    10     3   am
    24    10    11    1
    25     8     7   ar
    26    82    80    1
    27    77    78    1
    28    77    80    1
    29    77    76    1
    30   112   113    1
    31    31    32    1
    32    78    79    2
    33     7     6    1
    34     3     4    2
    35    11    12    1
    36     5     6    1
    37    40    38   ar
    38    40    41   ar
    39    38    36   ar
    40    32    33    1
    41    32    35    1
    42    12    13    2
    43    42    41    1
    44    33    34    2
    45    41    39   ar
    46    83    84    1
    47    36    35    1
    48    36    37   ar
    49   129   128    1
    50    39    37   ar
    51    84    85    1
    52    21    22    2
    53    21    20    1
    54    19    20    1
    55   128   127    1
    56    20    23    1
    57   144   143    1
    58    85    86    2
    59    85    87   am
    60    23    24    1
    61    26    28   ar
    62    26    24   ar
    63   114   115    1
    64   117   116    2
    65    75    73    1
    66   143   140    1
    67   142   141    2
    68   126   127    1
    69   126   123    1
    70    28    29   ar
    71    24    25   ar
    72    49    48    1
    73    49    43    1
    74    48    47    1
    75    87    88    1
    76   116   115    1
    77   116   122   am
    78   140   141    1
    79   140   139    1
    80   115   118    1
    81    73    72    2
    82    73    74    1
    83    56    55    1
    84   123   122    1
    85   123   124    1
    86    72    71    1
    87   121   119    1
    88    97    98    1
    89    97    99    1
    90    97    94    1
    91   118   119    1
    92    43    44    1
    93    29    30    1
    94    29    27   ar
    95    25    27   ar
    96    47    44    1
    97    93    94    1
    98    93    89   am
    99    95    94    1
   100    95    96    2
   101    46    45    2
   102    88    89    1
   103    88    91    1
   104   119   120    1
   105   130   124   am
   106   130   131    1
   107    45    44    1
   108    45    50   am
   109    89    90    2
   110    55    57    1
   111    55    54    1
   112   124   125    2
   113    71    70    1
   114    92    91    1
   115   137   136   ar
   116    54    51    1
   117   133   132    2
   118    70    69    1
   119    51    50    1
   120    51    52    1
   121   136   138   ar
   122   136   135    1
   123   134   135    1
   124   134   131    1
   125   156   155    1
   126   131   132    1
   127    63    62    1
   128    58    52   am
   129    58    59    1
   130    52    53    2
   131   155   154   ar
   132   155   153   ar
   133    69    66    1
   134    62    59    1
   135    62    64    1
   136   154   152   ar
   137    66    65    1
   138    66    67    1
   139   153   151   ar
   140    59    60    1
   141    61    60    2
   142   152   150   ar
   143    68    67    2
   144   151   150   ar
   145   150   149    1
   146   149   146    1
   147   146   147    1
   148   146   145    1
   149   147   148    2
