@<TRIPOS>MOLECULE
tmp/4ymdC01.pdb
 86 80 0 0 0
SMALL
GASTEIGER

@<TRIPOS>ATOM
      1  N         21.9750  -14.6620   18.9030 N.3   114  ARG114     -0.1245
      2  CA        21.5290  -14.7430   17.5200 C.3   114  ARG114      0.1563
      3  C         22.2750  -13.6850   16.7200 C.2   114  ARG114      0.2260
      4  O         22.9090  -12.7950   17.2930 O.2   114  ARG114     -0.2867
      5  CB        20.0220  -14.5300   17.3730 C.3   114  ARG114      0.0307
      6  CG        19.1330  -15.5690   18.0220 C.3   114  ARG114      0.0489
      7  CD        17.6880  -15.2780   17.6540 C.3   114  ARG114      0.2205
      8  NE        17.3650  -13.8630   17.8010 N.pl3 114  ARG114     -0.0865
      9  CZ        16.1800  -13.3380   17.5130 C.cat 114  ARG114      0.5346
     10  NH1       15.2070  -14.1150   17.0580 N.pl3 114  ARG114      0.1354
     11  NH2       15.9680  -12.0390   17.6770 N.pl3 114  ARG114      0.1354
     12  N         22.7810   -9.7780   17.6630 N.3   117  GLU117     -0.1245
     13  CA        22.5650   -9.6030   19.0970 C.3   117  GLU117      0.1567
     14  C         23.8670   -9.6960   19.8990 C.2   117  GLU117      0.2260
     15  O         24.8030  -10.3800   19.4840 O.2   117  GLU117     -0.2867
     16  CB        21.5590  -10.6420   19.6030 C.3   117  GLU117      0.0388
     17  CG        20.2620  -10.7000   18.8060 C.3   117  GLU117      0.1160
     18  CD        19.4510   -9.4160   18.8760 C.2   117  GLU117      0.3649
     19  OE1       19.7780   -8.5260   19.6930 O.co2 117  GLU117     -0.2457
     20  OE2       18.4680   -9.2990   18.1140 O.co2 117  GLU117     -0.2457
     21  N         21.7430   -6.1500   20.9290 N.3   119  ASN119     -0.1240
     22  CA        21.6850   -4.8500   20.2760 C.3   119  ASN119      0.1653
     23  C         21.1150   -3.7120   21.1230 C.2   119  ASN119      0.2266
     24  O         20.9520   -2.6000   20.6210 O.2   119  ASN119     -0.2867
     25  CB        20.8810   -4.9750   18.9770 C.3   119  ASN119      0.1155
     26  CG        19.3940   -5.1770   19.2180 C.2   119  ASN119      0.2627
     27  OD1       18.9570   -5.4180   20.3420 O.2   119  ASN119     -0.2716
     28  ND2       18.6070   -5.0760   18.1530 N.am  119  ASN119     -0.0877
     29  N         18.3240   -2.7250   21.9600 N.3   121  ALA121     -0.1231
     30  CA        17.3250   -2.0120   21.1690 C.3   121  ALA121      0.1694
     31  C         16.6420   -0.8830   21.9300 C.2   121  ALA121      0.2592
     32  O         16.0740   -1.0940   23.0020 O.2   121  ALA121     -0.2718
     33  CB        16.2830   -2.9910   20.6470 C.3   121  ALA121      0.0304
     34  N         16.7170    0.3140   21.3540 N.am  122  TYR122     -0.1976
     35  CA        16.1250    1.5230   21.9200 C.3   122  TYR122      0.1639
     36  C         16.6090    1.8220   23.3370 C.2   122  TYR122      0.2290
     37  O         15.8960    2.4430   24.1260 O.2   122  TYR122     -0.2864
     38  CB        14.6010    1.4070   21.8750 C.3   122  TYR122      0.0560
     39  CG        14.1160    1.0410   20.4920 C.ar  122  TYR122     -0.0198
     40  CD1       14.0450    1.9960   19.4860 C.ar  122  TYR122     -0.0009
     41  CD2       13.7680   -0.2670   20.1800 C.ar  122  TYR122     -0.0009
     42  CE1       13.6220    1.6640   18.2140 C.ar  122  TYR122      0.0417
     43  CE2       13.3430   -0.6080   18.9110 C.ar  122  TYR122      0.0417
     44  CZ        13.2730    0.3610   17.9310 C.ar  122  TYR122      0.1957
     45  OH        12.8520    0.0290   16.6650 O.3   122  TYR122     -0.2866
     46  N         16.9980   -2.5650   26.6430 N.3   125  GLU125     -0.1245
     47  CA        17.0850   -4.0180   26.6900 C.3   125  GLU125      0.1567
     48  C         18.2590   -4.4790   27.5310 C.2   125  GLU125      0.2260
     49  O         19.3920   -4.5380   27.0550 O.2   125  GLU125     -0.2867
     50  CB        17.1900   -4.5940   25.2840 C.3   125  GLU125      0.0388
     51  CG        15.9500   -4.3480   24.4670 C.3   125  GLU125      0.1160
     52  CD        15.8790   -5.2180   23.2420 C.2   125  GLU125      0.3649
     53  OE1       16.9440   -5.6070   22.7170 O.co2 125  GLU125     -0.2457
     54  OE2       14.7480   -5.5070   22.8060 O.co2 125  GLU125     -0.2457
     55  N         16.5760  -13.3140   26.8070 N.3   129  GLU129     -0.1245
     56  CA        15.6680  -14.4110   26.5070 C.3   129  GLU129      0.1567
     57  C         16.3750  -15.4860   25.6860 C.2   129  GLU129      0.2260
     58  O         17.3050  -15.1960   24.9240 O.2   129  GLU129     -0.2867
     59  CB        14.4370  -13.9130   25.7400 C.3   129  GLU129      0.0388
     60  CG        14.7490  -13.3980   24.3380 C.3   129  GLU129      0.1160
     61  CD        13.5050  -13.0820   23.5260 C.2   129  GLU129      0.3649
     62  OE1       12.3940  -13.1220   24.0940 O.co2 129  GLU129     -0.2457
     63  OE2       13.6400  -12.7950   22.3170 O.co2 129  GLU129     -0.2457
     64  N         18.8160  -13.5820   22.9770 N.3   137  ASN137     -0.1225
     65  CA        18.5170  -12.2290   22.5290 C.3   137  ASN137      0.1785
     66  C         18.2190  -11.3150   23.7100 C.2   137  ASN137      0.2597
     67  O         17.4500  -11.6780   24.5950 O.2   137  ASN137     -0.2718
     68  CB        17.3430  -12.2450   21.5470 C.3   137  ASN137      0.1169
     69  CG        16.7820  -10.8650   21.2820 C.2   137  ASN137      0.2627
     70  OD1       17.5260   -9.9020   21.1050 O.2   137  ASN137     -0.2716
     71  ND2       15.4590  -10.7640   21.2340 N.am  137  ASN137     -0.0877
     72  N         18.8200  -10.1290   23.7310 N.am  138  ASP138     -0.1960
     73  CA        18.5080   -9.1850   24.7950 C.3   138  ASP138      0.1840
     74  C         17.1610   -8.5090   24.5490 C.2   138  ASP138      0.2621
     75  O         16.7790   -8.2350   23.4120 O.2   138  ASP138     -0.2715
     76  CB        19.6170   -8.1360   24.9670 C.3   138  ASP138      0.1450
     77  CG        19.9090   -7.3650   23.6970 C.2   138  ASP138      0.3671
     78  OD1       19.5260   -7.8330   22.6070 O.co2 138  ASP138     -0.2456
     79  OD2       20.5110   -6.2750   23.7970 O.co2 138  ASP138     -0.2456
     80  N         16.4500   -8.2550   25.6420 N.am  139  VAL139     -0.1977
     81  CA        15.0890   -7.7430   25.6240 C.3   139  VAL139      0.1596
     82  C         14.8700   -6.8450   26.8330 C.2   139  VAL139      0.2287
     83  O         15.6900   -6.8160   27.7650 O.2   139  VAL139     -0.2864
     84  CB        14.0320   -8.8740   25.6510 C.3   139  VAL139      0.0276
     85  CG1       14.0100   -9.6430   24.3360 C.3   139  VAL139      0.0022
     86  CG2       14.2780   -9.8080   26.8290 C.3   139  VAL139      0.0022
@<TRIPOS>BOND
     1    45    44    1
     2     3     4    2
     3     3     2    1
     4    10     9    1
     5     5     2    1
     6     5     6    1
     7     9    11    1
     8     9     8    2
     9     2     1    1
    10     7     8    1
    11     7     6    1
    12    12    13    1
    13    44    42   ar
    14    44    43   ar
    15    20    18   ar
    16    28    26   am
    17    42    40   ar
    18    17    18    1
    19    17    16    1
    20    18    19   ar
    21    43    41   ar
    22    25    26    1
    23    25    22    1
    24    13    16    1
    25    13    14    1
    26    26    27    2
    27    15    14    2
    28    40    39   ar
    29    41    39   ar
    30    22    21    1
    31    22    23    1
    32    39    38    1
    33    24    23    2
    34    33    30    1
    35    70    69    2
    36    30    31    1
    37    30    29    1
    38    71    69   am
    39    69    68    1
    40    34    35    1
    41    34    31   am
    42    68    65    1
    43    38    35    1
    44    35    36    1
    45    31    32    2
    46    63    61   ar
    47    65    64    1
    48    65    66    1
    49    78    77   ar
    50    53    52   ar
    51    54    52   ar
    52    52    51    1
    53    36    37    2
    54    75    74    2
    55    61    62   ar
    56    61    60    1
    57    77    79   ar
    58    77    76    1
    59    66    72   am
    60    66    67    2
    61    72    73    1
    62    85    84    1
    63    60    59    1
    64    51    50    1
    65    74    73    1
    66    74    80   am
    67    73    76    1
    68    58    57    2
    69    50    47    1
    70    81    80    1
    71    81    84    1
    72    81    82    1
    73    84    86    1
    74    57    56    1
    75    59    56    1
    76    56    55    1
    77    46    47    1
    78    47    48    1
    79    82    83    2
    80    49    48    2
