@<TRIPOS>MOLECULE
tmp/4ymhA00.pdb
 190 187 0 0 0
SMALL
GASTEIGER

@<TRIPOS>ATOM
      1  N         41.4410  271.0230  154.6820 N.3    46  LYS46      -0.1231
      2  CA        40.9200  270.6780  156.0050 C.3    46  LYS46       0.1693
      3  C         39.3950  270.7090  156.0470 C.2    46  LYS46       0.2592
      4  O         38.7750  270.0790  156.9080 O.2    46  LYS46      -0.2718
      5  CB        41.4610  271.6400  157.0680 C.3    46  LYS46       0.0285
      6  CG        42.9640  271.6180  157.2670 C.3    46  LYS46       0.0035
      7  CD        43.3410  272.4900  158.4540 C.3    46  LYS46       0.0206
      8  CE        44.8420  272.5070  158.6800 C.3    46  LYS46       0.1093
      9  NZ        45.1800  273.2080  159.9430 N.3    46  LYS46      -0.1314
     10  N         38.7900  271.4620  155.1300 N.am   47  MET47      -0.1965
     11  CA        37.3370  271.6050  155.1030 C.3    47  MET47       0.1736
     12  C         36.6590  270.3630  154.5230 C.2    47  MET47       0.2617
     13  O         37.2080  269.7050  153.6380 O.2    47  MET47      -0.2715
     14  CB        36.9410  272.8490  154.2970 C.3    47  MET47       0.0427
     15  CG        35.4460  273.0970  154.1980 C.3    47  MET47       0.0599
     16  SD        35.1590  274.7230  153.4840 S.3    47  MET47      -0.1393
     17  CE        36.1280  274.5830  151.9840 C.3    47  MET47       0.0692
     18  N         35.4690  270.0420  155.0290 N.am   48  SER48      -0.1950
     19  CA        34.7000  268.9140  154.5090 C.3    48  SER48       0.1924
     20  C         34.3020  269.1800  153.0560 C.2    48  SER48       0.2314
     21  O         34.3480  270.3220  152.6070 O.2    48  SER48      -0.2863
     22  CB        33.4740  268.6610  155.3890 C.3    48  SER48       0.2116
     23  OG        33.8810  268.3710  156.7240 O.3    48  SER48      -0.2180
     24  N         36.5010  271.5790  166.5020 N.3    72  GLY72      -0.1210
     25  CA        37.2530  271.9300  165.3070 C.3    72  GLY72       0.1956
     26  C         36.3690  272.6820  164.3250 C.2    72  GLY72       0.2612
     27  O         35.6850  272.0800  163.5020 O.2    72  GLY72      -0.2717
     28  N         36.3850  274.0110  164.4040 N.am   73  CYS73      -0.1956
     29  CA        35.4710  274.8300  163.6030 C.3    73  CYS73       0.1843
     30  C         36.0290  275.1490  162.2120 C.2    73  CYS73       0.2625
     31  O         35.2710  275.1950  161.2380 O.2    73  CYS73      -0.2714
     32  CB        35.1510  276.1310  164.3460 C.3    73  CYS73       0.0997
     33  SG        33.8860  277.1540  163.5590 S.3    73  CYS73      -0.0797
     34  N         37.3530  275.3250  162.1310 N.am   74  TYR74      -0.1960
     35  CA        38.0390  275.8540  160.9400 C.3    74  TYR74       0.1771
     36  C         37.3560  277.1250  160.4380 C.2    74  TYR74       0.2620
     37  O         37.3810  278.1410  161.1310 O.2    74  TYR74      -0.2715
     38  CB        38.1100  274.8080  159.8270 C.3    74  TYR74       0.0574
     39  CG        39.0650  275.1840  158.7170 C.ar   74  TYR74      -0.0198
     40  CD1       40.4040  275.4480  158.9910 C.ar   74  TYR74      -0.0009
     41  CD2       38.6340  275.2770  157.3950 C.ar   74  TYR74      -0.0009
     42  CE1       41.2930  275.7960  157.9830 C.ar   74  TYR74       0.0417
     43  CE2       39.5210  275.6330  156.3760 C.ar   74  TYR74       0.0417
     44  CZ        40.8440  275.8830  156.6800 C.ar   74  TYR74       0.1957
     45  OH        41.7240  276.2270  155.6810 O.3    74  TYR74      -0.2866
     46  N         36.7370  277.0800  159.2570 N.am   75  SER75      -0.1950
     47  CA        36.1110  278.2940  158.7080 C.3    75  SER75       0.1924
     48  C         34.5980  278.3760  158.9640 C.2    75  SER75       0.2314
     49  O         33.9420  279.3230  158.5290 O.2    75  SER75      -0.2863
     50  CB        36.3740  278.4060  157.2060 C.3    75  SER75       0.2116
     51  OG        35.4380  277.6390  156.4610 O.3    75  SER75      -0.2180
     52  N         32.2870  275.9370  158.1140 N.3    77  TYR77      -0.1227
     53  CA        31.4850  275.1720  157.1490 C.3    77  TYR77       0.1736
     54  C         30.5950  274.1120  157.7940 C.2    77  TYR77       0.2596
     55  O         29.3900  274.0460  157.5030 O.2    77  TYR77      -0.2718
     56  CB        32.3980  274.5050  156.1130 C.3    77  TYR77       0.0548
     57  CG        31.6860  273.5850  155.1350 C.ar   77  TYR77      -0.0200
     58  CD1       30.8140  274.0960  154.1770 C.ar   77  TYR77      -0.0009
     59  CD2       31.9000  272.2060  155.1600 C.ar   77  TYR77      -0.0009
     60  CE1       30.1690  273.2590  153.2800 C.ar   77  TYR77       0.0417
     61  CE2       31.2540  271.3600  154.2610 C.ar   77  TYR77       0.0417
     62  CZ        30.3910  271.8960  153.3240 C.ar   77  TYR77       0.1957
     63  OH        29.7380  271.0770  152.4190 O.3    77  TYR77      -0.2866
     64  N         31.1660  273.2790  158.6640 N.am   78  SER78      -0.1952
     65  CA        30.3570  272.2170  159.2650 C.3    78  SER78       0.1924
     66  C         29.3890  272.8010  160.2990 C.2    78  SER78       0.2314
     67  O         28.2640  272.3290  160.4110 O.2    78  SER78      -0.2863
     68  CB        31.2240  271.1000  159.8770 C.3    78  SER78       0.2116
     69  OG        32.1570  271.5790  160.8240 O.3    78  SER78      -0.2180
     70  N         33.9890  274.4400  168.9570 N.3    96  LEU96      -0.1231
     71  CA        35.2360  274.7510  169.6520 C.3    96  LEU96       0.1693
     72  C         36.3820  274.9750  168.6760 C.2    96  LEU96       0.2592
     73  O         36.5610  274.1840  167.7500 O.2    96  LEU96      -0.2718
     74  CB        35.6130  273.6230  170.6160 C.3    96  LEU96       0.0284
     75  CG        34.5670  273.1910  171.6380 C.3    96  LEU96       0.0019
     76  CD1       35.1590  272.1340  172.5480 C.3    96  LEU96       0.0001
     77  CD2       34.0840  274.3960  172.4480 C.3    96  LEU96       0.0001
     78  N         37.1760  276.0260  168.8880 N.am   97  GLU97      -0.1966
     79  CA        38.2730  276.3010  167.9550 C.3    97  GLU97       0.1733
     80  C         39.4360  276.9980  168.6500 C.2    97  GLU97       0.2616
     81  O         39.2100  277.8510  169.5060 O.2    97  GLU97      -0.2715
     82  CB        37.7640  277.1550  166.7810 C.3    97  GLU97       0.0429
     83  CG        38.8560  277.6460  165.8350 C.3    97  GLU97       0.1163
     84  CD        39.6020  276.5140  165.1300 C.2    97  GLU97       0.3649
     85  OE1       38.9400  275.6090  164.5680 O.co2  97  GLU97      -0.2457
     86  OE2       40.8590  276.5320  165.1290 O.co2  97  GLU97      -0.2457
     87  N         40.6610  276.7080  168.2670 N.am   98  TYR98      -0.1960
     88  CA        41.8080  277.3690  168.8920 C.3    98  TYR98       0.1771
     89  C         42.6180  278.3150  168.0370 C.2    98  TYR98       0.2620
     90  O         43.3440  279.1010  168.5390 O.2    98  TYR98      -0.2715
     91  CB        42.7280  276.3650  169.5790 C.3    98  TYR98       0.0574
     92  CG        43.7740  275.7390  168.7270 C.ar   98  TYR98      -0.0198
     93  CD1       45.0200  275.4430  169.2440 C.ar   98  TYR98      -0.0009
     94  CD2       43.5210  275.3880  167.4300 C.ar   98  TYR98      -0.0009
     95  CE1       45.9720  274.8180  168.4800 C.ar   98  TYR98       0.0417
     96  CE2       44.4730  274.7850  166.6530 C.ar   98  TYR98       0.0417
     97  CZ        45.6930  274.5010  167.1730 C.ar   98  TYR98       0.1957
     98  OH        46.6590  273.8840  166.4030 O.3    98  TYR98      -0.2866
     99  N         42.4840  278.2300  166.7470 N.am   99  SER99      -0.1950
    100  CA        43.2980  279.0910  165.8820 C.3    99  SER99       0.1924
    101  C         42.7200  280.5000  165.7300 C.2    99  SER99       0.2314
    102  O         41.6200  280.6550  165.2070 O.2    99  SER99      -0.2863
    103  CB        43.4510  278.4600  164.4960 C.3    99  SER99       0.2116
    104  OG        43.8970  279.4190  163.5530 O.3    99  SER99      -0.2180
    105  N         41.4220  281.2870  162.3010 N.3   102  MET102     -0.1245
    106  CA        40.1720  280.6070  161.9340 C.3   102  MET102      0.1570
    107  C         38.9950  281.0990  162.7700 C.2   102  MET102      0.2261
    108  O         37.8710  281.1160  162.2970 O.2   102  MET102     -0.2867
    109  CB        40.3070  279.0850  162.0570 C.3   102  MET102      0.0387
    110  CG        41.3460  278.4810  161.1110 C.3   102  MET102      0.0595
    111  SD        41.5420  279.3530  159.5260 S.3   102  MET102     -0.1393
    112  CE        39.9590  279.0330  158.7220 C.3   102  MET102      0.0692
    113  N         39.7860  278.6040  172.2490 N.3   124  GLY124     -0.1210
    114  CA        40.7920  278.0630  173.1380 C.3   124  GLY124      0.1940
    115  C         41.0530  276.6030  172.8420 C.2   124  GLY124      0.2454
    116  O         40.2800  275.9660  172.1130 O.2   124  GLY124     -0.2732
    117  N         42.1390  276.0630  173.4160 N.am  125  PRO125     -0.2717
    118  CA        42.4620  274.6410  173.2530 C.3   125  PRO125      0.1535
    119  C         41.2780  273.8000  173.6810 C.2   125  PRO125      0.2598
    120  O         40.8670  273.9240  174.8340 O.2   125  PRO125     -0.2715
    121  CB        43.6530  274.4250  174.2020 C.3   125  PRO125      0.0310
    122  CG        44.1600  275.8020  174.5330 C.3   125  PRO125      0.0237
    123  CD        42.9750  276.7110  174.4410 C.3   125  PRO125      0.0939
    124  N         40.7440  272.9730  172.7830 N.am  126  ALA126     -0.1964
    125  CA        39.5390  272.1990  173.0700 C.3   126  ALA126      0.1728
    126  C         39.7260  271.2480  174.2460 C.2   126  ALA126      0.2616
    127  O         38.7580  270.9210  174.9360 O.2   126  ALA126     -0.2715
    128  CB        39.1000  271.4260  171.8460 C.3   126  ALA126      0.0334
    129  N         40.9600  270.8040  174.4670 N.am  127  GLU127     -0.1977
    130  CA        41.2360  269.8700  175.5480 C.3   127  GLU127      0.1602
    131  C         40.8150  270.4670  176.8910 C.2   127  GLU127      0.2287
    132  O         40.2860  269.7580  177.7480 O.2   127  GLU127     -0.2864
    133  CB        42.7140  269.4570  175.5460 C.3   127  GLU127      0.0415
    134  CG        43.7290  270.5940  175.5200 C.3   127  GLU127      0.1163
    135  CD        44.2530  270.9670  174.1230 C.2   127  GLU127      0.3649
    136  OE1       43.5380  270.7810  173.1160 O.co2 127  GLU127     -0.2457
    137  OE2       45.4100  271.4440  174.0400 O.co2 127  GLU127     -0.2457
    138  N         30.2810  266.1830  166.8860 N.3   141  PHE141     -0.1241
    139  CA        31.1300  266.0210  165.7130 C.3   141  PHE141      0.1605
    140  C         32.5810  266.3130  166.0880 C.2   141  PHE141      0.2264
    141  O         32.9100  267.4560  166.3880 O.2   141  PHE141     -0.2867
    142  CB        30.6490  266.9680  164.6010 C.3   141  PHE141      0.0534
    143  CG        31.3680  266.8070  163.2770 C.ar  141  PHE141     -0.0203
    144  CD1       31.4800  265.5590  162.6690 C.ar  141  PHE141     -0.0042
    145  CD2       31.8690  267.9230  162.6130 C.ar  141  PHE141     -0.0042
    146  CE1       32.1160  265.4160  161.4320 C.ar  141  PHE141     -0.0003
    147  CE2       32.5020  267.7990  161.3790 C.ar  141  PHE141     -0.0003
    148  CZ        32.6310  266.5360  160.7890 C.ar  141  PHE141     -0.0000
    149  N         36.2930  266.7430  164.9370 N.3   143  ASP143     -0.1225
    150  CA        37.0000  266.9860  163.6940 C.3   143  ASP143      0.1805
    151  C         38.1990  267.9040  163.9280 C.2   143  ASP143      0.2598
    152  O         38.5160  268.7140  163.0770 O.2   143  ASP143     -0.2718
    153  CB        36.0280  267.5890  162.6670 C.3   143  ASP143      0.1424
    154  CG        36.5740  267.5920  161.2360 C.2   143  ASP143      0.3668
    155  OD1       37.5200  266.8390  160.9270 O.co2 143  ASP143     -0.2456
    156  OD2       36.0500  268.3750  160.4140 O.co2 143  ASP143     -0.2456
    157  N         38.8540  267.7790  165.0820 N.am  144  ALA144     -0.1966
    158  CA        39.9830  268.6610  165.4260 C.3   144  ALA144      0.1728
    159  C         41.3450  267.9630  165.2740 C.2   144  ALA144      0.2616
    160  O         41.5480  267.1920  164.3320 O.2   144  ALA144     -0.2715
    161  CB        39.8180  269.1920  166.8420 C.3   144  ALA144      0.0334
    162  N         42.2720  268.2190  166.1970 N.am  145  ASN145     -0.1958
    163  CA        43.5900  267.5820  166.1230 C.3   145  ASN145      0.1819
    164  C         43.4490  266.0700  166.3220 C.2   145  ASN145      0.2621
    165  O         42.8430  265.6110  167.3000 O.2   145  ASN145     -0.2715
    166  CB        44.5590  268.1810  167.1530 C.3   145  ASN145      0.1195
    167  CG        43.9610  268.2480  168.5390 C.2   145  ASN145      0.2630
    168  OD1       42.8260  268.7000  168.7120 O.2   145  ASN145     -0.2716
    169  ND2       44.7140  267.7830  169.5370 N.am  145  ASN145     -0.0877
    170  N         43.9820  265.2990  165.3760 N.am  146  LYS146     -0.1977
    171  CA        43.7510  263.8590  165.3740 C.3   146  LYS146      0.1596
    172  C         44.3730  263.1970  166.5980 C.2   146  LYS146      0.2287
    173  O         43.8740  262.1650  167.0630 O.2   146  LYS146     -0.2864
    174  CB        44.2830  263.2240  164.0860 C.3   146  LYS146      0.0298
    175  CG        43.8370  263.9300  162.7970 C.3   146  LYS146      0.0038
    176  CD        42.3140  264.0440  162.6680 C.3   146  LYS146      0.0206
    177  CE        41.9640  264.9290  161.4720 C.3   146  LYS146      0.1093
    178  NZ        40.7080  265.7000  161.6970 N.3   146  LYS146     -0.1314
    179  N         39.3590  263.6180  173.8620 N.3   152  TYR152     -0.1241
    180  CA        38.0580  264.2670  173.7410 C.3   152  TYR152      0.1605
    181  C         36.9530  263.2760  174.1060 C.2   152  TYR152      0.2264
    182  O         36.0670  263.5790  174.9310 O.2   152  TYR152     -0.2867
    183  CB        37.8440  264.8090  172.3300 C.3   152  TYR152      0.0534
    184  CG        38.7930  265.9210  171.9570 C.ar  152  TYR152     -0.0201
    185  CD1       39.1720  266.8820  172.8930 C.ar  152  TYR152     -0.0009
    186  CD2       39.3220  266.0110  170.6750 C.ar  152  TYR152     -0.0009
    187  CE1       40.0420  267.9120  172.5620 C.ar  152  TYR152      0.0417
    188  CE2       40.2040  267.0420  170.3320 C.ar  152  TYR152      0.0417
    189  CZ        40.5610  267.9820  171.2840 C.ar  152  TYR152      0.1957
    190  OH        41.4290  269.0100  170.9640 O.3   152  TYR152     -0.2866
@<TRIPOS>BOND
     1    17    16    1
     2    63    62    1
     3    21    20    2
     4    20    19    1
     5    60    62   ar
     6    60    58   ar
     7    62    61   ar
     8    16    15    1
     9    13    12    2
    10    58    57   ar
    11    15    14    1
    12    61    59   ar
    13    14    11    1
    14    19    18    1
    15    19    22    1
    16    12    18   am
    17    12    11    1
    18     1     2    1
    19    11    10    1
    20    10     3   am
    21    57    59   ar
    22    57    56    1
    23    22    23    1
    24    45    44    1
    25     2     3    1
    26     2     5    1
    27     3     4    2
    28    56    53    1
    29    43    44   ar
    30    43    41   ar
    31    51    50    1
    32    44    42   ar
    33     5     6    1
    34    53    54    1
    35    53    52    1
    36    50    47    1
    37     6     7    1
    38    41    39   ar
    39    55    54    2
    40    54    64   am
    41    42    40   ar
    42     7     8    1
    43    49    48    2
    44    64    65    1
    45     8     9    1
    46    47    48    1
    47    47    46    1
    48    39    40   ar
    49    39    38    1
    50   112   111    1
    51    46    36   am
    52    65    68    1
    53    65    66    1
    54   111   110    1
    55    38    35    1
    56    68    69    1
    57    66    67    2
    58   156   154   ar
    59    36    35    1
    60    36    37    2
    61   148   147   ar
    62   148   146   ar
    63   155   154   ar
    64    35    34    1
    65   110   109    1
    66   154   153    1
    67    31    30    2
    68   147   145   ar
    69   146   144   ar
    70   177   178    1
    71   177   176    1
    72   106   109    1
    73   106   105    1
    74   106   107    1
    75    34    30   am
    76    30    29    1
    77   108   107    2
    78   145   143   ar
    79   153   150    1
    80   176   175    1
    81   144   143   ar
    82   175   174    1
    83   152   151    2
    84   143   142    1
    85    27    26    2
    86   104   103    1
    87    33    32    1
    88    29    32    1
    89    29    28    1
    90   150   151    1
    91   150   149    1
    92   151   157   am
    93   174   171    1
    94    26    28   am
    95    26    25    1
    96   160   159    2
    97   103   100    1
    98    85    84   ar
    99   142   139    1
   100   157   158    1
   101    86    84   ar
   102    84    83    1
   103   102   101    2
   104   159   158    1
   105   159   162   am
   106    25    24    1
   107   171   170    1
   108   171   172    1
   109   170   164   am
   110   158   161    1
   111   139   140    1
   112   139   138    1
   113   101   100    1
   114    83    82    1
   115   100    99    1
   116   140   141    2
   117   163   162    1
   118   163   164    1
   119   163   166    1
   120   164   165    2
   121    98    97    1
   122   172   173    2
   123    96    97   ar
   124    96    94   ar
   125    99    89   am
   126    82    79    1
   127   166   167    1
   128    97    95   ar
   129    94    92   ar
   130    73    72    2
   131    79    80    1
   132    79    78    1
   133    89    90    2
   134    89    88    1
   135    87    80   am
   136    87    88    1
   137    95    93   ar
   138   167   168    2
   139   167   169   am
   140    80    81    2
   141    72    78   am
   142    72    71    1
   143    92    93   ar
   144    92    91    1
   145    88    91    1
   146    70    71    1
   147    71    74    1
   148   188   186   ar
   149   188   189   ar
   150    74    75    1
   151   186   184   ar
   152   190   189    1
   153   189   187   ar
   154    75    77    1
   155    75    76    1
   156   128   125    1
   157   184   183    1
   158   184   185   ar
   159   116   115    2
   160   113   114    1
   161   183   180    1
   162   187   185   ar
   163   124   125    1
   164   124   119   am
   165   115   114    1
   166   115   117   am
   167   125   126    1
   168   136   135   ar
   169   118   117    1
   170   118   119    1
   171   118   121    1
   172   117   123    1
   173   119   120    2
   174   180   179    1
   175   180   181    1
   176   137   135   ar
   177   181   182    2
   178   135   134    1
   179   121   122    1
   180   126   129   am
   181   126   127    2
   182   123   122    1
   183   129   130    1
   184   134   133    1
   185   133   130    1
   186   130   131    1
   187   131   132    2
