@<TRIPOS>MOLECULE
tmp/4ymjB00.pdb
 166 158 0 0 0
SMALL
GASTEIGER

@<TRIPOS>ATOM
      1  N         22.7650  -20.3520   36.9870 N.3    18  LEU18      -0.1231
      2  CA        21.3870  -20.2240   36.5080 C.3    18  LEU18       0.1693
      3  C         20.8990  -21.4990   35.8180 C.2    18  LEU18       0.2592
      4  O         19.7030  -21.7840   35.7940 O.2    18  LEU18      -0.2718
      5  CB        21.2550  -19.0390   35.5430 C.3    18  LEU18       0.0284
      6  CG        21.5540  -17.6480   36.1110 C.3    18  LEU18       0.0019
      7  CD1       21.6420  -16.6150   34.9960 C.3    18  LEU18       0.0001
      8  CD2       20.5170  -17.2260   37.1550 C.3    18  LEU18       0.0001
      9  N         21.8240  -22.2630   35.2490 N.am   19  GLY19      -0.1957
     10  CA        21.4500  -23.4840   34.5660 C.3    19  GLY19       0.1869
     11  C         22.6390  -24.2480   34.0290 C.2    19  GLY19       0.2309
     12  O         23.7640  -23.7380   33.9960 O.2    19  GLY19      -0.2863
     13  N         25.4990  -21.9500   32.7380 N.3    26  VAL26      -0.1245
     14  CA        25.2260  -20.5210   32.7160 C.3    26  VAL26       0.1561
     15  C         25.2190  -19.9750   34.1440 C.2    26  VAL26       0.2260
     16  O         24.5590  -20.5280   35.0290 O.2    26  VAL26      -0.2867
     17  CB        23.8870  -20.2120   32.0150 C.3    26  VAL26       0.0252
     18  CG1       23.5710  -18.7250   32.0720 C.3    26  VAL26       0.0019
     19  CG2       23.9470  -20.6840   30.5600 C.3    26  VAL26       0.0019
     20  N         25.0040  -12.3760   32.5460 N.3    44  ALA44      -0.1245
     21  CA        24.8620  -13.8140   32.4550 C.3    44  ALA44       0.1562
     22  C         26.0860  -14.3140   31.7150 C.2    44  ALA44       0.2260
     23  O         26.4590  -13.7880   30.6760 O.2    44  ALA44      -0.2867
     24  CB        23.5790  -14.2030   31.7450 C.3    44  ALA44       0.0290
     25  N         28.0280  -17.6490   30.1210 N.3    46  LYS46      -0.1245
     26  CA        27.9530  -19.0320   29.6830 C.3    46  LYS46       0.1561
     27  C         29.3470  -19.5630   29.4660 C.2    46  LYS46       0.2260
     28  O         30.1160  -18.9890   28.7010 O.2    46  LYS46      -0.2867
     29  CB        27.1490  -19.1810   28.3970 C.3    46  LYS46       0.0271
     30  CG        27.0610  -20.6450   27.9580 C.3    46  LYS46       0.0035
     31  CD        26.2670  -20.8270   26.6800 C.3    46  LYS46       0.0206
     32  CE        27.0690  -20.3930   25.4700 C.3    46  LYS46       0.1093
     33  NZ        26.2780  -20.5240   24.2130 N.3    46  LYS46      -0.1314
     34  N         18.7200  -10.2830   23.0230 N.3    75  VAL75      -0.1245
     35  CA        19.5390  -10.3770   24.2450 C.3    75  VAL75       0.1561
     36  C         20.9610   -9.8770   23.9720 C.2    75  VAL75       0.2260
     37  O         21.6150  -10.3470   23.0390 O.2    75  VAL75      -0.2867
     38  CB        19.6100  -11.8180   24.7760 C.3    75  VAL75       0.0252
     39  CG1       20.6190  -11.9050   25.9370 C.3    75  VAL75       0.0019
     40  CG2       18.2260  -12.2810   25.2300 C.3    75  VAL75       0.0019
     41  N         26.7750  -12.0890   28.5510 N.3    90  PHE90      -0.1227
     42  CA        25.5240  -11.4880   28.0840 C.3    90  PHE90       0.1736
     43  C         24.9320  -10.5970   29.1590 C.2    90  PHE90       0.2595
     44  O         25.2780  -10.7140   30.3350 O.2    90  PHE90      -0.2718
     45  CB        24.4860  -12.5550   27.7400 C.3    90  PHE90       0.0547
     46  CG        24.8620  -13.4270   26.5850 C.ar   90  PHE90      -0.0202
     47  CD1       24.4850  -13.0920   25.2970 C.ar   90  PHE90      -0.0042
     48  CD2       25.5640  -14.5990   26.7930 C.ar   90  PHE90      -0.0042
     49  CE1       24.8140  -13.9070   24.2370 C.ar   90  PHE90      -0.0003
     50  CE2       25.8950  -15.4190   25.7330 C.ar   90  PHE90      -0.0003
     51  CZ        25.5240  -15.0700   24.4610 C.ar   90  PHE90      -0.0000
     52  N         24.0010   -9.7370   28.7780 N.am   91  GLU91      -0.1965
     53  CA        23.2510   -9.0130   29.7900 C.3    91  GLU91       0.1733
     54  C         22.4530  -10.0080   30.6150 C.2    91  GLU91       0.2616
     55  O         22.1950  -11.1360   30.1800 O.2    91  GLU91      -0.2715
     56  CB        22.3130   -7.9880   29.1550 C.3    91  GLU91       0.0429
     57  CG        21.1010   -8.6020   28.5040 C.3    91  GLU91       0.1163
     58  CD        20.2140   -7.5590   27.8240 C.2    91  GLU91       0.3649
     59  OE1       19.8730   -7.7650   26.6480 O.co2  91  GLU91      -0.2457
     60  OE2       19.8880   -6.5360   28.4570 O.co2  91  GLU91      -0.2457
     61  N         22.0610   -9.5820   31.8130 N.am   92  TYR92      -0.1960
     62  CA        21.2040  -10.3870   32.6750 C.3    92  TYR92       0.1771
     63  C         19.7630   -9.8730   32.5890 C.2    92  TYR92       0.2619
     64  O         19.5310   -8.6750   32.6880 O.2    92  TYR92      -0.2715
     65  CB        21.7020  -10.3330   34.1300 C.3    92  TYR92       0.0574
     66  CG        20.8080  -11.0630   35.1170 C.ar   92  TYR92      -0.0198
     67  CD1       20.5720  -12.4260   34.9910 C.ar   92  TYR92      -0.0009
     68  CD2       20.1870  -10.3840   36.1590 C.ar   92  TYR92      -0.0009
     69  CE1       19.7470  -13.0990   35.8830 C.ar   92  TYR92       0.0417
     70  CE2       19.3650  -11.0450   37.0600 C.ar   92  TYR92       0.0417
     71  CZ        19.1540  -12.4000   36.9150 C.ar   92  TYR92       0.1957
     72  OH        18.3420  -13.0650   37.8000 O.3    92  TYR92      -0.2866
     73  N         18.8100  -10.7830   32.3920 N.am   93  MET93      -0.1963
     74  CA        17.3970  -10.4380   32.3020 C.3    93  MET93       0.1736
     75  C         16.6870  -11.0240   33.4890 C.2    93  MET93       0.2616
     76  O         16.4420  -12.2280   33.5420 O.2    93  MET93      -0.2715
     77  CB        16.7820  -10.9740   31.0040 C.3    93  MET93       0.0427
     78  CG        17.5240  -10.5110   29.7750 C.3    93  MET93       0.0599
     79  SD        17.0480   -8.8370   29.3630 S.3    93  MET93      -0.1393
     80  CE        15.4230   -9.1010   28.6410 C.3    93  MET93       0.0692
     81  N         16.3430  -10.1690   34.4420 N.am   94  LYS94      -0.1977
     82  CA        16.0410  -10.6520   35.7750 C.3    94  LYS94       0.1596
     83  C         14.7350  -11.4180   35.8970 C.2    94  LYS94       0.2287
     84  O         14.5450  -12.1110   36.8850 O.2    94  LYS94      -0.2864
     85  CB        16.0390   -9.4910   36.7690 C.3    94  LYS94       0.0298
     86  CG        15.0520   -8.3920   36.4340 C.3    94  LYS94       0.0038
     87  CD        15.0830   -7.3460   37.5290 C.3    94  LYS94       0.0206
     88  CE        14.1680   -6.1820   37.2290 C.3    94  LYS94       0.1093
     89  NZ        14.0040   -5.3330   38.4490 N.3    94  LYS94      -0.1314
     90  N         13.7270  -13.7940   33.7380 N.3    96  GLY96      -0.1210
     91  CA        13.8900  -15.1550   33.2520 C.3    96  GLY96       0.1956
     92  C         13.1860  -15.4420   31.9340 C.2    96  GLY96       0.2611
     93  O         12.7880  -14.5270   31.2230 O.2    96  GLY96      -0.2717
     94  N         13.0220  -16.7170   31.5950 N.am   97  ASP97      -0.1973
     95  CA        12.5070  -17.0190   30.2730 C.3    97  ASP97       0.1709
     96  C         10.9910  -16.7890   30.2460 C.2    97  ASP97       0.2293
     97  O         10.2800  -16.9090   31.2600 O.2    97  ASP97      -0.2864
     98  CB        12.9090  -18.4470   29.8190 C.3    97  ASP97       0.1436
     99  CG        11.9390  -19.5240   30.2570 C.2    97  ASP97       0.3671
    100  OD1       10.7900  -19.5410   29.7690 O.co2  97  ASP97      -0.2456
    101  OD2       12.3430  -20.3910   31.0560 O.co2  97  ASP97      -0.2456
    102  N          8.2290  -19.5250   31.1440 N.3   100  LYS100     -0.1245
    103  CA         8.0640  -19.6050   32.5900 C.3   100  LYS100      0.1561
    104  C          7.2220  -18.4340   33.0550 C.2   100  LYS100      0.2260
    105  O          6.2740  -18.5890   33.8380 O.2   100  LYS100     -0.2867
    106  CB         9.4200  -19.5830   33.2950 C.3   100  LYS100      0.0271
    107  CG         9.8940  -20.8930   33.8670 C.3   100  LYS100      0.0035
    108  CD        10.9290  -20.6290   34.9640 C.3   100  LYS100      0.0206
    109  CE        11.8680  -19.4870   34.5710 C.3   100  LYS100      0.1093
    110  NZ        11.9920  -18.4290   35.6260 N.3   100  LYS100     -0.1314
    111  N         10.1780  -20.0110   25.2580 N.3   142  ARG142     -0.1245
    112  CA        11.2920  -20.4920   26.1190 C.3   142  ARG142      0.1563
    113  C         12.6480  -19.8450   25.7590 C.2   142  ARG142      0.2260
    114  O         13.5680  -19.8170   26.5860 O.2   142  ARG142     -0.2867
    115  CB        11.4480  -22.0110   26.0430 C.3   142  ARG142      0.0307
    116  CG        11.8500  -22.5290   24.6510 C.3   142  ARG142      0.0489
    117  CD        11.8360  -24.0690   24.5580 C.3   142  ARG142      0.2205
    118  NE        11.9960  -24.4220   23.1500 N.pl3 142  ARG142     -0.0865
    119  CZ        10.9930  -24.5840   22.3080 C.cat 142  ARG142      0.5346
    120  NH1        9.7470  -24.5140   22.7520 N.pl3 142  ARG142      0.1354
    121  NH2       11.2310  -24.8490   21.0290 N.pl3 142  ARG142      0.1354
    122  N         13.5660  -13.8290   26.7970 N.3   145  LEU145     -0.1245
    123  CA        13.8100  -13.4640   28.1840 C.3   145  LEU145      0.1561
    124  C         13.0090  -12.2250   28.5260 C.2   145  LEU145      0.2260
    125  O         12.6580  -11.4330   27.6410 O.2   145  LEU145     -0.2867
    126  CB        15.3020  -13.2140   28.4340 C.3   145  LEU145      0.0270
    127  CG        16.2180  -14.4230   28.2620 C.3   145  LEU145      0.0019
    128  CD1       17.6760  -14.0460   28.5070 C.3   145  LEU145      0.0001
    129  CD2       15.7970  -15.5420   29.2140 C.3   145  LEU145      0.0001
    130  N         18.7360  -17.5850   22.1600 N.3   156  ASP156     -0.1225
    131  CA        18.7070  -18.9610   21.6390 C.3   156  ASP156      0.1805
    132  C         19.5510  -19.8150   22.5710 C.2   156  ASP156      0.2598
    133  O         20.7810  -19.7670   22.5290 O.2   156  ASP156     -0.2718
    134  CB        19.2340  -19.0490   20.2020 C.3   156  ASP156      0.1424
    135  CG        19.0280  -20.4390   19.5760 C.2   156  ASP156      0.3668
    136  OD1       18.4110  -21.3050   20.2270 O.co2 156  ASP156     -0.2456
    137  OD2       19.4730  -20.6680   18.4230 O.co2 156  ASP156     -0.2456
    138  N         18.8840  -20.5780   23.4280 N.am  157  PHE157     -0.1962
    139  CA        19.5580  -21.1890   24.5710 C.3   157  PHE157      0.1771
    140  C         19.7000  -22.6880   24.4430 C.2   157  PHE157      0.2620
    141  O         18.7490  -23.3900   24.1100 O.2   157  PHE157     -0.2715
    142  CB        18.8110  -20.8460   25.8560 C.3   157  PHE157      0.0574
    143  CG        18.5520  -19.3800   26.0090 C.ar  157  PHE157     -0.0200
    144  CD1       19.5850  -18.4660   25.8570 C.ar  157  PHE157     -0.0042
    145  CD2       17.2740  -18.9040   26.2630 C.ar  157  PHE157     -0.0042
    146  CE1       19.3530  -17.1070   25.9800 C.ar  157  PHE157     -0.0003
    147  CE2       17.0390  -17.5400   26.3870 C.ar  157  PHE157     -0.0003
    148  CZ        18.0810  -16.6460   26.2440 C.ar  157  PHE157     -0.0000
    149  N         20.9080  -23.1690   24.7100 N.am  158  GLY158     -0.1940
    150  CA        21.1680  -24.5920   24.7440 C.3   158  GLY158      0.2014
    151  C         20.3770  -25.2310   25.8610 C.2   158  GLY158      0.2639
    152  O         19.8470  -26.3270   25.7010 O.2   158  GLY158     -0.2714
    153  N         20.2800  -24.5390   26.9910 N.am  159  MET159     -0.1963
    154  CA        19.6180  -25.0990   28.1660 C.3   159  MET159      0.1736
    155  C         18.0950  -25.1100   28.0330 C.2   159  MET159      0.2617
    156  O         17.3930  -25.6090   28.9090 O.2   159  MET159     -0.2715
    157  CB        20.0260  -24.3330   29.4250 C.3   159  MET159      0.0427
    158  CG        19.6060  -22.8810   29.4740 C.3   159  MET159      0.0599
    159  SD        20.1670  -22.0900   31.0120 S.3   159  MET159     -0.1393
    160  CE        18.6710  -21.8390   31.8530 C.3   159  MET159      0.0692
    161  N         17.5740  -24.5650   26.9400 N.am  160  SER160     -0.1950
    162  CA        16.1400  -24.6440   26.7320 C.3   160  SER160      0.1924
    163  C         15.7980  -26.0350   26.1830 C.2   160  SER160      0.2314
    164  O         14.6980  -26.5330   26.4020 O.2   160  SER160     -0.2863
    165  CB        15.6430  -23.5170   25.8110 C.3   160  SER160      0.2116
    166  OG        15.8760  -23.8040   24.4480 O.3   160  SER160     -0.2180
@<TRIPOS>BOND
     1   137   135   ar
     2   135   134    1
     3   135   136   ar
     4   134   131    1
     5   121   119    1
     6   131   130    1
     7   131   132    1
     8   119   120    1
     9   119   118    2
    10   133   132    2
    11   132   138   am
    12    34    35    1
    13    37    36    2
    14   118   117    1
    15   138   139    1
    16    36    35    1
    17   141   140    2
    18    33    32    1
    19    49    51   ar
    20    49    47   ar
    21    35    38    1
    22   140   139    1
    23   140   149   am
    24   166   165    1
    25    51    50   ar
    26   117   116    1
    27   139   142    1
    28   116   115    1
    29   149   150    1
    30   150   151    1
    31    38    40    1
    32    38    39    1
    33   111   112    1
    34    47    46   ar
    35    32    31    1
    36   152   151    2
    37    50    48   ar
    38   113   112    1
    39   113   114    2
    40   165   162    1
    41   142   143    1
    42   144   146   ar
    43   144   143   ar
    44   151   153   am
    45   146   148   ar
    46   143   145   ar
    47   115   112    1
    48   163   164    2
    49   163   162    1
    50   148   147   ar
    51   145   147   ar
    52    46    48   ar
    53    46    45    1
    54    59    58   ar
    55    31    30    1
    56   162   161    1
    57   122   123    1
    58   161   155   am
    59   153   154    1
    60   125   124    2
    61    45    42    1
    62    58    60   ar
    63    58    57    1
    64    30    29    1
    65   155   154    1
    66   155   156    2
    67    42    41    1
    68    42    43    1
    69   154   157    1
    70   123   126    1
    71   123   124    1
    72   127   126    1
    73   127   128    1
    74   127   129    1
    75    29    26    1
    76    57    56    1
    77    80    79    1
    78    28    27    2
    79    52    43   am
    80    52    53    1
    81    56    53    1
    82    43    44    2
    83    79    78    1
    84   157   158    1
    85    27    26    1
    86   158   159    1
    87    26    25    1
    88   100    99   ar
    89    78    77    1
    90    53    54    1
    91    98    99    1
    92    98    95    1
    93    55    54    2
    94    96    95    1
    95    96    97    2
    96    99   101   ar
    97    95    94    1
    98    19    17    1
    99    54    61   am
   100    23    22    2
   101    77    74    1
   102   159   160    1
   103   102   103    1
   104    93    92    2
   105    94    92   am
   106    22    21    1
   107    24    21    1
   108    61    62    1
   109    92    91    1
   110    17    18    1
   111    17    14    1
   112    74    73    1
   113    74    75    1
   114    73    63   am
   115    21    20    1
   116    63    62    1
   117    63    64    2
   118   103   104    1
   119   103   106    1
   120    62    65    1
   121    14    13    1
   122    14    15    1
   123   104   105    2
   124    91    90    1
   125   106   107    1
   126    75    76    2
   127    75    81   am
   128   107   108    1
   129    12    11    2
   130    11    10    1
   131    65    66    1
   132    15    16    2
   133    81    82    1
   134    10     9    1
   135   109   108    1
   136   109   110    1
   137    67    66   ar
   138    67    69   ar
   139     7     6    1
   140    66    68   ar
   141     9     3   am
   142     5     6    1
   143     5     2    1
   144    82    83    1
   145    82    85    1
   146     4     3    2
   147     3     2    1
   148    69    71   ar
   149    83    84    2
   150     6     8    1
   151    68    70   ar
   152    86    85    1
   153    86    87    1
   154     2     1    1
   155    71    70   ar
   156    71    72    1
   157    88    87    1
   158    88    89    1
