@<TRIPOS>MOLECULE
tmp/4ymkA01.pdb
 146 136 0 0 0
SMALL
GASTEIGER

@<TRIPOS>ATOM
      1  N        -25.3670   -8.7390   35.7260 N.3    50  VAL50      -0.1245
      2  CA       -23.9880   -8.3900   35.3800 C.3    50  VAL50       0.1561
      3  C        -23.3130   -7.4510   36.3970 C.2    50  VAL50       0.2260
      4  O        -22.1720   -7.7050   36.7890 O.2    50  VAL50      -0.2867
      5  CB       -23.9170   -7.7800   33.9590 C.3    50  VAL50       0.0252
      6  CG1      -22.5340   -7.2050   33.6900 C.3    50  VAL50       0.0019
      7  CG2      -24.2750   -8.8240   32.9120 C.3    50  VAL50       0.0019
      8  N        -15.3150   -9.6620   38.4030 N.3    55  LEU55      -0.1245
      9  CA       -14.6190   -9.2600   37.1870 C.3    55  LEU55       0.1561
     10  C        -14.2530  -10.4680   36.3300 C.2    55  LEU55       0.2260
     11  O        -14.4260  -10.4480   35.1120 O.2    55  LEU55      -0.2867
     12  CB       -13.3610   -8.4600   37.5290 C.3    55  LEU55       0.0270
     13  CG       -12.5430   -7.9670   36.3330 C.3    55  LEU55       0.0019
     14  CD1      -13.3850   -7.0570   35.4500 C.3    55  LEU55       0.0001
     15  CD2      -11.2820   -7.2540   36.7970 C.3    55  LEU55       0.0001
     16  N        -15.6880  -13.3130   36.1520 N.3    57  THR57      -0.1203
     17  CA       -16.8910  -13.8720   35.5460 C.3    57  THR57       0.1994
     18  C        -17.2050  -13.1690   34.2260 C.2    57  THR57       0.2618
     19  O        -17.5500  -13.8120   33.2360 O.2    57  THR57      -0.2717
     20  CB       -18.1010  -13.7610   36.4920 C.3    57  THR57       0.1784
     21  OG1      -17.8170  -14.4530   37.7150 O.3    57  THR57      -0.2211
     22  CG2      -19.3440  -14.3610   35.8510 C.3    57  THR57       0.0376
     23  N        -17.0710  -11.8460   34.2180 N.am   58  CYS58      -0.1955
     24  CA       -17.3180  -11.0600   33.0150 C.3    58  CYS58       0.1843
     25  C        -16.2510  -11.3250   31.9580 C.2    58  CYS58       0.2625
     26  O        -16.5520  -11.3960   30.7660 O.2    58  CYS58      -0.2714
     27  CB       -17.3700   -9.5680   33.3490 C.3    58  CYS58       0.0997
     28  SG       -18.7200   -9.1010   34.4570 S.3    58  CYS58      -0.0797
     29  N        -15.0060  -11.4700   32.4000 N.am   59  LEU59      -0.1977
     30  CA       -13.8990  -11.7560   31.4950 C.3    59  LEU59       0.1596
     31  C        -14.0110  -13.1600   30.9120 C.2    59  LEU59       0.2287
     32  O        -13.7230  -13.3790   29.7360 O.2    59  LEU59      -0.2864
     33  CB       -12.5590  -11.5980   32.2150 C.3    59  LEU59       0.0297
     34  CG       -12.2070  -10.1890   32.6950 C.3    59  LEU59       0.0022
     35  CD1      -10.8630  -10.1890   33.4080 C.3    59  LEU59       0.0001
     36  CD2      -12.2000   -9.2140   31.5280 C.3    59  LEU59       0.0001
     37  N        -16.7390  -14.7670   30.4450 N.3    61  GLY61      -0.1210
     38  CA       -17.8430  -14.7250   29.5080 C.3    61  GLY61       0.1956
     39  C        -17.4140  -14.2190   28.1450 C.2    61  GLY61       0.2611
     40  O        -17.8540  -14.7300   27.1150 O.2    61  GLY61      -0.2717
     41  N        -16.5510  -13.2080   28.1410 N.am   62  ILE62      -0.1979
     42  CA       -16.0310  -12.6480   26.9010 C.3    62  ILE62       0.1595
     43  C        -15.1460  -13.6750   26.2110 C.2    62  ILE62       0.2287
     44  O        -15.2620  -13.9000   25.0070 O.2    62  ILE62      -0.2864
     45  CB       -15.2660  -11.3400   27.1590 C.3    62  ILE62       0.0276
     46  CG1      -16.2120  -10.2810   27.7310 C.3    62  ILE62       0.0022
     47  CG2      -14.6210  -10.8370   25.8780 C.3    62  ILE62       0.0022
     48  CD1      -15.5240   -8.9910   28.1110 C.3    62  ILE62       0.0001
     49  N        -17.1930  -16.3220   24.7660 N.3    65  TYR65      -0.1227
     50  CA       -17.8630  -15.7600   23.6010 C.3    65  TYR65       0.1736
     51  C        -16.9440  -15.8230   22.3840 C.2    65  TYR65       0.2595
     52  O        -17.3310  -16.3150   21.3260 O.2    65  TYR65      -0.2718
     53  CB       -18.2890  -14.3140   23.8790 C.3    65  TYR65       0.0548
     54  CG       -18.9690  -13.6150   22.7210 C.ar   65  TYR65      -0.0200
     55  CD1      -18.2260  -13.0030   21.7170 C.ar   65  TYR65      -0.0009
     56  CD2      -20.3540  -13.5460   22.6430 C.ar   65  TYR65      -0.0009
     57  CE1      -18.8420  -12.3620   20.6610 C.ar   65  TYR65       0.0417
     58  CE2      -20.9800  -12.9030   21.5900 C.ar   65  TYR65       0.0417
     59  CZ       -20.2180  -12.3120   20.6030 C.ar   65  TYR65       0.1957
     60  OH       -20.8290  -11.6680   19.5540 O.3    65  TYR65      -0.2866
     61  N        -15.7250  -15.3180   22.5490 N.am   66  MET66      -0.1979
     62  CA       -14.7560  -15.2590   21.4610 C.3    66  MET66       0.1605
     63  C        -14.3510  -16.6500   20.9770 C.2    66  MET66       0.2287
     64  O        -14.2220  -16.8820   19.7760 O.2    66  MET66      -0.2864
     65  CB       -13.5170  -14.4790   21.9020 C.3    66  MET66       0.0413
     66  CG       -13.8000  -13.0370   22.2870 C.3    66  MET66       0.0598
     67  SD       -14.4410  -12.0750   20.9040 S.3    66  MET66      -0.1393
     68  CE       -13.0820  -12.2270   19.7480 C.3    66  MET66       0.0692
     69  N        -25.3960  -15.5530   33.6830 N.3   205  VAL205     -0.1245
     70  CA       -24.4820  -14.6520   32.9880 C.3   205  VAL205      0.1561
     71  C        -23.4530  -15.4240   32.1700 C.2   205  VAL205      0.2260
     72  O        -23.3240  -15.2180   30.9630 O.2   205  VAL205     -0.2867
     73  CB       -23.7810  -13.7050   33.9770 C.3   205  VAL205      0.0252
     74  CG1      -22.7170  -12.8850   33.2650 C.3   205  VAL205      0.0019
     75  CG2      -24.8000  -12.8020   34.6550 C.3   205  VAL205      0.0019
     76  N        -26.8400  -15.8360   29.3470 N.3   209  LEU209     -0.1231
     77  CA       -26.6320  -14.5780   28.6350 C.3   209  LEU209      0.1693
     78  C        -25.5790  -14.7220   27.5410 C.2   209  LEU209      0.2591
     79  O        -25.7570  -14.2290   26.4290 O.2   209  LEU209     -0.2718
     80  CB       -26.2220  -13.4670   29.6010 C.3   209  LEU209      0.0284
     81  CG       -25.8400  -12.1380   28.9430 C.3   209  LEU209      0.0019
     82  CD1      -26.9850  -11.6130   28.0890 C.3   209  LEU209      0.0001
     83  CD2      -25.4340  -11.1110   29.9870 C.3   209  LEU209      0.0001
     84  N        -24.4850  -15.4010   27.8650 N.am  210  ARG210     -0.1980
     85  CA       -23.3950  -15.5870   26.9180 C.3   210  ARG210      0.1597
     86  C        -23.8550  -16.3430   25.6770 C.2   210  ARG210      0.2287
     87  O        -23.6070  -15.9110   24.5510 O.2   210  ARG210     -0.2864
     88  CB       -22.2360  -16.3350   27.5740 C.3   210  ARG210      0.0334
     89  CG       -21.0380  -16.5050   26.6630 C.3   210  ARG210      0.0492
     90  CD       -20.4570  -17.8990   26.7650 C.3   210  ARG210      0.2205
     91  NE       -21.3050  -18.9030   26.1350 N.pl3 210  ARG210     -0.0865
     92  CZ       -21.8290  -19.9460   26.7700 C.cat 210  ARG210      0.5346
     93  NH1      -21.5920  -20.1270   28.0620 N.pl3 210  ARG210      0.1354
     94  NH2      -22.5870  -20.8120   26.1110 N.pl3 210  ARG210      0.1354
     95  N        -26.1540  -14.2910   23.5750 N.3   213  LEU213     -0.1245
     96  CA       -25.4380  -13.2730   22.8140 C.3   213  LEU213      0.1561
     97  C        -24.7490  -13.8670   21.5860 C.2   213  LEU213      0.2260
     98  O        -24.7440  -13.2550   20.5190 O.2   213  LEU213     -0.2867
     99  CB       -24.4150  -12.5590   23.7030 C.3   213  LEU213      0.0270
    100  CG       -25.0040  -11.5930   24.7360 C.3   213  LEU213      0.0019
    101  CD1      -23.9080  -10.9010   25.5290 C.3   213  LEU213      0.0001
    102  CD2      -25.9030  -10.5700   24.0580 C.3   213  LEU213      0.0001
    103  N        -20.1260   -7.2230   11.6370 N.3   246  SER246     -0.1202
    104  CA       -18.7350   -7.6760   11.6690 C.3   246  SER246      0.2020
    105  C        -18.1530   -7.6110   13.0760 C.2   246  SER246      0.2619
    106  O        -17.3910   -8.4880   13.4830 O.2   246  SER246     -0.2717
    107  CB       -17.8700   -6.8440   10.7200 C.3   246  SER246      0.2103
    108  OG       -18.0620   -7.2290    9.3720 O.3   246  SER246     -0.2182
    109  N        -18.5110   -6.5620   13.8090 N.am  247  LEU247     -0.1965
    110  CA       -18.0360   -6.3800   15.1750 C.3   247  LEU247      0.1728
    111  C        -18.5570   -7.4850   16.0860 C.2   247  LEU247      0.2616
    112  O        -17.8030   -8.0720   16.8610 O.2   247  LEU247     -0.2715
    113  CB       -18.4600   -5.0110   15.7080 C.3   247  LEU247      0.0311
    114  CG       -17.7750   -3.8060   15.0610 C.3   247  LEU247      0.0022
    115  CD1      -18.4550   -2.5150   15.4780 C.3   247  LEU247      0.0001
    116  CD2      -16.3020   -3.7760   15.4310 C.3   247  LEU247      0.0001
    117  N        -19.8500   -7.7700   15.9830 N.am  248  GLY248     -0.1955
    118  CA       -20.4630   -8.8080   16.7890 C.3   248  GLY248      0.1869
    119  C        -20.1120  -10.2150   16.3420 C.2   248  GLY248      0.2309
    120  O        -19.9040  -11.1020   17.1710 O.2   248  GLY248     -0.2863
    121  N        -17.4370  -11.2920   14.8080 N.3   250  VAL250     -0.1245
    122  CA       -15.9820  -11.3080   14.5940 C.3   250  VAL250      0.1561
    123  C        -15.5340  -11.4020   13.1300 C.2   250  VAL250      0.2260
    124  O        -14.6230  -12.1640   12.7960 O.2   250  VAL250     -0.2867
    125  CB       -15.3130  -12.4410   15.4260 C.3   250  VAL250      0.0252
    126  CG1      -15.3810  -12.1160   16.9070 C.3   250  VAL250      0.0019
    127  CG2      -15.9370  -13.8050   15.1440 C.3   250  VAL250      0.0019
    128  N        -11.5470   -5.2190   10.6410 N.3   274  ILE274     -0.1245
    129  CA       -12.7070   -5.6300   11.4340 C.3   274  ILE274      0.1561
    130  C        -12.9690   -7.1210   11.2280 C.2   274  ILE274      0.2260
    131  O        -14.1120   -7.5560   11.0740 O.2   274  ILE274     -0.2867
    132  CB       -13.9560   -4.7890   11.0910 C.3   274  ILE274      0.0252
    133  CG1      -13.5710   -3.3370   10.8100 C.3   274  ILE274      0.0019
    134  CG2      -14.9710   -4.8460   12.2250 C.3   274  ILE274      0.0019
    135  CD1      -14.7450   -2.4630   10.4290 C.3   274  ILE274      0.0001
    136  N        -11.5040  -10.3320   13.1000 N.3   276  PHE276     -0.1241
    137  CA       -10.7070  -11.0570   14.0810 C.3   276  PHE276      0.1605
    138  C        -10.5090  -12.5130   13.6730 C.2   276  PHE276      0.2264
    139  O         -9.4980  -13.1260   14.0120 O.2   276  PHE276     -0.2867
    140  CB       -11.3610  -10.9850   15.4640 C.3   276  PHE276      0.0534
    141  CG       -10.6880  -11.8430   16.4980 C.ar  276  PHE276     -0.0203
    142  CD1       -9.5340  -11.4100   17.1310 C.ar  276  PHE276     -0.0042
    143  CD2      -11.2070  -13.0830   16.8350 C.ar  276  PHE276     -0.0042
    144  CE1       -8.9110  -12.1980   18.0790 C.ar  276  PHE276     -0.0003
    145  CE2      -10.5880  -13.8760   17.7830 C.ar  276  PHE276     -0.0003
    146  CZ        -9.4390  -13.4320   18.4060 C.ar  276  PHE276     -0.0000
@<TRIPOS>BOND
     1   108   107    1
     2   135   133    1
     3   128   129    1
     4   107   104    1
     5   133   132    1
     6   131   130    2
     7   132   129    1
     8   132   134    1
     9   130   129    1
    10   103   104    1
    11   104   105    1
    12   124   123    2
    13   105   106    2
    14   105   109   am
    15   136   137    1
    16   123   122    1
    17   138   139    2
    18   138   137    1
    19   109   110    1
    20   137   140    1
    21   122   121    1
    22   122   125    1
    23   114   116    1
    24   114   115    1
    25   114   113    1
    26   127   125    1
    27   110   113    1
    28   110   111    1
    29   125   126    1
    30   140   141    1
    31   117   111   am
    32   117   118    1
    33   111   112    2
    34   119   118    1
    35   119   120    2
    36   141   143   ar
    37   141   142   ar
    38   143   145   ar
    39   142   144   ar
    40   145   146   ar
    41   144   146   ar
    42    60    59    1
    43    68    67    1
    44    64    63    2
    45    98    97    2
    46    59    57   ar
    47    59    58   ar
    48    57    55   ar
    49    67    66    1
    50    63    62    1
    51    52    51    2
    52    62    65    1
    53    62    61    1
    54    97    96    1
    55    58    56   ar
    56    55    54   ar
    57    65    66    1
    58    51    61   am
    59    51    50    1
    60    56    54   ar
    61    54    53    1
    62    96    95    1
    63    96    99    1
    64    50    53    1
    65    50    49    1
    66    99   100    1
    67   102   100    1
    68    87    86    2
    69   100   101    1
    70    44    43    2
    71    86    85    1
    72    47    45    1
    73    94    92    1
    74    91    90    1
    75    91    92    2
    76    43    42    1
    77    79    78    2
    78    89    90    1
    79    89    88    1
    80    92    93    1
    81    42    45    1
    82    42    41    1
    83    85    88    1
    84    85    84    1
    85    40    39    2
    86    45    46    1
    87    78    84   am
    88    78    77    1
    89    46    48    1
    90    82    81    1
    91    41    39   am
    92    39    38    1
    93    77    76    1
    94    77    80    1
    95    81    80    1
    96    81    83    1
    97    38    37    1
    98    32    31    2
    99    26    25    2
   100    31    30    1
   101    72    71    2
   102    30    33    1
   103    30    29    1
   104    36    34    1
   105    25    29   am
   106    25    24    1
   107    71    70    1
   108    33    34    1
   109    34    35    1
   110     7     5    1
   111    70    69    1
   112    70    73    1
   113    24    27    1
   114    24    23    1
   115    19    18    2
   116    74    73    1
   117    27    28    1
   118     6     5    1
   119     5     2    1
   120    73    75    1
   121    23    18   am
   122    18    17    1
   123    11    10    2
   124     2     1    1
   125     2     3    1
   126    14    13    1
   127    17    16    1
   128    17    20    1
   129    22    20    1
   130    10     9    1
   131    13    15    1
   132    13    12    1
   133     3     4    2
   134    20    21    1
   135     9    12    1
   136     9     8    1
