@<TRIPOS>MOLECULE
tmp/4ympA00.pdb
 146 140 0 0 0
SMALL
GASTEIGER

@<TRIPOS>ATOM
      1  N         -4.7220   13.3950   69.2190 N.3    10  LYS10      -0.1231
      2  CA        -5.1460   12.6060   70.3680 C.3    10  LYS10       0.1693
      3  C         -3.9780   12.3510   71.3120 C.2    10  LYS10       0.2592
      4  O         -3.4120   11.2540   71.3410 O.2    10  LYS10      -0.2718
      5  CB        -5.7530   11.2830   69.8900 C.3    10  LYS10       0.0285
      6  CG        -6.2990   10.3780   70.9850 C.3    10  LYS10       0.0035
      7  CD        -6.8070    9.0670   70.4110 C.3    10  LYS10       0.0206
      8  CE        -7.8170    9.3030   69.2980 C.3    10  LYS10       0.1093
      9  NZ        -8.2720    8.0270   68.6750 N.3    10  LYS10      -0.1314
     10  N         -3.6250   13.3820   72.0740 N.am   11  ASP11      -0.1974
     11  CA        -2.4540   13.3580   72.9400 C.3    11  ASP11       0.1709
     12  C         -1.2340   12.8880   72.1500 C.2    11  ASP11       0.2293
     13  O         -0.9310   13.4290   71.0870 O.2    11  ASP11      -0.2864
     14  CB        -2.6860   12.4740   74.1660 C.3    11  ASP11       0.1436
     15  CG        -1.8200   12.8830   75.3460 C.2    11  ASP11       0.3671
     16  OD1       -0.7350   13.4590   75.1170 O.co2  11  ASP11      -0.2456
     17  OD2       -2.2290   12.6420   76.5030 O.co2  11  ASP11      -0.2456
     18  N         -7.4750   14.4270   66.5410 N.3    17  SER17      -0.1202
     19  CA        -8.3050   14.4160   67.7310 C.3    17  SER17       0.2020
     20  C         -9.7460   14.7410   67.3620 C.2    17  SER17       0.2619
     21  O        -10.0110   15.3400   66.3160 O.2    17  SER17      -0.2717
     22  CB        -7.7760   15.4140   68.7620 C.3    17  SER17       0.2103
     23  OG        -8.6370   15.4950   69.8830 O.3    17  SER17      -0.2182
     24  N        -10.6750   14.3290   68.2180 N.am   18  TYR18      -0.1961
     25  CA       -12.0880   14.6100   67.9990 C.3    18  TYR18       0.1771
     26  C        -12.3840   16.0960   68.1540 C.2    18  TYR18       0.2619
     27  O        -13.2110   16.6560   67.4290 O.2    18  TYR18      -0.2715
     28  CB       -12.9580   13.8000   68.9600 C.3    18  TYR18       0.0574
     29  CG       -14.4340   13.9800   68.7070 C.ar   18  TYR18      -0.0198
     30  CD1      -14.9440   13.9190   67.4170 C.ar   18  TYR18      -0.0009
     31  CD2      -15.3120   14.2280   69.7490 C.ar   18  TYR18      -0.0009
     32  CE1      -16.2920   14.0890   67.1740 C.ar   18  TYR18       0.0417
     33  CE2      -16.6600   14.4030   69.5170 C.ar   18  TYR18       0.0417
     34  CZ       -17.1470   14.3310   68.2290 C.ar   18  TYR18       0.1957
     35  OH       -18.4940   14.5040   67.9960 O.3    18  TYR18      -0.2866
     36  N        -11.6800   16.7320   69.0860 N.am   19  ALA19      -0.1977
     37  CA       -11.8960   18.1390   69.4210 C.3    19  ALA19       0.1597
     38  C        -11.8160   19.0390   68.1920 C.2    19  ALA19       0.2287
     39  O        -12.3340   20.1520   68.1990 O.2    19  ALA19      -0.2864
     40  CB       -10.8920   18.5920   70.4680 C.3    19  ALA19       0.0319
     41  N        -14.9190   20.5570   66.9810 N.3    22  TYR22      -0.1241
     42  CA       -15.5260   21.5820   67.8220 C.3    22  TYR22       0.1605
     43  C        -14.8420   22.9320   67.6570 C.2    22  TYR22       0.2264
     44  O        -15.2020   23.9040   68.3180 O.2    22  TYR22      -0.2867
     45  CB       -15.5010   21.1570   69.2860 C.3    22  TYR22       0.0534
     46  CG       -16.5420   20.1180   69.6070 C.ar   22  TYR22      -0.0201
     47  CD1      -16.2890   18.7710   69.3980 C.ar   22  TYR22      -0.0009
     48  CD2      -17.7900   20.4860   70.0870 C.ar   22  TYR22      -0.0009
     49  CE1      -17.2420   17.8150   69.6730 C.ar   22  TYR22       0.0417
     50  CE2      -18.7510   19.5370   70.3650 C.ar   22  TYR22       0.0417
     51  CZ       -18.4710   18.2030   70.1570 C.ar   22  TYR22       0.1957
     52  OH       -19.4240   17.2510   70.4350 O.3    22  TYR22      -0.2866
     53  N        -20.2730   22.8400   76.8410 N.3    46  PHE46      -0.1227
     54  CA       -19.7200   21.5710   77.2950 C.3    46  PHE46       0.1736
     55  C        -18.2480   21.7150   77.6670 C.2    46  PHE46       0.2595
     56  O        -17.5960   20.7420   78.0360 O.2    46  PHE46      -0.2718
     57  CB       -19.8990   20.5030   76.2160 C.3    46  PHE46       0.0547
     58  CG       -21.3190   20.3560   75.7420 C.ar   46  PHE46      -0.0202
     59  CD1      -22.3750   20.4510   76.6340 C.ar   46  PHE46      -0.0042
     60  CD2      -21.5980   20.1440   74.4030 C.ar   46  PHE46      -0.0042
     61  CE1      -23.6810   20.3240   76.2020 C.ar   46  PHE46      -0.0003
     62  CE2      -22.9040   20.0170   73.9640 C.ar   46  PHE46      -0.0003
     63  CZ       -23.9470   20.1070   74.8660 C.ar   46  PHE46      -0.0000
     64  N        -17.7320   22.9370   77.5760 N.am   47  PHE47      -0.1976
     65  CA       -16.3520   23.2150   77.9600 C.3    47  PHE47       0.1639
     66  C        -16.2700   23.9360   79.3030 C.2    47  PHE47       0.2290
     67  O        -16.4930   25.1450   79.3800 O.2    47  PHE47      -0.2864
     68  CB       -15.6550   24.0460   76.8780 C.3    47  PHE47       0.0560
     69  CG       -15.3920   23.2880   75.6090 C.ar   47  PHE47      -0.0200
     70  CD1      -16.3800   23.1560   74.6480 C.ar   47  PHE47      -0.0042
     71  CD2      -14.1580   22.7000   75.3800 C.ar   47  PHE47      -0.0042
     72  CE1      -16.1430   22.4530   73.4790 C.ar   47  PHE47      -0.0003
     73  CE2      -13.9140   21.9980   74.2140 C.ar   47  PHE47      -0.0003
     74  CZ       -14.9080   21.8730   73.2630 C.ar   47  PHE47      -0.0000
     75  N         -8.4220   20.5110   78.2770 N.3    87  MET87      -0.1245
     76  CA        -9.8290   20.8920   78.2550 C.3    87  MET87       0.1570
     77  C        -10.6500   20.0730   79.2400 C.2    87  MET87       0.2261
     78  O        -10.3190   18.9240   79.5260 O.2    87  MET87      -0.2867
     79  CB       -10.3990   20.7350   76.8440 C.3    87  MET87       0.0387
     80  CG       -10.6700   19.2970   76.4370 C.3    87  MET87       0.0595
     81  SD       -10.9630   19.1190   74.6680 S.3    87  MET87      -0.1393
     82  CE        -9.3990   19.6870   74.0050 C.3    87  MET87       0.0692
     83  N        -14.3240   18.6120   79.4600 N.3    89  ILE89      -0.1245
     84  CA       -15.6140   18.3980   78.8340 C.3    89  ILE89       0.1561
     85  C        -16.6050   17.9140   79.8830 C.2    89  ILE89       0.2260
     86  O        -16.4160   16.8640   80.5100 O.2    89  ILE89      -0.2867
     87  CB       -15.5280   17.3990   77.6770 C.3    89  ILE89       0.0252
     88  CG1      -14.3970   17.7920   76.7270 C.3    89  ILE89       0.0019
     89  CG2      -16.8570   17.3320   76.9430 C.3    89  ILE89       0.0019
     90  CD1      -14.4330   19.2460   76.3050 C.3    89  ILE89       0.0001
     91  N        -20.7370   17.4270   80.3810 N.3    91  ILE91      -0.1245
     92  CA       -22.0740   17.3600   79.8010 C.3    91  ILE91       0.1561
     93  C        -23.0440   16.7400   80.8020 C.2    91  ILE91       0.2260
     94  O        -23.2510   15.5300   80.7910 O.2    91  ILE91      -0.2867
     95  CB       -22.0870   16.5300   78.5010 C.3    91  ILE91       0.0252
     96  CG1      -20.9460   16.9570   77.5760 C.3    91  ILE91       0.0019
     97  CG2      -23.4300   16.6510   77.7980 C.3    91  ILE91       0.0019
     98  CD1      -20.9590   16.2640   76.2280 C.3    91  ILE91       0.0001
     99  N        -25.5850   13.7300   80.4710 N.3    94  LEU94      -0.1245
    100  CA       -25.1400   12.4570   79.9050 C.3    94  LEU94       0.1561
    101  C        -24.7270   11.3480   80.8920 C.2    94  LEU94       0.2260
    102  O        -25.0630   10.2040   80.6290 O.2    94  LEU94      -0.2867
    103  CB       -24.0010   12.7010   78.9110 C.3    94  LEU94       0.0270
    104  CG       -24.5010   12.7640   77.4650 C.3    94  LEU94       0.0019
    105  CD1      -23.3470   12.7380   76.4740 C.3    94  LEU94       0.0001
    106  CD2      -25.4800   11.6300   77.1910 C.3    94  LEU94       0.0001
    107  N        -21.2610   13.4520   81.0860 N.3    96  TYR96      -0.1241
    108  CA       -19.9050   13.2750   80.5810 C.3    96  TYR96       0.1605
    109  C        -18.9200   14.2210   81.2530 C.2    96  TYR96       0.2264
    110  O        -18.7760   15.3660   80.8430 O.2    96  TYR96      -0.2867
    111  CB       -19.8940   13.5030   79.0680 C.3    96  TYR96       0.0534
    112  CG       -18.6010   13.1590   78.3660 C.ar   96  TYR96      -0.0201
    113  CD1      -18.1650   11.8470   78.2580 C.ar   96  TYR96      -0.0009
    114  CD2      -17.8220   14.1550   77.7950 C.ar   96  TYR96      -0.0009
    115  CE1      -16.9830   11.5410   77.6060 C.ar   96  TYR96       0.0417
    116  CE2      -16.6440   13.8580   77.1430 C.ar   96  TYR96       0.0417
    117  CZ       -16.2290   12.5540   77.0510 C.ar   96  TYR96       0.1957
    118  OH       -15.0540   12.2660   76.4000 O.3    96  TYR96      -0.2866
    119  N        -15.1440   14.5140   81.7270 N.3    98  LYS98      -0.1245
    120  CA       -13.7800   14.0680   81.4580 C.3    98  LYS98       0.1561
    121  C        -12.8530   15.1980   81.0280 C.2    98  LYS98       0.2260
    122  O        -13.2330   16.0660   80.2490 O.2    98  LYS98      -0.2867
    123  CB       -13.7800   12.9730   80.3870 C.3    98  LYS98       0.0271
    124  CG       -14.0790   11.5820   80.9240 C.3    98  LYS98       0.0035
    125  CD       -13.2480   10.5190   80.2170 C.3    98  LYS98       0.0206
    126  CE       -12.0140   10.1480   81.0270 C.3    98  LYS98       0.1093
    127  NZ       -11.3850    8.8860   80.5450 N.3    98  LYS98      -0.1314
    128  N         -9.1620   16.2980   79.2300 N.3   100  PHE100     -0.1241
    129  CA        -8.2690   15.7700   78.2060 C.3   100  PHE100      0.1605
    130  C         -7.0890   16.6830   77.8940 C.2   100  PHE100      0.2264
    131  O         -7.2100   17.9060   77.9130 O.2   100  PHE100     -0.2867
    132  CB        -9.0480   15.5080   76.9200 C.3   100  PHE100      0.0534
    133  CG       -10.1210   14.4760   77.0650 C.ar  100  PHE100     -0.0203
    134  CD1       -9.7970   13.1560   77.3130 C.ar  100  PHE100     -0.0042
    135  CD2      -11.4550   14.8240   76.9480 C.ar  100  PHE100     -0.0042
    136  CE1      -10.7810   12.2010   77.4450 C.ar  100  PHE100     -0.0003
    137  CE2      -12.4450   13.8730   77.0790 C.ar  100  PHE100     -0.0003
    138  CZ       -12.1060   12.5600   77.3270 C.ar  100  PHE100     -0.0000
    139  N         -4.5380   17.2140   74.8030 N.3   102  ILE102     -0.1245
    140  CA        -4.2130   16.9180   73.4110 C.3   102  ILE102      0.1561
    141  C         -3.0860   17.8130   72.9080 C.2   102  ILE102      0.2260
    142  O         -2.6150   18.6880   73.6350 O.2   102  ILE102     -0.2867
    143  CB        -5.4420   17.1020   72.4990 C.3   102  ILE102      0.0252
    144  CG1       -5.9700   18.5330   72.6060 C.3   102  ILE102      0.0019
    145  CG2       -6.5270   16.1000   72.8600 C.3   102  ILE102      0.0019
    146  CD1       -6.4210   19.1150   71.2880 C.3   102  ILE102      0.0001
@<TRIPOS>BOND
     1    21    20    2
     2    18    19    1
     3    41    42    1
     4    32    30   ar
     5    32    34   ar
     6    20    19    1
     7    20    24   am
     8    30    29   ar
     9    27    26    2
    10    43    42    1
    11    43    44    2
    12    19    22    1
    13    42    45    1
    14    35    34    1
    15    25    26    1
    16    25    24    1
    17    25    28    1
    18    26    36   am
    19    38    39    2
    20    38    37    1
    21    34    33   ar
    22     9     8    1
    23    29    28    1
    24    29    31   ar
    25    22    23    1
    26    36    37    1
    27     1     2    1
    28    45    46    1
    29     8     7    1
    30    47    46   ar
    31    47    49   ar
    32    37    40    1
    33    33    31   ar
    34    46    48   ar
    35    49    51   ar
    36     5     2    1
    37     5     6    1
    38    48    50   ar
    39    51    50   ar
    40    51    52    1
    41     2     3    1
    42     7     6    1
    43    13    12    2
    44   146   144    1
    45     3     4    2
    46     3    10   am
    47    10    11    1
    48    12    11    1
    49   143   144    1
    50   143   145    1
    51   143   140    1
    52   141   140    1
    53   141   142    2
    54    11    14    1
    55    74    72   ar
    56    74    73   ar
    57   140   139    1
    58    72    70   ar
    59    62    60   ar
    60    62    63   ar
    61    82    81    1
    62    14    15    1
    63    73    71   ar
    64    60    58   ar
    65    70    69   ar
    66    81    80    1
    67    63    61   ar
    68    16    15   ar
    69    15    17   ar
    70    71    69   ar
    71    69    68    1
    72    58    57    1
    73    58    59   ar
    74    61    59   ar
    75    57    54    1
    76    98    96    1
    77    90    88    1
    78   118   117    1
    79    80    79    1
    80   105   104    1
    81    88    87    1
    82    53    54    1
    83    79    76    1
    84    68    65    1
    85   132   133    1
    86   132   129    1
    87    89    87    1
    88   135   133   ar
    89   135   137   ar
    90   117   116   ar
    91   117   115   ar
    92   133   134   ar
    93   137   138   ar
    94   116   114   ar
    95   106   104    1
    96    54    55    1
    97   134   136   ar
    98   138   136   ar
    99   104   103    1
   100    64    55   am
   101    64    65    1
   102    96    95    1
   103   115   113   ar
   104    55    56    2
   105    87    84    1
   106   114   112   ar
   107    97    95    1
   108   130   131    2
   109   130   129    1
   110    65    66    1
   111   129   128    1
   112    76    75    1
   113    76    77    1
   114   113   112   ar
   115   112   111    1
   116    95    92    1
   117    84    83    1
   118    84    85    1
   119   103   100    1
   120   111   108    1
   121    77    78    2
   122    66    67    2
   123    92    91    1
   124    92    93    1
   125    85    86    2
   126   100    99    1
   127   100   101    1
   128   125   124    1
   129   125   126    1
   130   122   121    2
   131   123   124    1
   132   123   120    1
   133   127   126    1
   134   108   107    1
   135   108   109    1
   136   102   101    2
   137    94    93    2
   138   110   109    2
   139   121   120    1
   140   120   119    1
