@<TRIPOS>MOLECULE
tmp/4ymtD00.pdb
 92 87 0 0 0
SMALL
GASTEIGER

@<TRIPOS>ATOM
      1  N        -26.8060   15.7430   56.8780 N.3    63  ARG63      -0.1245
      2  CA       -27.5460   16.1350   55.6860 C.3    63  ARG63       0.1563
      3  C        -28.6730   15.1430   55.3870 C.2    63  ARG63       0.2260
      4  O        -29.7170   15.5210   54.8240 O.2    63  ARG63      -0.2867
      5  CB       -26.6060   16.2550   54.4650 C.3    63  ARG63       0.0307
      6  CG       -25.5620   17.3780   54.5440 C.3    63  ARG63       0.0489
      7  CD       -24.6750   17.3970   53.3020 C.3    63  ARG63       0.2205
      8  NE       -25.3980   17.9450   52.1610 N.pl3  63  ARG63      -0.0865
      9  CZ       -25.5470   17.3130   51.0040 C.cat  63  ARG63       0.5346
     10  NH1      -25.0190   16.1020   50.8390 N.pl3  63  ARG63       0.1354
     11  NH2      -26.2390   17.8860   50.0230 N.pl3  63  ARG63       0.1354
     12  N        -30.6070   13.6750   57.3650 N.3    65  THR65      -0.1204
     13  CA       -31.5200   13.6220   58.5040 C.3    65  THR65       0.1979
     14  C        -32.1300   15.0170   58.8030 C.2    65  THR65       0.2460
     15  O        -31.4650   16.0380   58.5870 O.2    65  THR65      -0.2732
     16  CB       -30.7460   13.0330   59.7270 C.3    65  THR65       0.1783
     17  OG1      -31.6270   12.2550   60.5360 O.3    65  THR65      -0.2211
     18  CG2      -30.0340   14.1030   60.5500 C.3    65  THR65       0.0376
     19  N        -33.4010   15.0710   59.2820 N.am   66  PRO66      -0.2717
     20  CA       -34.1100   16.3610   59.4210 C.3    66  PRO66       0.1535
     21  C        -33.5080   17.3450   60.4290 C.2    66  PRO66       0.2598
     22  O        -32.9950   16.9290   61.4750 O.2    66  PRO66      -0.2715
     23  CB       -35.5200   15.9430   59.8770 C.3    66  PRO66       0.0310
     24  CG       -35.6710   14.5280   59.4290 C.3    66  PRO66       0.0237
     25  CD       -34.2920   13.9330   59.5890 C.3    66  PRO66       0.0939
     26  N        -33.5980   18.6390   60.1260 N.am   67  LEU67      -0.1978
     27  CA       -33.1340   19.6820   61.0420 C.3    67  LEU67       0.1596
     28  C        -33.9160   19.6290   62.3660 C.2    67  LEU67       0.2287
     29  O        -33.3370   19.8020   63.4360 O.2    67  LEU67      -0.2864
     30  CB       -33.2880   21.0660   60.4060 C.3    67  LEU67       0.0297
     31  CG       -32.3600   22.2270   60.8040 C.3    67  LEU67       0.0022
     32  CD1      -33.1630   23.5070   60.9770 C.3    67  LEU67       0.0001
     33  CD2      -31.4730   21.9560   62.0170 C.3    67  LEU67       0.0001
     34  N        -26.0560   21.7380   61.6110 N.3    98  ASN98      -0.1225
     35  CA       -26.6950   21.4490   60.3330 C.3    98  ASN98       0.1785
     36  C        -25.9780   22.1620   59.1700 C.2    98  ASN98       0.2597
     37  O        -25.6980   21.5590   58.1360 O.2    98  ASN98      -0.2718
     38  CB       -28.1740   21.8330   60.3730 C.3    98  ASN98       0.1169
     39  CG       -28.9210   21.4400   59.0980 C.2    98  ASN98       0.2627
     40  OD1      -29.2620   22.2990   58.2860 O.2    98  ASN98      -0.2716
     41  ND2      -29.1760   20.1470   58.9160 N.am   98  ASN98      -0.0877
     42  N        -25.6820   23.4430   59.3570 N.am   99  SER99      -0.1952
     43  CA       -25.0560   24.2510   58.3290 C.3    99  SER99       0.1924
     44  C        -23.6470   23.7710   58.0400 C.2    99  SER99       0.2314
     45  O        -23.1980   23.8450   56.9090 O.2    99  SER99      -0.2863
     46  CB       -25.0330   25.7290   58.7410 C.3    99  SER99       0.2116
     47  OG       -24.4770   26.5500   57.7270 O.3    99  SER99      -0.2180
     48  N        -23.6090   21.0240   55.3270 N.3   102  TYR102     -0.1241
     49  CA       -23.9380   21.5340   54.0110 C.3   102  TYR102      0.1605
     50  C        -22.7930   22.4060   53.4660 C.2   102  TYR102      0.2264
     51  O        -22.5010   22.3800   52.2650 O.2   102  TYR102     -0.2867
     52  CB       -25.2650   22.3100   54.0570 C.3   102  TYR102      0.0534
     53  CG       -26.4890   21.4140   54.1650 C.ar  102  TYR102     -0.0201
     54  CD1      -27.2060   21.0500   53.0360 C.ar  102  TYR102     -0.0009
     55  CD2      -26.9170   20.9140   55.4000 C.ar  102  TYR102     -0.0009
     56  CE1      -28.3210   20.2260   53.1260 C.ar  102  TYR102      0.0417
     57  CE2      -28.0320   20.0880   55.5050 C.ar  102  TYR102      0.0417
     58  CZ       -28.7350   19.7460   54.3650 C.ar  102  TYR102      0.1957
     59  OH       -29.8510   18.9240   54.4510 O.3   102  TYR102     -0.2866
     60  N        -26.3720   29.9060   51.2500 N.3   152  GLU152     -0.1245
     61  CA       -26.5780   29.0550   52.4130 C.3   152  GLU152      0.1567
     62  C        -27.2320   29.8510   53.5270 C.2   152  GLU152      0.2260
     63  O        -28.1700   29.3830   54.1600 O.2   152  GLU152     -0.2867
     64  CB       -25.2510   28.4460   52.8660 C.3   152  GLU152      0.0388
     65  CG       -25.2130   27.9070   54.3050 C.3   152  GLU152      0.1160
     66  CD       -26.0700   26.6660   54.5410 C.2   152  GLU152      0.3649
     67  OE1      -26.7220   26.1690   53.5920 O.co2 152  GLU152     -0.2457
     68  OE2      -26.0480   26.1670   55.6930 O.co2 152  GLU152     -0.2457
     69  N        -31.0410   30.6110   52.7680 N.3   155  VAL155     -0.1231
     70  CA       -31.8340   29.4200   53.0570 C.3   155  VAL155      0.1692
     71  C        -31.9650   29.2290   54.5890 C.2   155  VAL155      0.2591
     72  O        -33.0380   28.8830   55.1020 O.2   155  VAL155     -0.2718
     73  CB       -31.2050   28.1720   52.4110 C.3   155  VAL155      0.0266
     74  CG1      -31.8820   26.8970   52.8860 C.3   155  VAL155      0.0020
     75  CG2      -31.3120   28.2660   50.9250 C.3   155  VAL155      0.0020
     76  N        -30.8690   29.4580   55.3090 N.am  156  MET156     -0.1979
     77  CA       -30.8780   29.3350   56.7490 C.3   156  MET156      0.1605
     78  C        -31.8350   30.3390   57.4010 C.2   156  MET156      0.2287
     79  O        -32.3610   30.0600   58.4710 O.2   156  MET156     -0.2864
     80  CB       -29.4700   29.5130   57.3150 C.3   156  MET156      0.0413
     81  CG       -28.5720   28.3050   57.1560 C.3   156  MET156      0.0598
     82  SD       -29.2030   26.7770   57.8960 S.3   156  MET156     -0.1393
     83  CE       -28.4760   26.8620   59.5190 C.3   156  MET156      0.0692
     84  N        -34.8740   28.5940   57.3680 N.3   159  GLU159     -0.1245
     85  CA       -34.7120   27.4240   58.2300 C.3   159  GLU159      0.1567
     86  C        -34.7970   27.7440   59.7360 C.2   159  GLU159      0.2260
     87  O        -35.2550   26.9140   60.5130 O.2   159  GLU159     -0.2867
     88  CB       -33.3820   26.7260   57.9220 C.3   159  GLU159      0.0388
     89  CG       -33.3430   26.0900   56.5300 C.3   159  GLU159      0.1160
     90  CD       -34.1520   24.8070   56.4290 C.2   159  GLU159      0.3649
     91  OE1      -34.1900   24.0320   57.3980 O.co2 159  GLU159     -0.2457
     92  OE2      -34.7580   24.5620   55.3790 O.co2 159  GLU159     -0.2457
@<TRIPOS>BOND
     1    11     9    1
     2    10     9    1
     3    75    73    1
     4     9     8    2
     5    60    61    1
     6     8     7    1
     7    51    50    2
     8    73    74    1
     9    73    70    1
    10    61    64    1
    11    61    62    1
    12    69    70    1
    13    64    65    1
    14    54    56   ar
    15    54    53   ar
    16    70    71    1
    17    56    58   ar
    18     7     6    1
    19    50    49    1
    20    62    63    2
    21    67    66   ar
    22    49    52    1
    23    49    48    1
    24    52    53    1
    25    53    55   ar
    26    65    66    1
    27    58    59    1
    28    58    57   ar
    29     5     6    1
    30     5     2    1
    31    66    68   ar
    32    71    72    2
    33    71    76   am
    34     4     3    2
    35    76    77    1
    36    92    90   ar
    37     3     2    1
    38    55    57   ar
    39     2     1    1
    40    90    89    1
    41    90    91   ar
    42    89    88    1
    43    77    80    1
    44    77    78    1
    45    45    44    2
    46    81    80    1
    47    81    82    1
    48    12    13    1
    49    84    85    1
    50    78    79    2
    51    47    46    1
    52    82    83    1
    53    88    85    1
    54    44    43    1
    55    37    36    2
    56    85    86    1
    57    40    39    2
    58    43    46    1
    59    43    42    1
    60    13    14    1
    61    13    16    1
    62    15    14    2
    63    14    19   am
    64    41    39   am
    65    39    38    1
    66    36    42   am
    67    36    35    1
    68    19    20    1
    69    19    25    1
    70    20    23    1
    71    20    21    1
    72    24    25    1
    73    24    23    1
    74    16    17    1
    75    16    18    1
    76    86    87    2
    77    26    21   am
    78    26    27    1
    79    35    38    1
    80    35    34    1
    81    30    31    1
    82    30    27    1
    83    21    22    2
    84    31    32    1
    85    31    33    1
    86    27    28    1
    87    28    29    2
