@<TRIPOS>MOLECULE
tmp/4ymvB00.pdb
 124 117 0 0 0
SMALL
GASTEIGER

@<TRIPOS>ATOM
      1  N         -9.4070    3.0090   30.6480 N.3    11  PHE11      -0.1241
      2  CA       -10.2840    3.8110   31.4720 C.3    11  PHE11       0.1605
      3  C        -11.5710    3.0020   31.6390 C.2    11  PHE11       0.2264
      4  O        -12.4850    3.0710   30.8020 O.2    11  PHE11      -0.2867
      5  CB       -10.5540    5.1670   30.8390 C.3    11  PHE11       0.0534
      6  CG        -9.3390    6.0370   30.7100 C.ar   11  PHE11      -0.0203
      7  CD1       -8.8380    6.7190   31.8000 C.ar   11  PHE11      -0.0042
      8  CD2       -8.7090    6.1940   29.4880 C.ar   11  PHE11      -0.0042
      9  CE1       -7.7340    7.5440   31.6750 C.ar   11  PHE11      -0.0003
     10  CE2       -7.6010    7.0080   29.3660 C.ar   11  PHE11      -0.0003
     11  CZ        -7.1170    7.6840   30.4600 C.ar   11  PHE11      -0.0000
     12  N        -12.8480    0.8030   28.7510 N.3    14  LEU14      -0.1245
     13  CA       -12.2460    1.4200   27.5750 C.3    14  LEU14       0.1561
     14  C        -10.7570    1.1610   27.4690 C.2    14  LEU14       0.2260
     15  O         -9.9640    1.6900   28.2540 O.2    14  LEU14      -0.2867
     16  CB       -12.4820    2.9260   27.5850 C.3    14  LEU14       0.0270
     17  CG       -12.9590    3.4650   26.2380 C.3    14  LEU14       0.0019
     18  CD1      -12.2610    4.7720   25.9040 C.3    14  LEU14       0.0001
     19  CD2      -12.7620    2.4300   25.1360 C.3    14  LEU14       0.0001
     20  N         -7.6720    2.1670   25.6390 N.3    16  VAL16      -0.1245
     21  CA        -7.2200    3.2800   24.8210 C.3    16  VAL16       0.1561
     22  C         -5.8300    3.0260   24.2210 C.2    16  VAL16       0.2260
     23  O         -5.6440    3.1690   23.0040 O.2    16  VAL16      -0.2867
     24  CB        -7.2100    4.5780   25.6370 C.3    16  VAL16       0.0252
     25  CG1       -6.5310    5.6850   24.8890 C.3    16  VAL16       0.0019
     26  CG2       -8.6080    4.9700   25.9910 C.3    16  VAL16       0.0019
     27  N         -9.5000   10.1650   15.4550 N.3    36  SER36      -0.1202
     28  CA        -9.8850   10.4070   16.8310 C.3    36  SER36       0.2020
     29  C        -10.1030    9.0810   17.5540 C.2    36  SER36       0.2619
     30  O        -10.6610    8.1510   16.9920 O.2    36  SER36      -0.2717
     31  CB       -11.1150   11.2890   16.8850 C.3    36  SER36       0.2103
     32  OG       -11.3970   11.6480   18.2220 O.3    36  SER36      -0.2182
     33  N         -9.6170    8.9860   18.7840 N.am   37  GLY37      -0.1942
     34  CA        -9.7270    7.7660   19.5560 C.3    37  GLY37       0.2014
     35  C         -8.5660    6.8230   19.3190 C.2    37  GLY37       0.2640
     36  O         -8.4920    5.7370   19.8910 O.2    37  GLY37      -0.2714
     37  N         -7.6210    7.2470   18.4950 N.am   38  SER38      -0.1935
     38  CA        -6.4900    6.3900   18.1820 C.3    38  SER38       0.2055
     39  C         -5.6110    6.1780   19.4000 C.2    38  SER38       0.2644
     40  O         -4.9490    5.1530   19.5110 O.2    38  SER38      -0.2714
     41  CB        -5.6720    6.9850   17.0310 C.3    38  SER38       0.2130
     42  OG        -5.3660    8.3480   17.2710 O.3    38  SER38      -0.2179
     43  N         -5.6410    7.1280   20.3320 N.am   39  GLY39      -0.1939
     44  CA        -4.8260    7.0460   21.5360 C.3    39  GLY39       0.2014
     45  C         -3.7380    8.1040   21.6210 C.2    39  GLY39       0.2639
     46  O         -2.9890    8.1390   22.5790 O.2    39  GLY39      -0.2714
     47  N         -3.6740    8.9610   20.6060 N.am   40  LYS40      -0.1963
     48  CA        -2.6560    9.9990   20.4300 C.3    40  LYS40       0.1728
     49  C         -2.3670   10.7970   21.6870 C.2    40  LYS40       0.2617
     50  O         -1.2130   10.8940   22.1070 O.2    40  LYS40      -0.2715
     51  CB        -3.0970   10.9830   19.3370 C.3    40  LYS40       0.0311
     52  CG        -3.3400   10.3890   17.9630 C.3    40  LYS40       0.0038
     53  CD        -3.5500   11.4950   16.9480 C.3    40  LYS40       0.0206
     54  CE        -4.7600   12.3960   17.2860 C.3    40  LYS40       0.1093
     55  NZ        -6.1110   11.7830   17.0500 N.3    40  LYS40      -0.1314
     56  N         -3.4000   11.4300   22.2450 N.am   41  SER41      -0.1936
     57  CA        -3.1930   12.3490   23.3640 C.3    41  SER41       0.2055
     58  C         -2.9500   11.6100   24.6750 C.2    41  SER41       0.2643
     59  O         -2.2730   12.1320   25.5470 O.2    41  SER41      -0.2714
     60  CB        -4.3620   13.3120   23.5070 C.3    41  SER41       0.2130
     61  OG        -4.5840   14.0120   22.2930 O.3    41  SER41      -0.2179
     62  N         -3.4830   10.4030   24.8220 N.am   42  THR42      -0.1950
     63  CA        -3.1700    9.5980   26.0010 C.3    42  THR42       0.1897
     64  C         -1.6880    9.1430   26.0220 C.2    42  THR42       0.2313
     65  O         -1.0380    9.1590   27.0650 O.2    42  THR42      -0.2863
     66  CB        -4.1100    8.3750   26.0920 C.3    42  THR42       0.1794
     67  OG1       -5.4320    8.8300   26.3680 O.3    42  THR42      -0.2208
     68  CG2       -3.7040    7.4630   27.2110 C.3    42  THR42       0.0378
     69  N          0.4100   11.9400   26.8760 N.3    45  ARG45      -0.1245
     70  CA         0.2630   12.3070   28.2810 C.3    45  ARG45       0.1563
     71  C          0.9010   11.3260   29.2530 C.2    45  ARG45       0.2260
     72  O          1.0580   11.6540   30.4160 O.2    45  ARG45      -0.2867
     73  CB        -1.2130   12.4640   28.6370 C.3    45  ARG45       0.0307
     74  CG        -1.8550   13.7080   28.0350 C.3    45  ARG45       0.0489
     75  CD        -3.3820   13.7310   28.1800 C.3    45  ARG45       0.2205
     76  NE        -3.8120   14.7700   29.1080 N.pl3  45  ARG45      -0.0865
     77  CZ        -4.4150   14.5450   30.2700 C.cat  45  ARG45       0.5346
     78  NH1       -4.7040   13.3080   30.6580 N.pl3  45  ARG45       0.1354
     79  NH2       -4.7490   15.5700   31.0330 N.pl3  45  ARG45       0.1354
     80  N         -0.8690   10.7960   32.8310 N.3    51  GLU51      -0.1245
     81  CA        -1.6750    9.5900   32.8990 C.3    51  GLU51       0.1567
     82  C         -0.8200    8.4490   33.4420 C.2    51  GLU51       0.2260
     83  O          0.4120    8.4550   33.3020 O.2    51  GLU51      -0.2867
     84  CB        -2.2690    9.2260   31.5310 C.3    51  GLU51       0.0388
     85  CG        -3.3150   10.2070   30.9840 C.3    51  GLU51       0.1160
     86  CD        -4.6300   10.2090   31.7750 C.2    51  GLU51       0.3649
     87  OE1       -5.5550   10.9670   31.3940 O.co2  51  GLU51      -0.2457
     88  OE2       -4.7520    9.4400   32.7620 O.co2  51  GLU51      -0.2457
     89  N         -4.3550   21.7790   24.7190 N.3    84  GLN84      -0.1245
     90  CA        -5.2030   22.0300   23.5940 C.3    84  GLN84       0.1566
     91  C         -6.0300   23.2030   23.9330 C.2    84  GLN84       0.2260
     92  O         -6.2350   24.0820   23.1360 O.2    84  GLN84      -0.2867
     93  CB        -6.1220   20.8600   23.3940 C.3    84  GLN84       0.0367
     94  CG        -7.1650   21.1260   22.3470 C.3    84  GLN84       0.0905
     95  CD        -7.9320   19.9000   21.9980 C.2    84  GLN84       0.2608
     96  OE1       -7.6830   18.8290   22.5270 O.2    84  GLN84      -0.2717
     97  NE2       -8.8740   20.0470   21.1030 N.am   84  GLN84      -0.0878
     98  N         -0.1460   18.9650   23.0410 N.3   161  ASP161     -0.1225
     99  CA        -1.3950   18.2410   22.9320 C.3   161  ASP161      0.1805
    100  C         -2.4410   19.0760   22.1940 C.2   161  ASP161      0.2597
    101  O         -3.2810   19.7340   22.8190 O.2   161  ASP161     -0.2718
    102  CB        -1.8930   17.8590   24.3200 C.3   161  ASP161      0.1424
    103  CG        -3.0110   16.8110   24.2870 C.2   161  ASP161      0.3668
    104  OD1       -3.5120   16.4740   25.3980 O.co2 161  ASP161     -0.2456
    105  OD2       -3.3950   16.3500   23.1740 O.co2 161  ASP161     -0.2456
    106  N         -2.3200   19.0840   20.8630 N.am  162  GLU162     -0.1979
    107  CA        -3.2410   19.7480   19.9290 C.3   162  GLU162      0.1602
    108  C         -3.4220   21.2260   20.2000 C.2   162  GLU162      0.2287
    109  O         -4.5290   21.7220   20.3500 O.2   162  GLU162     -0.2864
    110  CB        -4.5630   19.0140   19.9300 C.3   162  GLU162      0.0415
    111  CG        -4.2840   17.6310   19.4230 C.3   162  GLU162      0.1163
    112  CD        -5.5040   16.8110   19.1780 C.2   162  GLU162      0.3649
    113  OE1       -6.4570   17.3130   18.5390 O.co2 162  GLU162     -0.2457
    114  OE2       -5.4760   15.6340   19.5740 O.co2 162  GLU162     -0.2457
    115  N         -3.4050   17.9110   14.1310 N.3   194  HIS194     -0.1241
    116  CA        -4.1980   17.7320   12.9140 C.3   194  HIS194      0.1621
    117  C         -3.5360   18.5200   11.8170 C.2   194  HIS194      0.2264
    118  O         -3.8520   18.3420   10.6480 O.2   194  HIS194     -0.2867
    119  CB        -5.6510   18.2300   13.0590 C.3   194  HIS194      0.0745
    120  CG        -6.4330   17.5510   14.1360 C.ar  194  HIS194      0.0817
    121  ND1       -7.4010   18.2060   14.8640 N.ar  194  HIS194     -0.2268
    122  CD2       -6.3970   16.2820   14.6080 C.ar  194  HIS194      0.1154
    123  CE1       -7.9050   17.3750   15.7620 C.ar  194  HIS194      0.1986
    124  NE2       -7.3180   16.2020   15.6280 N.ar  194  HIS194     -0.2212
@<TRIPOS>BOND
     1   118   117    2
     2   117   116    1
     3   116   119    1
     4   116   115    1
     5   119   120    1
     6   120   122   ar
     7   120   121   ar
     8   122   124   ar
     9   121   123   ar
    10    27    28    1
    11   124   123   ar
    12    28    31    1
    13    28    29    1
    14    31    32    1
    15    53    54    1
    16    53    52    1
    17    30    29    2
    18    41    42    1
    19    41    38    1
    20    55    54    1
    21    29    33   am
    22    52    51    1
    23    38    37    1
    24    38    39    1
    25    37    35   am
    26   113   112   ar
    27    33    34    1
    28   112   111    1
    29   112   114   ar
    30    35    34    1
    31    35    36    2
    32    51    48    1
    33    39    40    2
    34    39    43   am
    35   111   110    1
    36   107   110    1
    37   107   108    1
    38   107   106    1
    39   108   109    2
    40    43    44    1
    41    48    47    1
    42    48    49    1
    43    47    45   am
    44   106   100   am
    45    97    95   am
    46    44    45    1
    47    45    46    2
    48    49    50    2
    49    49    56   am
    50    95    94    1
    51    95    96    2
    52   100   101    2
    53   100    99    1
    54    56    57    1
    55    61    60    1
    56    94    93    1
    57    99    98    1
    58    99   102    1
    59    23    22    2
    60    92    91    2
    61   105   103   ar
    62    57    60    1
    63    57    58    1
    64    93    90    1
    65    90    91    1
    66    90    89    1
    67    22    21    1
    68   103   102    1
    69   103   104   ar
    70    58    62   am
    71    58    59    2
    72    21    24    1
    73    21    20    1
    74    62    63    1
    75    25    24    1
    76    19    17    1
    77    24    26    1
    78    18    17    1
    79    63    64    1
    80    63    66    1
    81    64    65    2
    82    66    67    1
    83    66    68    1
    84    17    16    1
    85    69    70    1
    86    14    13    1
    87    14    15    2
    88    13    16    1
    89    13    12    1
    90    74    75    1
    91    74    73    1
    92    75    76    1
    93    70    73    1
    94    70    71    1
    95    76    77    2
    96    71    72    2
    97    10     8   ar
    98    10    11   ar
    99     8     6   ar
   100    77    78    1
   101    77    79    1
   102    11     9   ar
   103     1     2    1
   104     6     5    1
   105     6     7   ar
   106     4     3    2
   107     5     2    1
   108    85    84    1
   109    85    86    1
   110    87    86   ar
   111     2     3    1
   112    84    81    1
   113     9     7   ar
   114    86    88   ar
   115    80    81    1
   116    81    82    1
   117    83    82    2
