@<TRIPOS>MOLECULE
tmp/4ymwC00.pdb
 92 87 0 0 0
SMALL
GASTEIGER

@<TRIPOS>ATOM
      1  N        -27.0460   15.7910   56.9410 N.3    63  ARG63      -0.1245
      2  CA       -27.8370   16.2570   55.8070 C.3    63  ARG63       0.1563
      3  C        -29.0280   15.3410   55.5500 C.2    63  ARG63       0.2260
      4  O        -30.0650   15.7910   55.0580 O.2    63  ARG63      -0.2867
      5  CB       -26.9700   16.3680   54.5440 C.3    63  ARG63       0.0307
      6  CG       -25.6790   17.1950   54.7070 C.3    63  ARG63       0.0489
      7  CD       -24.9430   17.3980   53.3740 C.3    63  ARG63       0.2205
      8  NE       -25.7130   18.1420   52.3790 N.pl3  63  ARG63      -0.0865
      9  CZ       -25.8920   17.7390   51.1240 C.cat  63  ARG63       0.5346
     10  NH1      -25.3630   16.5910   50.7220 N.pl3  63  ARG63       0.1354
     11  NH2      -26.6030   18.4750   50.2740 N.pl3  63  ARG63       0.1354
     12  N        -30.9820   13.9020   57.7210 N.3    65  THR65      -0.1204
     13  CA       -31.7790   13.8770   58.9410 C.3    65  THR65       0.1979
     14  C        -32.3530   15.2630   59.1720 C.2    65  THR65       0.2460
     15  O        -31.6620   16.2550   58.9510 O.2    65  THR65      -0.2732
     16  CB       -30.9150   13.4360   60.1340 C.3    65  THR65       0.1783
     17  OG1      -31.1400   12.0470   60.4000 O.3    65  THR65      -0.2211
     18  CG2      -31.1970   14.2540   61.3610 C.3    65  THR65       0.0376
     19  N        -33.6270   15.3380   59.5940 N.am   66  PRO66      -0.2717
     20  CA       -34.3510   16.6180   59.6430 C.3    66  PRO66       0.1535
     21  C        -33.7120   17.6320   60.5800 C.2    66  PRO66       0.2598
     22  O        -33.0330   17.2430   61.5300 O.2    66  PRO66      -0.2715
     23  CB       -35.7420   16.2150   60.1240 C.3    66  PRO66       0.0310
     24  CG       -35.8790   14.7780   59.7240 C.3    66  PRO66       0.0237
     25  CD       -34.5060   14.1980   59.9050 C.3    66  PRO66       0.0939
     26  N        -33.8750   18.9200   60.3000 N.am   67  LEU67      -0.1978
     27  CA       -33.3350   19.9250   61.2140 C.3    67  LEU67       0.1596
     28  C        -34.0750   19.8800   62.5500 C.2    67  LEU67       0.2287
     29  O        -33.4730   20.0520   63.6070 O.2    67  LEU67      -0.2864
     30  CB       -33.4130   21.3240   60.5960 C.3    67  LEU67       0.0297
     31  CG       -33.0740   22.4830   61.5330 C.3    67  LEU67       0.0022
     32  CD1      -31.7090   22.3150   62.1440 C.3    67  LEU67       0.0001
     33  CD2      -33.1610   23.7760   60.7630 C.3    67  LEU67       0.0001
     34  N        -25.9940   21.9900   61.6520 N.3    98  ASN98      -0.1225
     35  CA       -26.6580   21.6900   60.3770 C.3    98  ASN98       0.1785
     36  C        -26.0200   22.4370   59.1710 C.2    98  ASN98       0.2597
     37  O        -25.5930   21.8470   58.1420 O.2    98  ASN98      -0.2718
     38  CB       -28.1400   22.0480   60.5330 C.3    98  ASN98       0.1169
     39  CG       -29.0050   21.4930   59.4310 C.2    98  ASN98       0.2627
     40  OD1      -29.5280   22.2420   58.6160 O.2    98  ASN98      -0.2716
     41  ND2      -29.2060   20.1800   59.4290 N.am   98  ASN98      -0.0877
     42  N        -25.9400   23.7510   59.3420 N.am   99  SER99      -0.1952
     43  CA       -25.2410   24.6510   58.4430 C.3    99  SER99       0.1924
     44  C        -23.7830   24.2460   58.2740 C.2    99  SER99       0.2314
     45  O        -23.2260   24.4110   57.2060 O.2    99  SER99      -0.2863
     46  CB       -25.3320   26.0860   58.9650 C.3    99  SER99       0.2116
     47  OG       -24.6200   26.9910   58.1490 O.3    99  SER99      -0.2180
     48  N        -23.8790   21.5170   55.5380 N.3   102  TYR102     -0.1241
     49  CA       -24.1860   22.0480   54.2070 C.3   102  TYR102      0.1605
     50  C        -23.0610   22.9690   53.6620 C.2   102  TYR102      0.2264
     51  O        -22.8510   23.0530   52.4430 O.2   102  TYR102     -0.2867
     52  CB       -25.5350   22.7660   54.2090 C.3   102  TYR102      0.0534
     53  CG       -26.6870   21.7910   54.3030 C.ar  102  TYR102     -0.0201
     54  CD1      -27.3400   21.3400   53.1650 C.ar  102  TYR102     -0.0009
     55  CD2      -27.0850   21.2710   55.5280 C.ar  102  TYR102     -0.0009
     56  CE1      -28.3830   20.4250   53.2450 C.ar  102  TYR102      0.0417
     57  CE2      -28.1340   20.3630   55.6220 C.ar  102  TYR102      0.0417
     58  CZ       -28.7780   19.9390   54.4790 C.ar  102  TYR102      0.1957
     59  OH       -29.8120   19.0310   54.5780 O.3   102  TYR102     -0.2866
     60  N        -26.7240   30.4190   51.2470 N.3   152  GLU152     -0.1245
     61  CA       -26.8990   29.5960   52.4340 C.3   152  GLU152      0.1567
     62  C        -27.4820   30.4090   53.5600 C.2   152  GLU152      0.2260
     63  O        -28.4380   29.9910   54.1960 O.2   152  GLU152     -0.2867
     64  CB       -25.5820   28.9910   52.8720 C.3   152  GLU152      0.0388
     65  CG       -25.6490   27.5000   52.9510 C.3   152  GLU152      0.1160
     66  CD       -26.5230   27.0490   54.0680 C.2   152  GLU152      0.3649
     67  OE1      -26.2630   27.4810   55.2130 O.co2 152  GLU152     -0.2457
     68  OE2      -27.4570   26.2650   53.8050 O.co2 152  GLU152     -0.2457
     69  N        -31.1140   30.9220   52.9170 N.3   155  VAL155     -0.1231
     70  CA       -31.9450   29.7740   53.2770 C.3   155  VAL155      0.1692
     71  C        -32.0720   29.6340   54.7960 C.2   155  VAL155      0.2591
     72  O        -33.1310   29.2610   55.3150 O.2   155  VAL155     -0.2718
     73  CB       -31.3820   28.4690   52.6850 C.3   155  VAL155      0.0266
     74  CG1      -32.1770   27.2660   53.1560 C.3   155  VAL155      0.0020
     75  CG2      -31.3980   28.5440   51.1900 C.3   155  VAL155      0.0020
     76  N        -30.9910   29.9340   55.5080 N.am  156  MET156     -0.1979
     77  CA       -30.9840   29.8470   56.9610 C.3   156  MET156      0.1605
     78  C        -31.9410   30.8180   57.6250 C.2   156  MET156      0.2287
     79  O        -32.4860   30.5030   58.6760 O.2   156  MET156     -0.2864
     80  CB       -29.5820   30.0530   57.5070 C.3   156  MET156      0.0413
     81  CG       -28.7570   28.8080   57.3540 C.3   156  MET156      0.0598
     82  SD       -29.7210   27.3840   57.9090 S.3   156  MET156     -0.1393
     83  CE       -29.2170   27.3060   59.6310 C.3   156  MET156      0.0692
     84  N        -35.0730   28.9650   57.4950 N.3   159  GLU159     -0.1245
     85  CA       -34.9990   27.7610   58.2970 C.3   159  GLU159      0.1567
     86  C        -35.0910   28.0380   59.8050 C.2   159  GLU159      0.2260
     87  O        -35.6830   27.2430   60.5350 O.2   159  GLU159     -0.2867
     88  CB       -33.7220   26.9930   57.9610 C.3   159  GLU159      0.0388
     89  CG       -33.8310   26.2720   56.6290 C.3   159  GLU159      0.1160
     90  CD       -34.8130   25.1180   56.6760 C.2   159  GLU159      0.3649
     91  OE1      -35.0350   24.5670   57.7710 O.co2 159  GLU159     -0.2457
     92  OE2      -35.3830   24.7720   55.6200 O.co2 159  GLU159     -0.2457
@<TRIPOS>BOND
     1    11     9    1
     2    10     9    1
     3     9     8    2
     4    75    73    1
     5    60    61    1
     6     8     7    1
     7    61    64    1
     8    61    62    1
     9    51    50    2
    10    73    74    1
    11    73    70    1
    12    64    65    1
    13    69    70    1
    14    65    66    1
    15    54    56   ar
    16    54    53   ar
    17    56    58   ar
    18    70    71    1
    19     7     6    1
    20    62    63    2
    21    50    49    1
    22    68    66   ar
    23    66    67   ar
    24    49    52    1
    25    49    48    1
    26    52    53    1
    27    53    55   ar
    28    58    59    1
    29    58    57   ar
    30     5     6    1
    31     5     2    1
    32    71    72    2
    33    71    76   am
    34     4     3    2
    35    76    77    1
    36    55    57   ar
    37     3     2    1
    38    92    90   ar
    39     2     1    1
    40    89    90    1
    41    89    88    1
    42    90    91   ar
    43    77    80    1
    44    77    78    1
    45    45    44    2
    46    81    80    1
    47    81    82    1
    48    84    85    1
    49    78    79    2
    50    12    13    1
    51    82    83    1
    52    88    85    1
    53    37    36    2
    54    47    46    1
    55    44    43    1
    56    85    86    1
    57    43    46    1
    58    43    42    1
    59    40    39    2
    60    13    14    1
    61    13    16    1
    62    15    14    2
    63    36    42   am
    64    36    35    1
    65    14    19   am
    66    41    39   am
    67    39    38    1
    68    19    20    1
    69    19    25    1
    70    20    23    1
    71    20    21    1
    72    24    25    1
    73    24    23    1
    74    86    87    2
    75    16    17    1
    76    16    18    1
    77    26    21   am
    78    26    27    1
    79    35    38    1
    80    35    34    1
    81    21    22    2
    82    30    27    1
    83    30    31    1
    84    33    31    1
    85    27    28    1
    86    31    32    1
    87    28    29    2
