@<TRIPOS>MOLECULE
tmp/4ymxB00.pdb
 128 120 0 0 0
SMALL
GASTEIGER

@<TRIPOS>ATOM
      1  N          5.4790    9.3290   18.7490 N.3     8  SER8       -0.1217
      2  CA         5.7040   10.5140   17.9440 C.3     8  SER8        0.1889
      3  C          5.8060   10.0330   16.5030 C.2     8  SER8        0.2288
      4  O          6.8330    9.4820   16.1010 O.2     8  SER8       -0.2866
      5  CB         6.9910   11.2110   18.3870 C.3     8  SER8        0.2089
      6  OG         7.2720   12.3590   17.6000 O.3     8  SER8       -0.2183
      7  N          6.5210   10.7880   13.4910 N.3    10  ASP10      -0.1225
      8  CA         7.3550   11.5540   12.5720 C.3    10  ASP10       0.1805
      9  C          8.6030   10.7590   12.2320 C.2    10  ASP10       0.2597
     10  O          9.6240   11.3250   11.8370 O.2    10  ASP10      -0.2718
     11  CB         7.7800   12.8730   13.2340 C.3    10  ASP10       0.1424
     12  CG         8.5460   12.6680   14.5420 C.2    10  ASP10       0.3668
     13  OD1        8.5780   11.5370   15.0700 O.co2  10  ASP10      -0.2456
     14  OD2        9.1040   13.6540   15.0580 O.co2  10  ASP10      -0.2456
     15  N          8.5140    9.4420   12.3710 N.am   11  PHE11      -0.1976
     16  CA         9.7040    8.5950   12.4650 C.3    11  PHE11       0.1639
     17  C          9.5550    7.3420   11.6000 C.2    11  PHE11       0.2290
     18  O          9.6180    6.2090   12.1020 O.2    11  PHE11      -0.2864
     19  CB         9.9130    8.2170   13.9400 C.3    11  PHE11       0.0560
     20  CG        11.3620    8.0540   14.3650 C.ar   11  PHE11      -0.0200
     21  CD1       11.8110    6.8490   14.9000 C.ar   11  PHE11      -0.0042
     22  CD2       12.2510    9.1150   14.2930 C.ar   11  PHE11      -0.0042
     23  CE1       13.1300    6.7070   15.3390 C.ar   11  PHE11      -0.0003
     24  CE2       13.5700    8.9780   14.7260 C.ar   11  PHE11      -0.0003
     25  CZ        14.0070    7.7710   15.2460 C.ar   11  PHE11      -0.0000
     26  N          7.0480    4.7330   13.0290 N.3    15  GLU15      -0.1245
     27  CA         5.7100    5.2820   13.1550 C.3    15  GLU15       0.1567
     28  C          5.6130    6.5290   12.2940 C.2    15  GLU15       0.2260
     29  O          6.4760    7.4200   12.3590 O.2    15  GLU15      -0.2867
     30  CB         5.3560    5.6160   14.6070 C.3    15  GLU15       0.0388
     31  CG         6.4140    6.4320   15.3460 C.3    15  GLU15       0.1160
     32  CD         7.3890    5.5520   16.0800 C.2    15  GLU15       0.3649
     33  OE1        6.9800    4.4160   16.4370 O.co2  15  GLU15      -0.2457
     34  OE2        8.5480    5.9600   16.2850 O.co2  15  GLU15      -0.2457
     35  N          7.8520   13.9740   20.5830 N.3    52  PHE52      -0.1241
     36  CA         8.6500   12.9520   21.2570 C.3    52  PHE52       0.1605
     37  C          8.9880   13.3290   22.7010 C.2    52  PHE52       0.2264
     38  O          8.9000   12.4950   23.6020 O.2    52  PHE52      -0.2867
     39  CB         9.9290   12.6570   20.4750 C.3    52  PHE52       0.0534
     40  CG        10.7730   11.5860   21.1000 C.ar   52  PHE52      -0.0203
     41  CD1       10.5450   10.2500   20.8170 C.ar   52  PHE52      -0.0042
     42  CD2       11.7820   11.9070   21.9970 C.ar   52  PHE52      -0.0042
     43  CE1       11.3230    9.2630   21.4100 C.ar   52  PHE52      -0.0003
     44  CE2       12.5480   10.9200   22.5830 C.ar   52  PHE52      -0.0003
     45  CZ        12.3230    9.5970   22.2780 C.ar   52  PHE52      -0.0000
     46  N          8.2310    4.1840   20.3400 N.3    69  ALA69      -0.1231
     47  CA         8.5960    5.3310   19.5070 C.3    69  ALA69       0.1694
     48  C         10.0600    5.3200   19.1200 C.2    69  ALA69       0.2593
     49  O         10.7430    6.3480   19.2270 O.2    69  ALA69      -0.2718
     50  CB         8.2580    6.6330   20.2280 C.3    69  ALA69       0.0304
     51  N         10.5480    4.1530   18.6910 N.am   70  GLY70      -0.1942
     52  CA        11.9670    3.9920   18.3950 C.3    70  GLY70       0.2014
     53  C         12.8170    4.5130   19.5540 C.2    70  GLY70       0.2639
     54  O         13.8560    5.1650   19.3540 O.2    70  GLY70      -0.2714
     55  N         12.3540    4.2400   20.7730 N.am   71  MET71      -0.1963
     56  CA        12.9100    4.8540   21.9710 C.3    71  MET71       0.1736
     57  C         14.0340    4.0390   22.5950 C.2    71  MET71       0.2617
     58  O         13.8690    2.8690   22.9240 O.2    71  MET71      -0.2715
     59  CB        11.8140    5.1100   23.0110 C.3    71  MET71       0.0427
     60  CG        12.3460    5.8330   24.2540 C.3    71  MET71       0.0599
     61  SD        11.0730    6.2180   25.4650 S.3    71  MET71      -0.1393
     62  CE        10.3780    7.7040   24.7370 C.3    71  MET71       0.0692
     63  N         15.1790    4.6800   22.7760 N.am   72  THR72      -0.1951
     64  CA        16.3420    4.0130   23.3400 C.3    72  THR72       0.1897
     65  C         16.2450    3.8970   24.8610 C.2    72  THR72       0.2313
     66  O         15.9440    4.8760   25.5480 O.2    72  THR72      -0.2863
     67  CB        17.6200    4.7850   22.9470 C.3    72  THR72       0.1794
     68  OG1       17.6960    4.8420   21.5190 O.3    72  THR72      -0.2208
     69  CG2       18.8580    4.0940   23.4740 C.3    72  THR72       0.0378
     70  N         17.0280    7.3380   31.3840 N.3    77  ARG77      -0.1245
     71  CA        15.5930    7.1120   31.2830 C.3    77  ARG77       0.1563
     72  C         15.1130    5.9990   32.2090 C.2    77  ARG77       0.2260
     73  O         14.0060    6.0730   32.7350 O.2    77  ARG77      -0.2867
     74  CB        15.1950    6.8230   29.8290 C.3    77  ARG77       0.0307
     75  CG        15.2500    8.0550   28.9320 C.3    77  ARG77       0.0489
     76  CD        15.1220    7.6530   27.4770 C.3    77  ARG77       0.2205
     77  NE        15.1870    8.8050   26.5880 N.pl3  77  ARG77      -0.0865
     78  CZ        15.3330    8.7140   25.2730 C.cat  77  ARG77       0.5346
     79  NH1       15.4390    7.5100   24.7030 N.pl3  77  ARG77       0.1354
     80  NH2       15.3680    9.8160   24.5300 N.pl3  77  ARG77       0.1354
     81  N         16.1660   16.5470   17.3170 N.3   116  GLN116     -0.1245
     82  CA        14.8860   16.4320   17.9890 C.3   116  GLN116      0.1566
     83  C         15.0570   16.5690   19.4950 C.2   116  GLN116      0.2260
     84  O         15.8850   15.8790   20.1160 O.2   116  GLN116     -0.2867
     85  CB        14.2220   15.0960   17.6580 C.3   116  GLN116      0.0367
     86  CG        12.8700   14.9460   18.2910 C.3   116  GLN116      0.0905
     87  CD        12.0610   13.8380   17.6510 C.2   116  GLN116      0.2608
     88  OE1       12.5560   12.7230   17.4220 O.2   116  GLN116     -0.2717
     89  NE2       10.8140   14.1490   17.3250 N.am  116  GLN116     -0.0878
     90  N         16.0790   13.7560   22.7290 N.3   119  THR119     -0.1203
     91  CA        16.5640   12.5210   22.1110 C.3   119  THR119      0.1994
     92  C         18.0430   12.2220   22.3070 C.2   119  THR119      0.2619
     93  O         18.8500   13.1060   22.6260 O.2   119  THR119     -0.2717
     94  CB        16.2800   12.4780   20.5890 C.3   119  THR119      0.1784
     95  OG1       17.0410   13.4940   19.9160 O.3   119  THR119     -0.2211
     96  CG2       14.7840   12.6500   20.3040 C.3   119  THR119      0.0376
     97  N         18.4000   10.9690   22.0500 N.am  120  THR120     -0.1938
     98  CA        19.8130   10.6040   22.0010 C.3   120  THR120      0.2028
     99  C         20.5430   11.2930   20.8490 C.2   120  THR120      0.2642
    100  O         21.7550   11.5060   20.9240 O.2   120  THR120     -0.2714
    101  CB        20.0120    9.1000   21.8860 C.3   120  THR120      0.1808
    102  OG1       19.3390    8.6340   20.7120 O.3   120  THR120     -0.2208
    103  CG2       19.4420    8.4120   23.1100 C.3   120  THR120      0.0379
    104  N         19.8170   11.6390   19.7860 N.am  121  SER121     -0.1949
    105  CA        20.4030   12.3880   18.6760 C.3   121  SER121      0.1924
    106  C         20.8300   13.7660   19.1730 C.2   121  SER121      0.2314
    107  O         21.9250   14.2420   18.8600 O.2   121  SER121     -0.2863
    108  CB        19.3950   12.5140   17.5290 C.3   121  SER121      0.2116
    109  OG        18.9620   11.2270   17.0920 O.3   121  SER121     -0.2180
    110  N         18.5210    8.9450   13.3480 N.3   157  GLU157     -0.1245
    111  CA        18.8490    7.5470   13.1150 C.3   157  GLU157      0.1567
    112  C         18.8550    7.1610   11.6400 C.2   157  GLU157      0.2260
    113  O         18.0920    7.7020   10.8320 O.2   157  GLU157     -0.2867
    114  CB        17.9560    6.6380   13.9460 C.3   157  GLU157      0.0388
    115  CG        18.4870    6.4960   15.3510 C.3   157  GLU157      0.1160
    116  CD        17.3960    6.4600   16.3870 C.2   157  GLU157      0.3649
    117  OE1       17.3370    7.3890   17.2180 O.co2 157  GLU157     -0.2457
    118  OE2       16.6180    5.4920   16.3890 O.co2 157  GLU157     -0.2457
    119  N         19.6510    1.4010   20.0870 N.3   185  GLY185     -0.1210
    120  CA        18.5840    0.4160   20.1210 C.3   185  GLY185      0.1956
    121  C         17.2500    0.9980   20.5310 C.2   185  GLY185      0.2612
    122  O         17.1750    2.1210   21.0260 O.2   185  GLY185     -0.2717
    123  N         16.1890    0.2220   20.3250 N.am  186  SER186     -0.1952
    124  CA        14.8360    0.6480   20.6600 C.3   186  SER186      0.1924
    125  C         14.1370   -0.3790   21.5420 C.2   186  SER186      0.2314
    126  O         14.2900   -1.5870   21.3510 O.2   186  SER186     -0.2863
    127  CB        14.0290    0.8850   19.3910 C.3   186  SER186      0.2116
    128  OG        14.6270    1.9200   18.6220 O.3   186  SER186     -0.2180
@<TRIPOS>BOND
     1   113   112    2
     2    17    18    2
     3    17    16    1
     4   112   111    1
     5    10     9    2
     6     9    15   am
     7     9     8    1
     8    28    29    2
     9    28    27    1
    10    15    16    1
    11    16    19    1
    12     8    11    1
    13     8     7    1
    14    26    27    1
    15   111   110    1
    16   111   114    1
    17    27    30    1
    18    11    12    1
    19    19    20    1
    20   114   115    1
    21    22    20   ar
    22    22    24   ar
    23    20    21   ar
    24    12    14   ar
    25    12    13   ar
    26    30    31    1
    27    24    25   ar
    28    21    23   ar
    29    25    23   ar
    30    31    32    1
    31   115   116    1
    32    32    34   ar
    33    32    33   ar
    34     4     3    2
    35   116   118   ar
    36   116   117   ar
    37     3     2    1
    38   109   108    1
    39    81    82    1
    40    89    87   am
    41    88    87    2
    42   108   105    1
    43     6     5    1
    44    87    86    1
    45    85    82    1
    46    85    86    1
    47     2     5    1
    48     2     1    1
    49    82    83    1
    50    52    51    1
    51    52    53    1
    52   128   127    1
    53   105   106    1
    54   105   104    1
    55    51    48   am
    56   107   106    2
    57    48    49    2
    58    48    47    1
    59    54    53    2
    60   127   124    1
    61    83    84    2
    62    47    50    1
    63    47    46    1
    64    53    55   am
    65   104    99   am
    66    95    94    1
    67   119   120    1
    68   120   121    1
    69    96    94    1
    70   123   121   am
    71   123   124    1
    72    39    40    1
    73    39    36    1
    74   121   122    2
    75    35    36    1
    76    94    91    1
    77   124   125    1
    78   102   101    1
    79    55    56    1
    80    41    40   ar
    81    41    43   ar
    82    99   100    2
    83    99    98    1
    84    40    42   ar
    85    36    37    1
    86   126   125    2
    87    43    45   ar
    88    68    67    1
    89   101    98    1
    90   101   103    1
    91    56    57    1
    92    56    59    1
    93    42    44   ar
    94    98    97    1
    95    97    92   am
    96    91    92    1
    97    91    90    1
    98    45    44   ar
    99    92    93    2
   100    57    63   am
   101    57    58    2
   102    37    38    2
   103    63    64    1
   104    67    64    1
   105    67    69    1
   106    59    60    1
   107    64    65    1
   108    60    61    1
   109    80    78    1
   110    79    78    1
   111    62    61    1
   112    65    66    2
   113    78    77    2
   114    77    76    1
   115    76    75    1
   116    75    74    1
   117    74    71    1
   118    71    70    1
   119    71    72    1
   120    72    73    2
