@<TRIPOS>MOLECULE
tmp/4ymzA00.pdb
 98 92 0 0 0
SMALL
GASTEIGER

@<TRIPOS>ATOM
      1  N         26.3860  -19.0890   19.9550 N.3     9  ASN9       -0.1240
      2  CA        25.5900  -20.0510   19.2400 C.3     9  ASN9        0.1653
      3  C         24.2120  -20.1770   19.8290 C.2     9  ASN9        0.2266
      4  O         24.0200  -20.6400   20.9850 O.2     9  ASN9       -0.2867
      5  CB        26.3720  -21.3830   19.2390 C.3     9  ASN9        0.1155
      6  CG        25.6590  -22.4940   18.4830 C.2     9  ASN9        0.2627
      7  OD1       24.6080  -22.3260   17.8190 O.2     9  ASN9       -0.2716
      8  ND2       26.2750  -23.7000   18.5780 N.am    9  ASN9       -0.0877
      9  N         21.8970  -22.0070   18.7250 N.3    11  LYS11      -0.1245
     10  CA        21.3700  -23.3180   18.3930 C.3    11  LYS11       0.1561
     11  C         19.9250  -23.2640   17.8730 C.2    11  LYS11       0.2260
     12  O         19.5410  -22.4300   17.0400 O.2    11  LYS11      -0.2867
     13  CB        21.5430  -24.2170   19.6550 C.3    11  LYS11       0.0271
     14  CG        22.9470  -24.1710   20.2420 C.3    11  LYS11       0.0035
     15  CD        23.2150  -25.3050   21.2720 C.3    11  LYS11       0.0206
     16  CE        24.6710  -25.1940   21.6520 C.3    11  LYS11       0.1093
     17  NZ        25.0440  -26.2480   22.5970 N.3    11  LYS11      -0.1314
     18  N         29.7310  -29.1800   14.7110 N.3    96  HIS96      -0.1241
     19  CA        29.2640  -29.0240   16.0690 C.3    96  HIS96       0.1621
     20  C         28.8450  -30.4120   16.6320 C.2    96  HIS96       0.2264
     21  O         28.3410  -31.2580   15.9220 O.2    96  HIS96      -0.2867
     22  CB        28.0300  -28.1060   16.1380 C.3    96  HIS96       0.0745
     23  CG        27.7160  -27.7290   17.5310 C.ar   96  HIS96       0.0817
     24  ND1       26.9200  -28.4760   18.3720 N.ar   96  HIS96      -0.2268
     25  CD2       28.1420  -26.6740   18.2580 C.ar   96  HIS96       0.1154
     26  CE1       26.9070  -27.9210   19.5620 C.ar   96  HIS96       0.1986
     27  NE2       27.6350  -26.8190   19.5010 N.ar   96  HIS96      -0.2212
     28  N         35.1520  -28.1580   21.9510 N.3   168  GLU168     -0.1245
     29  CA        34.0420  -28.2580   22.8210 C.3   168  GLU168      0.1567
     30  C         33.9160  -29.6760   23.2920 C.2   168  GLU168      0.2260
     31  O         33.3440  -30.5420   22.5870 O.2   168  GLU168     -0.2867
     32  CB        32.7080  -27.8060   22.1900 C.3   168  GLU168      0.0388
     33  CG        32.6900  -26.3900   21.6300 C.3   168  GLU168      0.1160
     34  CD        31.2390  -25.8100   21.6270 C.2   168  GLU168      0.3649
     35  OE1       30.3560  -26.4280   20.9890 O.co2 168  GLU168     -0.2457
     36  OE2       30.9610  -24.7740   22.3090 O.co2 168  GLU168     -0.2457
     37  N         31.1370  -31.0540   28.5620 N.3   172  ALA172     -0.1231
     38  CA        30.9090  -29.6530   28.9810 C.3   172  ALA172      0.1694
     39  C         29.7560  -28.9550   28.2710 C.2   172  ALA172      0.2592
     40  O         29.5000  -27.7940   28.5730 O.2   172  ALA172     -0.2718
     41  CB        32.1620  -28.8250   28.6980 C.3   172  ALA172      0.0304
     42  N         29.1120  -29.6170   27.3060 N.am  173  ILE173     -0.1966
     43  CA        28.0450  -28.9420   26.5150 C.3   173  ILE173      0.1727
     44  C         26.7120  -29.0220   27.2430 C.2   173  ILE173      0.2616
     45  O         26.1950  -30.1050   27.4420 O.2   173  ILE173     -0.2715
     46  CB        27.9540  -29.5100   25.0850 C.3   173  ILE173      0.0290
     47  CG1       29.2520  -29.1160   24.3550 C.3   173  ILE173      0.0022
     48  CG2       26.7640  -28.9270   24.3020 C.3   173  ILE173      0.0023
     49  CD1       29.4900  -29.7780   23.0000 C.3   173  ILE173      0.0001
     50  N         26.1660  -27.8760   27.6440 N.am  174  GLY174     -0.1955
     51  CA        24.8970  -27.8810   28.3870 C.3   174  GLY174      0.1869
     52  C         24.8400  -28.6230   29.7210 C.2   174  GLY174      0.2309
     53  O         23.7580  -28.8080   30.2670 O.2   174  GLY174     -0.2863
     54  N         31.7570  -24.8540   25.7880 N.3   215  GLY215     -0.1210
     55  CA        31.1910  -25.8000   26.6910 C.3   215  GLY215      0.1956
     56  C         31.0070  -25.1760   28.0500 C.2   215  GLY215      0.2613
     57  O         31.9430  -25.1270   28.8290 O.2   215  GLY215     -0.2717
     58  N         29.7830  -24.7240   28.3500 N.am  216  SER216     -0.1938
     59  CA        29.5050  -24.1060   29.6150 C.3   216  SER216      0.2055
     60  C         30.3120  -22.8420   29.9250 C.2   216  SER216      0.2642
     61  O         30.5400  -22.5340   31.0790 O.2   216  SER216     -0.2714
     62  CB        29.5870  -25.1470   30.7530 C.3   216  SER216      0.2130
     63  OG        28.6720  -26.2510   30.4990 O.3   216  SER216     -0.2179
     64  N         30.6850  -22.0860   28.8940 N.am  217  VAL217     -0.1977
     65  CA        31.2770  -20.7720   29.0560 C.3   217  VAL217      0.1596
     66  C         30.2110  -19.7830   29.5900 C.2   217  VAL217      0.2287
     67  O         29.0580  -19.8160   29.1730 O.2   217  VAL217     -0.2864
     68  CB        31.8850  -20.2430   27.7180 C.3   217  VAL217      0.0276
     69  CG1       32.4740  -18.8680   27.8670 C.3   217  VAL217      0.0022
     70  CG2       33.0080  -21.1460   27.2750 C.3   217  VAL217      0.0022
     71  N         33.3540  -20.0720   22.4150 N.3   235  LEU235     -0.1231
     72  CA        32.1330  -20.3700   21.6880 C.3   235  LEU235      0.1693
     73  C         31.0770  -20.7090   22.7190 C.2   235  LEU235      0.2592
     74  O         31.2130  -21.6920   23.3940 O.2   235  LEU235     -0.2718
     75  CB        32.3180  -21.5600   20.7490 C.3   235  LEU235      0.0284
     76  CG        31.1430  -21.9300   19.9210 C.3   235  LEU235      0.0019
     77  CD1       30.5690  -20.8730   19.0510 C.3   235  LEU235      0.0001
     78  CD2       31.5010  -23.0660   18.9720 C.3   235  LEU235      0.0001
     79  N         30.0050  -19.9120   22.7720 N.am  236  VAL236     -0.1966
     80  CA        29.1320  -19.8480   23.9100 C.3   236  VAL236      0.1727
     81  C         27.7370  -20.1910   23.5600 C.2   236  VAL236      0.2617
     82  O         27.1500  -19.6170   22.6430 O.2   236  VAL236     -0.2715
     83  CB        29.2040  -18.4300   24.5310 C.3   236  VAL236      0.0290
     84  CG1       28.5080  -18.4370   25.8570 C.3   236  VAL236      0.0023
     85  CG2       30.6490  -18.0350   24.6520 C.3   236  VAL236      0.0023
     86  N         27.1850  -21.1750   24.2450 N.am  237  GLY237     -0.1940
     87  CA        25.8420  -21.6130   23.9350 C.3   237  GLY237      0.2014
     88  C         24.7600  -20.8580   24.7320 C.2   237  GLY237      0.2639
     89  O         24.3180  -19.7590   24.3970 O.2   237  GLY237     -0.2714
     90  N         24.2950  -21.5360   25.7810 N.am  238  GLY238     -0.1939
     91  CA        23.2720  -21.0020   26.6370 C.3   238  GLY238      0.2014
     92  C         23.4770  -19.5560   27.0940 C.2   238  GLY238      0.2638
     93  O         22.5580  -18.7260   27.0090 O.2   238  GLY238     -0.2714
     94  N         24.6650  -19.2160   27.5360 N.am  239  ALA239     -0.1977
     95  CA        24.9300  -17.8620   28.0550 C.3   239  ALA239      0.1597
     96  C         24.9200  -16.8150   26.9690 C.2   239  ALA239      0.2287
     97  O         24.8480  -15.6000   27.2800 O.2   239  ALA239     -0.2864
     98  CB        26.2540  -17.7950   28.8420 C.3   239  ALA239      0.0319
@<TRIPOS>BOND
     1    18    19    1
     2    21    20    2
     3    19    22    1
     4    19    20    1
     5    22    23    1
     6    12    11    2
     7    23    25   ar
     8    23    24   ar
     9     7     6    2
    10    11    10    1
    11    25    27   ar
    12    24    26   ar
    13    10     9    1
    14    10    13    1
    15     6     8   am
    16     6     5    1
    17    78    76    1
    18    77    76    1
    19     5     2    1
    20     2     3    1
    21     2     1    1
    22    27    26   ar
    23    13    14    1
    24     3     4    2
    25    76    75    1
    26    14    15    1
    27    75    72    1
    28    35    34   ar
    29    15    16    1
    30    34    33    1
    31    34    36   ar
    32    33    32    1
    33    16    17    1
    34    72    71    1
    35    72    73    1
    36    28    29    1
    37    32    29    1
    38    31    30    2
    39    82    81    2
    40    73    79   am
    41    73    74    2
    42    79    80    1
    43    29    30    1
    44    49    47    1
    45    81    80    1
    46    81    86   am
    47    80    83    1
    48    87    86    1
    49    87    88    1
    50    48    46    1
    51    47    46    1
    52    89    88    2
    53    83    85    1
    54    83    84    1
    55    88    90   am
    56    46    43    1
    57    90    91    1
    58    54    55    1
    59    43    44    1
    60    43    42    1
    61    91    92    1
    62    55    56    1
    63    96    97    2
    64    96    95    1
    65    93    92    2
    66    92    94   am
    67    44    45    2
    68    44    50   am
    69    70    68    1
    70    42    39   am
    71    94    95    1
    72    50    51    1
    73    68    69    1
    74    68    65    1
    75    56    58   am
    76    56    57    2
    77    95    98    1
    78    39    40    2
    79    39    38    1
    80    58    59    1
    81    51    52    1
    82    37    38    1
    83    41    38    1
    84    64    65    1
    85    64    60   am
    86    65    66    1
    87    67    66    2
    88    59    60    1
    89    59    62    1
    90    52    53    2
    91    60    61    2
    92    63    62    1
