@<TRIPOS>MOLECULE
tmp/4yn3A08.pdb
 76 76 0 0 0
SMALL
GASTEIGER

@<TRIPOS>ATOM
      1  N        -35.2620   26.7360    6.3280 N.3     7  PHE7       -0.1227
      2  CA       -35.2640   25.4960    5.5510 C.3     7  PHE7        0.1736
      3  C        -34.4260   24.4230    6.2640 C.2     7  PHE7        0.2595
      4  O        -34.7390   23.2300    6.2000 O.2     7  PHE7       -0.2718
      5  CB       -34.7070   25.7800    4.1440 C.3     7  PHE7        0.0547
      6  CG       -34.5610   24.5570    3.2770 C.ar    7  PHE7       -0.0202
      7  CD1      -35.6720   23.8010    2.9150 C.ar    7  PHE7       -0.0042
      8  CD2      -33.3050   24.1580    2.8270 C.ar    7  PHE7       -0.0042
      9  CE1      -35.5360   22.6620    2.1160 C.ar    7  PHE7       -0.0003
     10  CE2      -33.1550   23.0230    2.0280 C.ar    7  PHE7       -0.0003
     11  CZ       -34.2720   22.2740    1.6730 C.ar    7  PHE7       -0.0000
     12  N        -33.3730   24.8560    6.9550 N.am    8  LEU8       -0.1980
     13  CA       -32.4920   23.9520    7.6950 C.3     8  LEU8        0.1596
     14  C        -33.0400   23.5720    9.0770 C.2     8  LEU8        0.2287
     15  O        -32.4170   22.7890    9.7950 O.2     8  LEU8       -0.2864
     16  CB       -31.1100   24.5940    7.8810 C.3     8  LEU8        0.0297
     17  CG       -30.2110   24.7410    6.6510 C.3     8  LEU8        0.0022
     18  CD1      -28.9670   25.5600    7.0030 C.3     8  LEU8        0.0001
     19  CD2      -29.8210   23.3560    6.1550 C.3     8  LEU8        0.0001
     20  N        -38.0270   18.7950   -4.5660 N.3   358  SER358     -0.1202
     21  CA       -36.8420   17.9510   -4.6540 C.3   358  SER358      0.2020
     22  C        -35.6970   18.3970   -3.7460 C.2   358  SER358      0.2619
     23  O        -34.8820   17.5730   -3.3350 O.2   358  SER358     -0.2717
     24  CB       -36.3370   17.8940   -6.0970 C.3   358  SER358      0.2103
     25  OG       -37.2660   17.2320   -6.9390 O.3   358  SER358     -0.2182
     26  N        -35.6340   19.6920   -3.4380 N.am  359  ALA359     -0.1965
     27  CA       -34.5640   20.2350   -2.5920 C.3   359  ALA359      0.1713
     28  C        -34.4520   19.4990   -1.2610 C.2   359  ALA359      0.2458
     29  O        -35.4650   19.1430   -0.6600 O.2   359  ALA359     -0.2730
     30  CB       -34.8050   21.7200   -2.3460 C.3   359  ALA359      0.0333
     31  N        -33.2200   19.3010   -0.7560 N.am  360  PRO360     -0.2727
     32  CA       -31.9330   19.7160   -1.3330 C.3   360  PRO360      0.1402
     33  C        -31.3150   18.7710   -2.3670 C.2   360  PRO360      0.2269
     34  O        -31.3380   17.5500   -2.2080 O.2   360  PRO360     -0.2865
     35  CB       -31.0430   19.8430   -0.1060 C.3   360  PRO360      0.0296
     36  CG       -31.5030   18.6690    0.7200 C.3   360  PRO360      0.0237
     37  CD       -33.0220   18.7350    0.5940 C.3   360  PRO360      0.0939
     38  N        -28.1000   14.9680    7.1830 N.3   449  SER449     -0.1203
     39  CA       -29.2540   14.2460    6.6580 C.3   449  SER449      0.2005
     40  C        -28.8890   13.5730    5.3380 C.2   449  SER449      0.2461
     41  O        -28.3570   14.2200    4.4290 O.2   449  SER449     -0.2732
     42  CB       -30.4240   15.2070    6.4210 C.3   449  SER449      0.2103
     43  OG       -30.7860   15.8810    7.6110 O.3   449  SER449     -0.2182
     44  N        -29.1770   12.2660    5.2100 N.am  450  PRO450     -0.2717
     45  CA       -28.8610   11.5440    3.9770 C.3   450  PRO450      0.1535
     46  C        -29.5130   12.2130    2.7700 C.2   450  PRO450      0.2598
     47  O        -30.6600   12.6580    2.8420 O.2   450  PRO450     -0.2715
     48  CB       -29.4360   10.1510    4.2400 C.3   450  PRO450      0.0310
     49  CG       -29.3080   10.0110    5.7260 C.3   450  PRO450      0.0237
     50  CD       -29.7880   11.3610    6.2000 C.3   450  PRO450      0.0939
     51  N        -28.7820   12.3060    1.6660 N.am  451  MET451     -0.1964
     52  CA       -29.3410   12.9080    0.4690 C.3   451  MET451      0.1736
     53  C        -29.6810   11.8080   -0.5320 C.2   451  MET451      0.2616
     54  O        -29.2490   10.6660   -0.3760 O.2   451  MET451     -0.2715
     55  CB       -28.3750   13.9620   -0.0970 C.3   451  MET451      0.0427
     56  CG       -28.4090   15.2430    0.7490 C.3   451  MET451      0.0599
     57  SD       -27.3280   16.6110    0.2670 S.3   451  MET451     -0.1393
     58  CE       -28.0840   17.0930   -1.3010 C.3   451  MET451      0.0692
     59  N        -30.4720   12.1480   -1.5430 N.am  452  ASN452     -0.1972
     60  CA       -30.9230   11.1690   -2.5300 C.3   452  ASN452      0.1688
     61  C        -29.9390   10.9100   -3.6660 C.2   452  ASN452      0.2292
     62  O        -29.7150   11.7770   -4.5110 O.2   452  ASN452     -0.2864
     63  CB       -32.2600   11.6240   -3.1130 C.3   452  ASN452      0.1181
     64  CG       -33.0090   10.4980   -3.7960 C.2   452  ASN452      0.2629
     65  OD1      -32.4050    9.6230   -4.4140 O.2   452  ASN452     -0.2716
     66  ND2      -34.3320   10.5200   -3.6940 N.am  452  ASN452     -0.0877
     67  N        -26.7210   16.5020    3.7880 N.3   467  HIS467     -0.1241
     68  CA       -27.1930   17.8600    4.0550 C.3   467  HIS467      0.1621
     69  C        -27.0400   18.2210    5.5360 C.2   467  HIS467      0.2264
     70  O        -27.5690   17.5350    6.4090 O.2   467  HIS467     -0.2867
     71  CB       -28.6590   17.9640    3.6280 C.3   467  HIS467      0.0745
     72  CG       -29.1410   19.3670    3.4320 C.ar  467  HIS467      0.0817
     73  ND1      -30.1460   19.9210    4.1950 N.ar  467  HIS467     -0.2268
     74  CD2      -28.7770   20.3170    2.5380 C.ar  467  HIS467      0.1154
     75  CE1      -30.3820   21.1530    3.7780 C.ar  467  HIS467      0.1986
     76  NE2      -29.5650   21.4180    2.7740 N.ar  467  HIS467     -0.2212
@<TRIPOS>BOND
     1    25    24    1
     2    24    21    1
     3    21    20    1
     4    21    22    1
     5    62    61    2
     6    65    64    2
     7    64    66   am
     8    64    63    1
     9    22    26   am
    10    22    23    2
    11    61    60    1
    12    26    27    1
    13    63    60    1
    14    27    30    1
    15    27    28    1
    16    60    59    1
    17    33    34    2
    18    33    32    1
    19    59    53   am
    20    32    31    1
    21    32    35    1
    22    58    57    1
    23    28    31   am
    24    28    29    2
    25    31    37    1
    26    53    54    2
    27    53    52    1
    28    35    36    1
    29    55    52    1
    30    55    56    1
    31    57    56    1
    32    52    51    1
    33    37    36    1
    34    51    46   am
    35    11    10   ar
    36    11     9   ar
    37    10     8   ar
    38     9     7   ar
    39    74    76   ar
    40    74    72   ar
    41    46    47    2
    42    46    45    1
    43    76    75   ar
    44     8     6   ar
    45     7     6   ar
    46     6     5    1
    47    72    71    1
    48    72    73   ar
    49    71    68    1
    50    75    73   ar
    51    67    68    1
    52    45    48    1
    53    45    44    1
    54    68    69    1
    55     5     2    1
    56    48    49    1
    57    41    40    2
    58    44    40   am
    59    44    50    1
    60    40    39    1
    61    69    70    2
    62     2     3    1
    63     2     1    1
    64    49    50    1
    65    19    17    1
    66     4     3    2
    67     3    12   am
    68    42    39    1
    69    42    43    1
    70    17    18    1
    71    17    16    1
    72    39    38    1
    73    12    13    1
    74    13    16    1
    75    13    14    1
    76    14    15    2
