@<TRIPOS>MOLECULE
tmp/4yn3A00.pdb
 82 74 0 0 0
SMALL
GASTEIGER

@<TRIPOS>ATOM
      1  N        -29.4590   23.1190   -3.3320 N.3   219  THR219     -0.1218
      2  CA       -30.6510   23.9490   -3.4510 C.3   219  THR219      0.1862
      3  C        -31.4880   23.9450   -2.1740 C.2   219  THR219      0.2287
      4  O        -31.3140   23.0900   -1.3140 O.2   219  THR219     -0.2866
      5  CB       -31.5520   23.4270   -4.5910 C.3   219  THR219      0.1770
      6  OG1      -31.9410   22.0760   -4.2960 O.3   219  THR219     -0.2211
      7  CG2      -30.8080   23.4380   -5.9280 C.3   219  THR219      0.0375
      8  N        -37.4050   28.6660   -4.8360 N.3   223  LYS223     -0.1245
      9  CA       -36.7080   28.7640   -6.1120 C.3   223  LYS223      0.1561
     10  C        -37.2140   29.9890   -6.8680 C.2   223  LYS223      0.2260
     11  O        -38.4170   30.1360   -7.0840 O.2   223  LYS223     -0.2867
     12  CB       -36.9480   27.5110   -6.9590 C.3   223  LYS223      0.0271
     13  CG       -36.1400   27.5040   -8.2540 C.3   223  LYS223      0.0035
     14  CD       -36.5410   26.3790   -9.1830 C.3   223  LYS223      0.0206
     15  CE       -35.3260   25.8060   -9.9030 C.3   223  LYS223      0.1093
     16  NZ       -34.4380   26.8360  -10.5120 N.3   223  LYS223     -0.1314
     17  N        -42.2400   29.4510  -17.6880 N.3   237  GLN237     -0.1245
     18  CA       -41.5270   29.6120  -16.4270 C.3   237  GLN237      0.1566
     19  C        -40.0250   29.6140  -16.6780 C.2   237  GLN237      0.2260
     20  O        -39.4150   28.5610  -16.8470 O.2   237  GLN237     -0.2867
     21  CB       -41.8760   28.4770  -15.4640 C.3   237  GLN237      0.0367
     22  CG       -41.2800   28.6430  -14.0730 C.3   237  GLN237      0.0905
     23  CD       -41.5020   27.4240  -13.1970 C.2   237  GLN237      0.2608
     24  OE1      -40.7720   26.4320  -13.2870 O.2   237  GLN237     -0.2717
     25  NE2      -42.5180   27.4880  -12.3520 N.am  237  GLN237     -0.0878
     26  N        -30.7290   25.1610  -12.8780 N.3   314  ASP314     -0.1239
     27  CA       -30.9810   24.8620  -11.4770 C.3   314  ASP314      0.1674
     28  C        -30.5830   25.9650  -10.4850 C.2   314  ASP314      0.2266
     29  O        -30.5490   25.7410   -9.2780 O.2   314  ASP314     -0.2867
     30  CB       -30.3830   23.4970  -11.0800 C.3   314  ASP314      0.1410
     31  CG       -28.9060   23.3590  -11.4050 C.2   314  ASP314      0.3668
     32  OD1      -28.3350   24.2270  -12.1020 O.co2 314  ASP314     -0.2456
     33  OD2      -28.3190   22.3460  -10.9590 O.co2 314  ASP314     -0.2456
     34  N        -41.3060   29.6780   -6.4120 N.3   354  ILE354     -0.1231
     35  CA       -42.0940   28.4500   -6.3980 C.3   354  ILE354      0.1692
     36  C        -41.4220   27.5360   -5.3800 C.2   354  ILE354      0.2592
     37  O        -40.2930   27.7940   -4.9550 O.2   354  ILE354     -0.2718
     38  CB       -42.0980   27.7230   -7.7620 C.3   354  ILE354      0.0266
     39  CG1      -40.6800   27.2850   -8.1240 C.3   354  ILE354      0.0019
     40  CG2      -42.6980   28.6170   -8.8300 C.3   354  ILE354      0.0020
     41  CD1      -40.6040   26.4160   -9.3510 C.3   354  ILE354      0.0001
     42  N        -42.1110   26.4720   -4.9880 N.am  355  LEU355     -0.1966
     43  CA       -41.5510   25.5320   -4.0260 C.3   355  LEU355      0.1728
     44  C        -41.0620   24.3050   -4.7830 C.2   355  LEU355      0.2616
     45  O        -41.8420   23.6350   -5.4590 O.2   355  LEU355     -0.2715
     46  CB       -42.6140   25.1200   -3.0020 C.3   355  LEU355      0.0311
     47  CG       -42.1420   24.4700   -1.6910 C.3   355  LEU355      0.0022
     48  CD1      -43.3430   24.2330   -0.7810 C.3   355  LEU355      0.0001
     49  CD2      -41.4230   23.1570   -1.9710 C.3   355  LEU355      0.0001
     50  N        -39.7680   24.0160   -4.6870 N.am  356  ASN356     -0.1972
     51  CA       -39.2260   22.8460   -5.3590 C.3   356  ASN356      0.1688
     52  C        -39.1310   21.7230   -4.3290 C.2   356  ASN356      0.2292
     53  O        -38.2730   21.7440   -3.4480 O.2   356  ASN356     -0.2864
     54  CB       -37.8450   23.1450   -5.9430 C.3   356  ASN356      0.1181
     55  CG       -37.3350   22.0180   -6.8100 C.2   356  ASN356      0.2629
     56  OD1      -37.3540   20.8640   -6.3950 O.2   356  ASN356     -0.2716
     57  ND2      -36.8770   22.3410   -8.0140 N.am  356  ASN356     -0.0877
     58  N        -38.0270   18.7950   -4.5660 N.3   358  SER358     -0.1202
     59  CA       -36.8420   17.9510   -4.6540 C.3   358  SER358      0.2020
     60  C        -35.6970   18.3970   -3.7460 C.2   358  SER358      0.2618
     61  O        -34.8820   17.5730   -3.3350 O.2   358  SER358     -0.2717
     62  CB       -36.3370   17.8940   -6.0970 C.3   358  SER358      0.2103
     63  OG       -37.2660   17.2320   -6.9390 O.3   358  SER358     -0.2182
     64  N        -35.6340   19.6920   -3.4380 N.am  359  ALA359     -0.1979
     65  CA       -34.5640   20.2350   -2.5920 C.3   359  ALA359      0.1597
     66  C        -34.4520   19.4990   -1.2610 C.2   359  ALA359      0.2287
     67  O        -35.4650   19.1430   -0.6600 O.2   359  ALA359     -0.2864
     68  CB       -34.8050   21.7200   -2.3460 C.3   359  ALA359      0.0319
     69  N        -30.7550   19.3650   -3.4180 N.3   361  VAL361     -0.1245
     70  CA       -30.0780   18.6330   -4.4830 C.3   361  VAL361      0.1561
     71  C        -28.7780   19.3910   -4.7580 C.2   361  VAL361      0.2260
     72  O        -28.7820   20.6210   -4.7800 O.2   361  VAL361     -0.2867
     73  CB       -30.9150   18.6130   -5.7860 C.3   361  VAL361      0.0252
     74  CG1      -30.1460   17.9000   -6.8840 C.3   361  VAL361      0.0019
     75  CG2      -32.2560   17.9250   -5.5420 C.3   361  VAL361      0.0019
     76  N        -26.2050   21.3290   -6.6710 N.3   363  VAL363     -0.1245
     77  CA       -26.3480   22.0910   -7.9060 C.3   363  VAL363      0.1561
     78  C        -25.2680   21.7720   -8.9440 C.2   363  VAL363      0.2260
     79  O        -24.1650   21.3630   -8.6070 O.2   363  VAL363     -0.2867
     80  CB       -26.3750   23.6190   -7.5930 C.3   363  VAL363      0.0252
     81  CG1      -24.9940   24.0980   -7.1640 C.3   363  VAL363      0.0019
     82  CG2      -26.8870   24.3960   -8.7950 C.3   363  VAL363      0.0019
@<TRIPOS>BOND
     1    17    18    1
     2    20    19    2
     3    19    18    1
     4    18    21    1
     5    21    22    1
     6    22    23    1
     7    24    23    2
     8    23    25   am
     9    26    27    1
    10    32    31   ar
    11    27    30    1
    12    27    28    1
    13    31    30    1
    14    31    33   ar
    15    16    15    1
    16    28    29    2
    17    15    14    1
    18    41    39    1
    19    14    13    1
    20    78    79    2
    21    78    77    1
    22    40    38    1
    23    82    80    1
    24    13    12    1
    25    39    38    1
    26    57    55   am
    27    77    80    1
    28    77    76    1
    29    38    35    1
    30    80    81    1
    31    11    10    2
    32    12     9    1
    33    63    62    1
    34    74    73    1
    35    10     9    1
    36    55    56    2
    37    55    54    1
    38    34    35    1
    39    35    36    1
    40     9     8    1
    41    62    59    1
    42    54    51    1
    43     7     5    1
    44    73    75    1
    45    73    70    1
    46    45    44    2
    47    36    42   am
    48    36    37    2
    49    51    50    1
    50    51    52    1
    51    42    43    1
    52    44    50   am
    53    44    43    1
    54    72    71    2
    55    71    70    1
    56    59    58    1
    57    59    60    1
    58     5     6    1
    59     5     2    1
    60    70    69    1
    61    52    53    2
    62    43    46    1
    63    60    64   am
    64    60    61    2
    65     2     1    1
    66     2     3    1
    67    64    65    1
    68    46    47    1
    69    65    68    1
    70    65    66    1
    71     3     4    2
    72    49    47    1
    73    47    48    1
    74    66    67    2
