@<TRIPOS>MOLECULE
tmp/4yn3A03.pdb
 84 82 0 0 0
SMALL
GASTEIGER

@<TRIPOS>ATOM
      1  N        -20.2850   19.8820  -13.0940 N.3   200  PRO200     -0.2116
      2  CA       -20.5580   18.6570  -12.3320 C.3   200  PRO200      0.1372
      3  C        -19.6530   17.4410  -12.5430 C.2   200  PRO200      0.2244
      4  O        -19.9310   16.3750  -11.9840 O.2   200  PRO200     -0.2868
      5  CB       -21.9940   18.3450  -12.7240 C.3   200  PRO200      0.0268
      6  CG       -21.9690   18.6610  -14.2020 C.3   200  PRO200      0.0207
      7  CD       -21.1810   19.9710  -14.2660 C.3   200  PRO200      0.0892
      8  N        -30.7550   19.3650   -3.4180 N.3   361  VAL361     -0.1231
      9  CA       -30.0780   18.6330   -4.4830 C.3   361  VAL361      0.1692
     10  C        -28.7780   19.3910   -4.7580 C.2   361  VAL361      0.2591
     11  O        -28.7820   20.6210   -4.7800 O.2   361  VAL361     -0.2718
     12  CB       -30.9150   18.6130   -5.7860 C.3   361  VAL361      0.0266
     13  CG1      -30.1460   17.9000   -6.8840 C.3   361  VAL361      0.0020
     14  CG2      -32.2560   17.9250   -5.5420 C.3   361  VAL361      0.0020
     15  N        -27.6680   18.6850   -4.9480 N.am  362  VAL362     -0.1980
     16  CA       -26.4130   19.3820   -5.2310 C.3   362  VAL362      0.1595
     17  C        -26.5640   20.0500   -6.5960 C.2   362  VAL362      0.2287
     18  O        -27.0080   19.4200   -7.5580 O.2   362  VAL362     -0.2864
     19  CB       -25.2110   18.4230   -5.2450 C.3   362  VAL362      0.0276
     20  CG1      -23.9330   19.1890   -5.6130 C.3   362  VAL362      0.0022
     21  CG2      -25.0600   17.7770   -3.8750 C.3   362  VAL362      0.0022
     22  N        -25.6100   21.9610  -10.2130 N.3   364  SER364     -0.1217
     23  CA       -24.7090   21.6840  -11.3320 C.3   364  SER364      0.1889
     24  C        -23.2480   22.1110  -11.1850 C.2   364  SER364      0.2288
     25  O        -22.3430   21.3170  -11.4470 O.2   364  SER364     -0.2866
     26  CB       -25.2790   22.3180  -12.6050 C.3   364  SER364      0.2089
     27  OG       -25.4630   23.7190  -12.4300 O.3   364  SER364     -0.2183
     28  N        -16.9520   18.3970   -7.7010 N.3   368  ARG368     -0.1245
     29  CA       -17.0160   17.0160   -7.2420 C.3   368  ARG368      0.1563
     30  C        -15.6700   16.3620   -6.9560 C.2   368  ARG368      0.2260
     31  O        -14.6260   16.7520   -7.5030 O.2   368  ARG368     -0.2867
     32  CB       -17.7350   16.1500   -8.2890 C.3   368  ARG368      0.0307
     33  CG       -19.2460   16.0300   -8.1740 C.3   368  ARG368      0.0489
     34  CD       -20.0160   17.2710   -8.5890 C.3   368  ARG368      0.2205
     35  NE       -21.3640   16.8940   -9.0190 N.pl3 368  ARG368     -0.0865
     36  CZ       -22.3750   17.7360   -9.2070 C.cat 368  ARG368      0.5346
     37  NH1      -22.2170   19.0400   -8.9990 N.pl3 368  ARG368      0.1354
     38  NH2      -23.5500   17.2670   -9.6150 N.pl3 368  ARG368      0.1354
     39  N        -30.3870    9.2180   -6.1730 N.3   454  ARG454     -0.1231
     40  CA       -31.0770    9.1430   -7.4570 C.3   454  ARG454      0.1694
     41  C        -31.1240   10.5220   -8.1130 C.2   454  ARG454      0.2592
     42  O        -31.2710   10.6350   -9.3320 O.2   454  ARG454     -0.2718
     43  CB       -32.4960    8.5930   -7.2760 C.3   454  ARG454      0.0321
     44  CG       -32.5420    7.2520   -6.5470 C.3   454  ARG454      0.0489
     45  CD       -33.8980    6.5690   -6.6810 C.3   454  ARG454      0.2205
     46  NE       -34.0850    5.9700   -8.0010 N.pl3 454  ARG454     -0.0865
     47  CZ       -33.3690    4.9510   -8.4690 C.cat 454  ARG454      0.5346
     48  NH1      -32.4120    4.4080   -7.7250 N.pl3 454  ARG454      0.1354
     49  NH2      -33.6070    4.4740   -9.6850 N.pl3 454  ARG454      0.1354
     50  N        -31.0040   11.5680   -7.2980 N.am  455  PHE455     -0.1962
     51  CA       -31.0000   12.9390   -7.8030 C.3   455  PHE455      0.1771
     52  C        -29.5550   13.4030   -8.0100 C.2   455  PHE455      0.2620
     53  O        -29.3090   14.4230   -8.6520 O.2   455  PHE455     -0.2715
     54  CB       -31.7100   13.8920   -6.8260 C.3   455  PHE455      0.0574
     55  CG       -33.1970   13.6590   -6.6970 C.ar  455  PHE455     -0.0200
     56  CD1      -33.9110   13.0070   -7.6970 C.ar  455  PHE455     -0.0042
     57  CD2      -33.8910   14.1370   -5.5880 C.ar  455  PHE455     -0.0042
     58  CE1      -35.2930   12.8360   -7.5960 C.ar  455  PHE455     -0.0003
     59  CE2      -35.2710   13.9720   -5.4780 C.ar  455  PHE455     -0.0003
     60  CZ       -35.9730   13.3220   -6.4820 C.ar  455  PHE455     -0.0000
     61  N        -28.6090   12.6580   -7.4420 N.am  456  ASN456     -0.1959
     62  CA       -27.1750   12.9470   -7.5630 C.3   456  ASN456      0.1804
     63  C        -26.4280   11.6060   -7.5290 C.2   456  ASN456      0.2463
     64  O        -25.8520   11.2320   -6.5110 O.2   456  ASN456     -0.2730
     65  CB       -26.6890   13.8300   -6.4020 C.3   456  ASN456      0.1195
     66  CG       -27.1040   15.2920   -6.5480 C.2   456  ASN456      0.2630
     67  OD1      -27.5530   15.9160   -5.5860 O.2   456  ASN456     -0.2716
     68  ND2      -26.9340   15.8460   -7.7440 N.am  456  ASN456     -0.0877
     69  N        -26.4360   10.8660   -8.6520 N.am  457  PRO457     -0.2716
     70  CA       -25.7720    9.5610   -8.7670 C.3   457  PRO457      0.1536
     71  C        -24.2990    9.5220   -8.3660 C.2   457  PRO457      0.2598
     72  O        -23.7740    8.4650   -8.0120 O.2   457  PRO457     -0.2715
     73  CB       -25.9890    9.1940  -10.2330 C.3   457  PRO457      0.0310
     74  CG       -27.3330    9.8000  -10.5170 C.3   457  PRO457      0.0237
     75  CD       -27.1880   11.1730   -9.8820 C.3   457  PRO457      0.0939
     76  N        -23.6270   10.6650   -8.4220 N.am  458  GLN458     -0.1978
     77  CA       -22.2220   10.7060   -8.0380 C.3   458  GLN458      0.1601
     78  C        -22.1170   10.5100   -6.5250 C.2   458  GLN458      0.2287
     79  O        -21.0300   10.3480   -5.9760 O.2   458  GLN458     -0.2864
     80  CB       -21.6020   12.0300   -8.4910 C.3   458  GLN458      0.0394
     81  CG       -21.6020   12.1620  -10.0080 C.3   458  GLN458      0.0908
     82  CD       -21.2500   13.5530  -10.4860 C.2   458  GLN458      0.2608
     83  OE1      -21.9210   14.5250  -10.1410 O.2   458  GLN458     -0.2717
     84  NE2      -20.1970   13.6560  -11.2900 N.am  458  GLN458     -0.0878
@<TRIPOS>BOND
     1     7     6    1
     2     7     1    1
     3     6     5    1
     4     1     2    1
     5     5     2    1
     6    26    27    1
     7    26    23    1
     8     3     2    1
     9     3     4    2
    10    25    24    2
    11    23    24    1
    12    23    22    1
    13    84    82   am
    14    74    73    1
    15    74    75    1
    16    82    83    2
    17    82    81    1
    18    73    70    1
    19    81    80    1
    20    75    69    1
    21    49    47    1
    22    38    36    1
    23    42    41    2
    24    36    35    2
    25    36    37    1
    26    35    34    1
    27    70    69    1
    28    70    71    1
    29    53    52    2
    30    69    63   am
    31    34    33    1
    32    80    77    1
    33    47    46    2
    34    47    48    1
    35    76    71   am
    36    76    77    1
    37    71    72    2
    38    32    33    1
    39    32    29    1
    40    41    40    1
    41    41    50   am
    42    77    78    1
    43    52    51    1
    44    52    61   am
    45    46    45    1
    46    51    50    1
    47    51    54    1
    48    68    66   am
    49    28    29    1
    50    56    58   ar
    51    56    55   ar
    52    58    60   ar
    53    62    63    1
    54    62    61    1
    55    62    65    1
    56    18    17    2
    57    63    64    2
    58    31    30    2
    59    40    43    1
    60    40    39    1
    61    43    44    1
    62    29    30    1
    63    13    12    1
    64    54    55    1
    65    55    57   ar
    66    45    44    1
    67    17    16    1
    68    66    65    1
    69    66    67    2
    70    78    79    2
    71    60    59   ar
    72    12    14    1
    73    12     9    1
    74    20    19    1
    75    57    59   ar
    76    19    16    1
    77    19    21    1
    78    16    15    1
    79    15    10   am
    80    11    10    2
    81    10     9    1
    82     9     8    1
