@<TRIPOS>MOLECULE
tmp/4ynbA00.pdb
 155 147 0 0 0
SMALL
GASTEIGER

@<TRIPOS>ATOM
      1  N         11.1860   40.8230  -28.9000 N.3     9  ALA9       -0.1231
      2  CA        11.0610   40.3000  -30.2650 C.3     9  ALA9        0.1694
      3  C         12.3890   39.7680  -30.8420 C.2     9  ALA9        0.2591
      4  O         12.4500   38.6900  -31.4810 O.2     9  ALA9       -0.2718
      5  CB        10.4870   41.3760  -31.1800 C.3     9  ALA9        0.0304
      6  N         13.4370   40.5700  -30.6550 N.am   10  MET10      -0.1979
      7  CA        14.7610   40.3040  -31.1950 C.3    10  MET10       0.1605
      8  C         15.6720   39.8780  -30.0730 C.2    10  MET10       0.2287
      9  O         15.4880   40.3010  -28.9250 O.2    10  MET10      -0.2864
     10  CB        15.3390   41.5820  -31.8170 C.3    10  MET10       0.0413
     11  CG        14.5360   42.0830  -32.9930 C.3    10  MET10       0.0598
     12  SD        15.1700   43.6430  -33.6590 S.3    10  MET10      -0.1393
     13  CE        16.6850   43.0850  -34.4290 C.3    10  MET10       0.0692
     14  N         16.8410   42.5800  -27.8810 N.3    13  GLU13      -0.1245
     15  CA        15.9330   43.0970  -26.8360 C.3    13  GLU13       0.1567
     16  C         15.9810   42.3500  -25.5050 C.2    13  GLU13       0.2260
     17  O         15.6650   42.9250  -24.4370 O.2    13  GLU13      -0.2867
     18  CB        14.4940   43.2270  -27.3800 C.3    13  GLU13       0.0388
     19  CG        14.4240   44.3070  -28.4650 C.3    13  GLU13       0.1160
     20  CD        13.1540   44.2990  -29.2780 C.2    13  GLU13       0.3649
     21  OE1       12.6450   43.2030  -29.5440 O.co2  13  GLU13      -0.2457
     22  OE2       12.6710   45.4060  -29.6660 O.co2  13  GLU13      -0.2457
     23  N         10.7510   38.2520  -35.0210 N.3    52  ILE52      -0.1245
     24  CA        10.0240   39.4090  -35.4580 C.3    52  ILE52       0.1561
     25  C          8.6150   39.1190  -35.9960 C.2    52  ILE52       0.2260
     26  O          8.3800   38.1530  -36.7170 O.2    52  ILE52      -0.2867
     27  CB        10.8500   40.1760  -36.5160 C.3    52  ILE52       0.0252
     28  CG1       12.0980   40.8010  -35.8560 C.3    52  ILE52       0.0019
     29  CG2       10.0220   41.2920  -37.1350 C.3    52  ILE52       0.0019
     30  CD1       13.2530   41.0710  -36.8120 C.3    52  ILE52       0.0001
     31  N         11.9910   47.9030  -28.4370 N.3    78  VAL78      -0.1231
     32  CA        12.0830   49.2000  -29.0570 C.3    78  VAL78       0.1692
     33  C         10.9080   49.4480  -30.0120 C.2    78  VAL78       0.2592
     34  O         10.1750   48.5180  -30.3820 O.2    78  VAL78      -0.2718
     35  CB        13.4570   49.3810  -29.7460 C.3    78  VAL78       0.0266
     36  CG1       14.5880   49.1310  -28.7540 C.3    78  VAL78       0.0020
     37  CG2       13.6160   48.4800  -30.9700 C.3    78  VAL78       0.0020
     38  N         10.6980   50.7100  -30.3740 N.am   79  ALA79      -0.1966
     39  CA         9.5740   51.0860  -31.2290 C.3    79  ALA79       0.1728
     40  C          9.8790   52.3730  -32.0120 C.2    79  ALA79       0.2616
     41  O         10.7730   53.1290  -31.6450 O.2    79  ALA79      -0.2715
     42  CB         8.3130   51.2730  -30.3970 C.3    79  ALA79       0.0334
     43  N          9.1220   52.6010  -33.0780 N.am   80  GLY80      -0.1955
     44  CA         9.1640   53.8600  -33.8110 C.3    80  GLY80       0.1869
     45  C          8.1870   54.8650  -33.2400 C.2    80  GLY80       0.2309
     46  O          7.0650   54.5240  -32.9080 O.2    80  GLY80      -0.2863
     47  N          5.0870   45.1250  -41.1130 N.3   152  GLN152     -0.1231
     48  CA         5.9650   45.9330  -41.9500 C.3   152  GLN152      0.1698
     49  C          6.7850   46.8580  -41.0460 C.2   152  GLN152      0.2592
     50  O          6.2770   47.3640  -40.0290 O.2   152  GLN152     -0.2718
     51  CB         5.1610   46.8010  -42.9460 C.3   152  GLN152      0.0381
     52  CG         4.0880   46.0530  -43.7080 C.3   152  GLN152      0.0905
     53  CD         2.8630   45.7730  -42.8610 C.2   152  GLN152      0.2608
     54  OE1        2.3990   46.6190  -42.1130 O.2   152  GLN152     -0.2717
     55  NE2        2.3230   44.5960  -43.0050 N.am  152  GLN152     -0.0878
     56  N          8.0460   47.0630  -41.3910 N.am  153  PHE153     -0.1962
     57  CA         8.8150   48.1000  -40.7330 C.3   153  PHE153      0.1771
     58  C          8.3800   49.4200  -41.3410 C.2   153  PHE153      0.2619
     59  O          8.3820   49.5590  -42.5590 O.2   153  PHE153     -0.2715
     60  CB        10.2930   47.8700  -40.9010 C.3   153  PHE153      0.0574
     61  CG        11.1510   48.8420  -40.1320 C.ar  153  PHE153     -0.0200
     62  CD1       11.4190   48.6390  -38.7940 C.ar  153  PHE153     -0.0042
     63  CD2       11.7140   49.9340  -40.7620 C.ar  153  PHE153     -0.0042
     64  CE1       12.2450   49.5000  -38.0890 C.ar  153  PHE153     -0.0003
     65  CE2       12.5350   50.8100  -40.0710 C.ar  153  PHE153     -0.0003
     66  CZ        12.8030   50.5950  -38.7340 C.ar  153  PHE153     -0.0000
     67  N          7.9400   50.3590  -40.5110 N.am  154  VAL154     -0.1977
     68  CA         7.3600   51.5890  -41.0090 C.3   154  VAL154      0.1596
     69  C          8.4680   52.6430  -41.1540 C.2   154  VAL154      0.2287
     70  O          9.2040   52.9110  -40.2040 O.2   154  VAL154     -0.2864
     71  CB         6.2260   52.0760  -40.0860 C.3   154  VAL154      0.0276
     72  CG1        5.7600   53.4890  -40.4770 C.3   154  VAL154      0.0022
     73  CG2        5.0560   51.0900  -40.1240 C.3   154  VAL154      0.0022
     74  N          4.9030   52.7440  -33.0980 N.3   172  VAL172     -0.1231
     75  CA         4.7000   51.6200  -34.0050 C.3   172  VAL172      0.1692
     76  C          5.7690   50.5360  -33.7870 C.2   172  VAL172      0.2592
     77  O          6.9340   50.8350  -33.5320 O.2   172  VAL172     -0.2718
     78  CB         4.6600   52.0720  -35.4870 C.3   172  VAL172      0.0266
     79  CG1        6.0080   52.6060  -35.9600 C.3   172  VAL172      0.0020
     80  CG2        4.1990   50.9380  -36.3650 C.3   172  VAL172      0.0020
     81  N          5.3520   49.2790  -33.8640 N.am  173  GLU173     -0.1966
     82  CA         6.2700   48.1660  -33.7650 C.3   173  GLU173      0.1733
     83  C          5.5810   46.9640  -34.4220 C.2   173  GLU173      0.2616
     84  O          4.6470   47.1500  -35.2090 O.2   173  GLU173     -0.2715
     85  CB         6.7390   47.9570  -32.3010 C.3   173  GLU173      0.0429
     86  CG         5.7400   48.2770  -31.1770 C.3   173  GLU173      0.1163
     87  CD         4.8450   47.1010  -30.8020 C.2   173  GLU173      0.3649
     88  OE1        4.3240   46.4330  -31.7270 O.co2 173  GLU173     -0.2457
     89  OE2        4.6240   46.8570  -29.5800 O.co2 173  GLU173     -0.2457
     90  N          6.0420   45.7530  -34.1670 N.am  174  MET174     -0.1963
     91  CA         5.5660   44.6050  -34.9510 C.3   174  MET174      0.1736
     92  C          5.0620   43.4130  -34.1370 C.2   174  MET174      0.2616
     93  O          4.7890   42.3460  -34.7110 O.2   174  MET174     -0.2715
     94  CB         6.6750   44.1660  -35.9090 C.3   174  MET174      0.0427
     95  CG         7.1140   45.3090  -36.8390 C.3   174  MET174      0.0599
     96  SD         8.4320   44.9270  -37.9960 S.3   174  MET174     -0.1393
     97  CE         7.6340   43.7780  -39.0790 C.3   174  MET174      0.0692
     98  N          4.9710   43.5670  -32.8190 N.am  175  GLU175     -0.1977
     99  CA         4.6380   42.4400  -31.9420 C.3   175  GLU175      0.1602
    100  C          3.6500   42.7380  -30.8190 C.2   175  GLU175      0.2287
    101  O          3.0240   41.8150  -30.2670 O.2   175  GLU175     -0.2864
    102  CB         5.9010   41.8690  -31.2970 C.3   175  GLU175      0.0415
    103  CG         6.9510   41.3450  -32.2620 C.3   175  GLU175      0.1163
    104  CD         7.8220   42.4500  -32.8700 C.2   175  GLU175      0.3649
    105  OE1        7.8860   43.5670  -32.2980 O.co2 175  GLU175     -0.2457
    106  OE2        8.4850   42.1840  -33.8920 O.co2 175  GLU175     -0.2457
    107  N          7.9570   49.9660  -24.3990 N.3   194  ARG194     -0.1245
    108  CA         8.8760   50.2200  -25.4810 C.3   194  ARG194      0.1563
    109  C          9.7450   51.4690  -25.2280 C.2   194  ARG194      0.2260
    110  O          9.3480   52.3750  -24.4970 O.2   194  ARG194     -0.2867
    111  CB         8.1120   50.3550  -26.7990 C.3   194  ARG194      0.0307
    112  CG         7.2680   49.1330  -27.2280 C.3   194  ARG194      0.0489
    113  CD         8.1180   47.9970  -27.7530 C.3   194  ARG194      0.2205
    114  NE         7.3420   46.9780  -28.4760 N.pl3 194  ARG194     -0.0865
    115  CZ         7.8560   46.1250  -29.3770 C.cat 194  ARG194      0.5346
    116  NH1        7.0810   45.2320  -29.9900 N.pl3 194  ARG194      0.1354
    117  NH2        9.1590   46.1220  -29.6740 N.pl3 194  ARG194      0.1354
    118  N         13.3950   53.9830  -30.7660 N.3   197  SER197     -0.1202
    119  CA        14.6330   53.7730  -31.5190 C.3   197  SER197      0.2020
    120  C         14.7550   54.6380  -32.7750 C.2   197  SER197      0.2618
    121  O         15.8690   54.8080  -33.3140 O.2   197  SER197     -0.2717
    122  CB        14.7800   52.3190  -31.9290 C.3   197  SER197      0.2103
    123  OG        13.6870   51.8540  -32.7020 O.3   197  SER197     -0.2182
    124  N         13.6310   55.1710  -33.2540 N.am  198  ASP198     -0.1973
    125  CA        13.6000   55.8850  -34.5390 C.3   198  ASP198      0.1709
    126  C         12.2840   56.6200  -34.6400 C.2   198  ASP198      0.2293
    127  O         11.4610   56.4920  -33.7350 O.2   198  ASP198     -0.2864
    128  CB        13.7490   54.9040  -35.7020 C.3   198  ASP198      0.1436
    129  CG        12.6910   53.8190  -35.6930 C.2   198  ASP198      0.3671
    130  OD1       12.9290   52.7520  -35.0560 O.co2 198  ASP198     -0.2456
    131  OD2       11.6260   54.0420  -36.3310 O.co2 198  ASP198     -0.2456
    132  N         10.1840   56.3930  -37.4320 N.3   200  ALA200     -0.1245
    133  CA         9.2750   55.6650  -38.3300 C.3   200  ALA200      0.1562
    134  C          9.1280   56.3580  -39.6880 C.2   200  ALA200      0.2260
    135  O          8.0920   56.2370  -40.3530 O.2   200  ALA200     -0.2867
    136  CB         7.9150   55.4880  -37.6650 C.3   200  ALA200      0.0290
    137  N         17.3490   53.2570  -36.2980 N.3   208  PHE208     -0.1227
    138  CA        17.1660   51.9640  -35.6110 C.3   208  PHE208      0.1736
    139  C         18.5050   51.2660  -35.3970 C.2   208  PHE208      0.2595
    140  O         18.8060   50.8060  -34.2850 O.2   208  PHE208     -0.2718
    141  CB        16.2500   51.0760  -36.4420 C.3   208  PHE208      0.0547
    142  CG        16.0640   49.7030  -35.8770 C.ar  208  PHE208     -0.0202
    143  CD1       15.0870   49.4710  -34.9260 C.ar  208  PHE208     -0.0042
    144  CD2       16.8860   48.6650  -36.2750 C.ar  208  PHE208     -0.0042
    145  CE1       14.9210   48.2180  -34.3740 C.ar  208  PHE208     -0.0003
    146  CE2       16.7180   47.4050  -35.7400 C.ar  208  PHE208     -0.0003
    147  CZ        15.7250   47.1830  -34.7840 C.ar  208  PHE208     -0.0000
    148  N         19.3180   51.2000  -36.4530 N.am  209  ASP209     -0.1974
    149  CA        20.6590   50.6010  -36.3510 C.3   209  ASP209      0.1709
    150  C         21.5270   51.3190  -35.3170 C.2   209  ASP209      0.2293
    151  O         22.2610   50.6910  -34.5680 O.2   209  ASP209     -0.2864
    152  CB        21.3860   50.6480  -37.7020 C.3   209  ASP209      0.1436
    153  CG        20.8540   49.6400  -38.7020 C.2   209  ASP209      0.3671
    154  OD1       20.1520   48.7060  -38.3120 O.co2 209  ASP209     -0.2456
    155  OD2       21.1650   49.7870  -39.8970 O.co2 209  ASP209     -0.2456
@<TRIPOS>BOND
     1    52    51    1
     2    52    53    1
     3    55    53   am
     4    51    48    1
     5    53    54    2
     6    59    58    2
     7    48    47    1
     8    48    49    1
     9    56    49   am
    10    56    57    1
    11    58    57    1
    12    58    67   am
    13    69    68    1
    14    69    70    2
    15    49    50    2
    16    68    67    1
    17    68    71    1
    18    60    57    1
    19    60    61    1
    20    63    61   ar
    21    63    65   ar
    22    72    71    1
    23   135   134    2
    24    61    62   ar
    25    73    71    1
    26    65    66   ar
    27   155   153   ar
    28   134   133    1
    29    97    96    1
    30    62    64   ar
    31    66    64   ar
    32   153   154   ar
    33   153   152    1
    34   133   136    1
    35   133   132    1
    36    96    95    1
    37   152   149    1
    38    29    27    1
    39    95    94    1
    40    30    28    1
    41    26    25    2
    42    27    28    1
    43    27    24    1
    44   148   149    1
    45   148   139   am
    46   141   142    1
    47   141   138    1
    48    80    78    1
    49   149   150    1
    50   131   129   ar
    51   137   138    1
    52   144   142   ar
    53   144   146   ar
    54    25    24    1
    55    79    78    1
    56    94    91    1
    57   142   143   ar
    58   146   147   ar
    59   128   129    1
    60   128   125    1
    61   129   130   ar
    62   138   139    1
    63    78    75    1
    64    24    23    1
    65   139   140    2
    66   150   151    2
    67    84    83    2
    68    91    90    1
    69    91    92    1
    70   143   145   ar
    71   147   145   ar
    72    93    92    2
    73   126   125    1
    74   126   127    2
    75   125   124    1
    76    13    12    1
    77    83    90   am
    78    83    82    1
    79    92    98   am
    80    75    76    1
    81    75    74    1
    82   106   104   ar
    83    81    76   am
    84    81    82    1
    85    44    45    1
    86    44    43    1
    87    76    77    2
    88    82    85    1
    89    12    11    1
    90   121   120    2
    91   124   120   am
    92    45    46    2
    93    43    40   am
    94    11    10    1
    95   104   105   ar
    96   104   103    1
    97    98    99    1
    98   120   119    1
    99   123   122    1
   100    85    86    1
   101   103   102    1
   102    40    41    2
   103    40    39    1
   104    99   102    1
   105    99   100    1
   106   122   119    1
   107    10     7    1
   108    88    87   ar
   109   119   118    1
   110     4     3    2
   111    39    42    1
   112    39    38    1
   113     7     6    1
   114     7     8    1
   115     5     2    1
   116    86    87    1
   117    37    35    1
   118     3     6   am
   119     3     2    1
   120   100   101    2
   121    87    89   ar
   122    34    33    2
   123    38    33   am
   124     2     1    1
   125     8     9    2
   126    33    32    1
   127   116   115    1
   128    35    32    1
   129    35    36    1
   130   117   115    1
   131    22    20   ar
   132    21    20   ar
   133   115   114    2
   134    20    19    1
   135    32    31    1
   136   114   113    1
   137    19    18    1
   138    14    15    1
   139   113   112    1
   140    18    15    1
   141   112   111    1
   142    15    16    1
   143   111   108    1
   144    16    17    2
   145   108   109    1
   146   108   107    1
   147   109   110    2
