@<TRIPOS>MOLECULE
tmp/4yneA00.pdb
 159 151 0 0 0
SMALL
GASTEIGER

@<TRIPOS>ATOM
      1  N        -13.1620  -46.6080   -6.7880 N.3    20  LEU20      -0.1231
      2  CA       -14.5390  -46.1280   -6.7430 C.3    20  LEU20       0.1696
      3  C        -15.4730  -47.2050   -7.2720 C.2    20  LEU20       0.2631
      4  O        -16.6060  -47.3380   -6.8150 O.2    20  LEU20      -0.2714
      5  CB       -14.7040  -44.8440   -7.5780 C.3    20  LEU20       0.0284
      6  CG       -14.1330  -43.5340   -7.0350 C.3    20  LEU20       0.0019
      7  CD1      -14.1230  -42.4610   -8.1140 C.3    20  LEU20       0.0001
      8  CD2      -14.9330  -43.0650   -5.8090 C.3    20  LEU20       0.0001
      9  N        -14.9930  -47.9630   -8.2580 N.am   21  GLY21      -0.1732
     10  CA       -15.8230  -48.9600   -8.9070 C.2    21  GLY21       0.1340
     11  C        -15.1130  -49.8800   -9.8830 C.2    21  GLY21       0.2521
     12  O        -14.0230  -49.5770  -10.3740 O.2    21  GLY21      -0.2816
     13  N        -16.5150  -51.3710  -17.4780 N.3    25  PHE25      -0.1241
     14  CA       -15.7250  -50.1880  -17.8000 C.3    25  PHE25       0.1605
     15  C        -14.2850  -50.2680  -17.3040 C.2    25  PHE25       0.2264
     16  O        -13.4760  -49.4070  -17.6260 O.2    25  PHE25      -0.2867
     17  CB       -16.3990  -48.9500  -17.2110 C.3    25  PHE25       0.0534
     18  CG       -16.8680  -49.1370  -15.7880 C.ar   25  PHE25      -0.0203
     19  CD1      -15.9810  -49.0220  -14.7280 C.ar   25  PHE25      -0.0042
     20  CD2      -18.1910  -49.4390  -15.5160 C.ar   25  PHE25      -0.0042
     21  CE1      -16.4070  -49.1970  -13.4190 C.ar   25  PHE25      -0.0003
     22  CE2      -18.6230  -49.6160  -14.2100 C.ar   25  PHE25      -0.0003
     23  CZ       -17.7280  -49.4950  -13.1600 C.ar   25  PHE25      -0.0000
     24  N        -12.0010  -47.9790  -11.8430 N.3    28  VAL28      -0.1245
     25  CA       -12.0050  -46.5290  -11.7070 C.3    28  VAL28       0.1561
     26  C        -11.5970  -46.1480  -10.2910 C.2    28  VAL28       0.2260
     27  O        -12.1260  -46.6970   -9.3210 O.2    28  VAL28      -0.2867
     28  CB       -13.3910  -45.9270  -12.0410 C.3    28  VAL28       0.0252
     29  CG1      -13.3300  -44.4040  -12.0480 C.3    28  VAL28       0.0019
     30  CG2      -13.8680  -46.4370  -13.3860 C.3    28  VAL28       0.0019
     31  N        -11.4650  -38.5170  -11.4000 N.3    44  ALA44      -0.1245
     32  CA       -11.6340  -39.9500  -11.5330 C.3    44  ALA44       0.1562
     33  C        -10.6470  -40.4680  -12.5650 C.2    44  ALA44       0.2260
     34  O        -10.4530  -39.8500  -13.6200 O.2    44  ALA44      -0.2867
     35  CB       -13.0350  -40.2880  -11.9200 C.3    44  ALA44       0.0290
     36  N         -9.4680  -43.8860  -14.7720 N.3    46  LYS46      -0.1245
     37  CA        -9.7120  -45.2470  -15.2310 C.3    46  LYS46       0.1561
     38  C         -8.3920  -45.8910  -15.6150 C.2    46  LYS46       0.2260
     39  O         -7.7220  -45.4500  -16.5480 O.2    46  LYS46      -0.2867
     40  CB       -10.6830  -45.2610  -16.4020 C.3    46  LYS46       0.0271
     41  CG       -10.8530  -46.6100  -17.0730 C.3    46  LYS46       0.0035
     42  CD       -11.8080  -46.4650  -18.2370 C.3    46  LYS46       0.0206
     43  CE       -11.6530  -47.5700  -19.2390 C.3    46  LYS46       0.1093
     44  NZ       -12.6450  -47.3740  -20.3280 N.3    46  LYS46      -0.1314
     45  N        -19.1840  -36.2700  -19.7090 N.3    70  VAL70      -0.1245
     46  CA       -18.2810  -36.1750  -18.5570 C.3    70  VAL70       0.1561
     47  C        -16.9470  -35.6310  -19.0720 C.2    70  VAL70       0.2260
     48  O        -16.4490  -36.0510  -20.1220 O.2    70  VAL70      -0.2867
     49  CB       -18.1030  -37.5490  -17.8190 C.3    70  VAL70       0.0252
     50  CG1      -17.4430  -38.5910  -18.7270 C.3    70  VAL70       0.0019
     51  CG2      -17.3120  -37.3760  -16.4850 C.3    70  VAL70       0.0019
     52  N        -10.5380  -38.1900  -15.7810 N.3    86  PHE86      -0.1227
     53  CA       -11.8470  -37.5560  -15.9100 C.3    86  PHE86       0.1736
     54  C        -12.1700  -36.6260  -14.7440 C.2    86  PHE86       0.2595
     55  O        -11.6230  -36.7860  -13.6410 O.2    86  PHE86      -0.2718
     56  CB       -12.9570  -38.6140  -15.9830 C.3    86  PHE86       0.0547
     57  CG       -12.8300  -39.5690  -17.1400 C.ar   86  PHE86      -0.0202
     58  CD1      -12.1070  -40.7440  -17.0150 C.ar   86  PHE86      -0.0042
     59  CD2      -13.4440  -39.2920  -18.3510 C.ar   86  PHE86      -0.0042
     60  CE1      -11.9940  -41.6230  -18.0780 C.ar   86  PHE86      -0.0003
     61  CE2      -13.3390  -40.1770  -19.4170 C.ar   86  PHE86      -0.0003
     62  CZ       -12.6110  -41.3480  -19.2730 C.ar   86  PHE86      -0.0000
     63  N        -13.1090  -35.7040  -14.9410 N.am   87  GLU87      -0.1965
     64  CA       -13.6340  -34.9880  -13.7760 C.3    87  GLU87       0.1733
     65  C        -14.2790  -35.9960  -12.8110 C.2    87  GLU87       0.2616
     66  O        -14.8000  -37.0380  -13.2270 O.2    87  GLU87      -0.2715
     67  CB       -14.6490  -33.9120  -14.1730 C.3    87  GLU87       0.0429
     68  CG       -15.9270  -34.4510  -14.8090 C.3    87  GLU87       0.1163
     69  CD       -16.9420  -33.3520  -15.1010 C.2    87  GLU87       0.3649
     70  OE1      -17.5640  -33.3810  -16.1780 O.co2  87  GLU87      -0.2457
     71  OE2      -17.1260  -32.4590  -14.2510 O.co2  87  GLU87      -0.2457
     72  N        -14.2290  -35.6930  -11.5230 N.am   88  TYR88      -0.1960
     73  CA       -14.8460  -36.5700  -10.5270 C.3    88  TYR88       0.1771
     74  C        -16.3260  -36.2490  -10.3810 C.2    88  TYR88       0.2619
     75  O        -16.7020  -35.1130  -10.1080 O.2    88  TYR88      -0.2715
     76  CB       -14.1260  -36.4360   -9.1850 C.3    88  TYR88       0.0574
     77  CG       -14.8360  -37.0710   -7.9980 C.ar   88  TYR88      -0.0198
     78  CD1      -15.2500  -38.4030   -8.0270 C.ar   88  TYR88      -0.0009
     79  CD2      -15.0630  -36.3400   -6.8380 C.ar   88  TYR88      -0.0009
     80  CE1      -15.8930  -38.9830   -6.9180 C.ar   88  TYR88       0.0417
     81  CE2      -15.7000  -36.9050   -5.7360 C.ar   88  TYR88       0.0417
     82  CZ       -16.1110  -38.2230   -5.7800 C.ar   88  TYR88       0.1957
     83  OH       -16.7360  -38.7690   -4.6700 O.3    88  TYR88      -0.2866
     84  N        -17.1670  -37.2460  -10.5990 N.am   89  MET89      -0.1977
     85  CA       -18.6120  -37.0600  -10.4870 C.3    89  MET89       0.1605
     86  C        -19.0670  -37.6550   -9.1460 C.2    89  MET89       0.2287
     87  O        -19.1780  -38.8830   -9.0150 O.2    89  MET89      -0.2864
     88  CB       -19.3220  -37.7200  -11.6830 C.3    89  MET89       0.0413
     89  CG       -18.8670  -37.1550  -13.0620 C.3    89  MET89       0.0598
     90  SD       -19.2470  -35.3980  -13.2230 S.3    89  MET89      -0.1393
     91  CE       -20.9910  -35.4960  -13.6670 C.3    89  MET89       0.0692
     92  N        -21.6220  -40.7040   -8.5680 N.3    92  GLY92      -0.1210
     93  CA       -21.4700  -42.0160   -9.1740 C.3    92  GLY92       0.1956
     94  C        -22.3850  -42.2270  -10.3660 C.2    92  GLY92       0.2611
     95  O        -22.8560  -41.2550  -10.9670 O.2    92  GLY92      -0.2717
     96  N        -22.6550  -43.4880  -10.7130 N.am   93  ASP93      -0.1973
     97  CA       -23.4270  -43.7400  -11.9290 C.3    93  ASP93       0.1709
     98  C        -24.8960  -43.4420  -11.6490 C.2    93  ASP93       0.2293
     99  O        -25.3560  -43.5380  -10.5040 O.2    93  ASP93      -0.2864
    100  CB       -23.2330  -45.1720  -12.4620 C.3    93  ASP93       0.1436
    101  CG       -23.9990  -46.2070  -11.6670 C.2    93  ASP93       0.3671
    102  OD1      -25.2100  -46.3810  -11.9280 O.co2  93  ASP93      -0.2456
    103  OD2      -23.3830  -46.8620  -10.7990 O.co2  93  ASP93      -0.2456
    104  N        -27.3370  -46.2800   -9.9600 N.3    96  ARG96      -0.1245
    105  CA       -27.2410  -46.4540   -8.5060 C.3    96  ARG96       0.1563
    106  C        -27.7790  -45.2270   -7.7620 C.2    96  ARG96       0.2260
    107  O        -28.3900  -45.3420   -6.6910 O.2    96  ARG96      -0.2867
    108  CB       -25.7950  -46.7410   -8.1030 C.3    96  ARG96       0.0307
    109  CG       -25.4530  -48.2270   -8.0520 C.3    96  ARG96       0.0489
    110  CD       -23.9410  -48.4660   -8.1290 C.3    96  ARG96       0.2205
    111  NE       -23.5870  -49.8520   -7.8290 N.pl3  96  ARG96      -0.0865
    112  CZ       -23.1140  -50.7140   -8.7250 C.cat  96  ARG96       0.5346
    113  NH1      -22.8200  -51.9560   -8.3650 N.pl3  96  ARG96       0.1354
    114  NH2      -22.9380  -50.3360   -9.9830 N.pl3  96  ARG96       0.1354
    115  N        -26.8970  -46.7660  -16.2590 N.3   151  ARG151     -0.1231
    116  CA       -25.6230  -47.2640  -15.7210 C.3   151  ARG151      0.1694
    117  C        -24.3980  -46.6070  -16.4000 C.2   151  ARG151      0.2592
    118  O        -23.2950  -46.6450  -15.8560 O.2   151  ARG151     -0.2718
    119  CB       -25.5460  -48.8010  -15.8450 C.3   151  ARG151      0.0321
    120  CG       -25.5200  -49.3020  -17.3320 C.3   151  ARG151      0.0489
    121  CD       -25.4420  -50.8380  -17.4520 C.3   151  ARG151      0.2205
    122  NE       -25.6670  -51.2320  -18.8470 N.pl3 151  ARG151     -0.0865
    123  CZ       -26.8640  -51.4840  -19.3700 C.cat 151  ARG151      0.5346
    124  NH1      -27.9420  -51.4340  -18.6060 N.pl3 151  ARG151      0.1354
    125  NH2      -26.9920  -51.7970  -20.6540 N.pl3 151  ARG151      0.1354
    126  N        -24.6040  -45.9890  -17.5630 N.am  152  ASN152     -0.1960
    127  CA       -23.5220  -45.3320  -18.3020 C.3   152  ASN152      0.1819
    128  C        -23.5930  -43.8110  -18.2680 C.2   152  ASN152      0.2621
    129  O        -22.9330  -43.1390  -19.0740 O.2   152  ASN152     -0.2715
    130  CB       -23.4970  -45.8330  -19.7600 C.3   152  ASN152      0.1195
    131  CG       -23.0020  -47.2640  -19.8600 C.2   152  ASN152      0.2630
    132  OD1      -22.0990  -47.6580  -19.1290 O.2   152  ASN152     -0.2716
    133  ND2      -23.5900  -48.0500  -20.7620 N.am  152  ASN152     -0.0877
    134  N        -24.3860  -43.2820  -17.3250 N.am  153  CYS153     -0.1954
    135  CA       -24.4540  -41.8550  -17.0290 C.3   153  CYS153      0.1843
    136  C        -23.9110  -41.6180  -15.6190 C.2   153  CYS153      0.2625
    137  O        -23.9060  -42.5380  -14.7880 O.2   153  CYS153     -0.2714
    138  CB       -25.9020  -41.3290  -17.1350 C.3   153  CYS153      0.0997
    139  SG       -26.6100  -41.5860  -18.8480 S.3   153  CYS153     -0.0797
    140  N        -23.4660  -40.3930  -15.3670 N.am  154  LEU154     -0.1977
    141  CA       -22.8650  -40.0060  -14.0940 C.3   154  LEU154      0.1596
    142  C        -23.5530  -38.7800  -13.5290 C.2   154  LEU154      0.2287
    143  O        -24.0690  -37.9390  -14.2760 O.2   154  LEU154     -0.2864
    144  CB       -21.3740  -39.7220  -14.2580 C.3   154  LEU154      0.0297
    145  CG       -20.5270  -40.9150  -14.6910 C.3   154  LEU154      0.0022
    146  CD1      -19.1800  -40.4510  -15.1940 C.3   154  LEU154      0.0001
    147  CD2      -20.3660  -41.9020  -13.5240 C.3   154  LEU154      0.0001
    148  N        -21.4960  -40.7480  -19.2920 N.3   164  GLY164     -0.1210
    149  CA       -20.2310  -41.0010  -18.6290 C.3   164  GLY164      0.1956
    150  C        -19.3660  -42.0740  -19.2610 C.2   164  GLY164      0.2611
    151  O        -18.1540  -42.0830  -19.0970 O.2   164  GLY164     -0.2717
    152  N        -19.9750  -43.0060  -19.9620 N.am  165  ASP165     -0.1973
    153  CA       -19.2490  -44.0840  -20.6010 C.3   165  ASP165      0.1709
    154  C        -19.8310  -44.3160  -21.9690 C.2   165  ASP165      0.2293
    155  O        -21.0050  -44.4020  -22.1240 O.2   165  ASP165     -0.2864
    156  CB       -19.3100  -45.3530  -19.7950 C.3   165  ASP165      0.1436
    157  CG       -18.1820  -46.2930  -20.1170 C.2   165  ASP165      0.3671
    158  OD1      -17.1670  -45.8620  -20.6410 O.co2 165  ASP165     -0.2456
    159  OD2      -18.2890  -47.4720  -19.8330 O.co2 165  ASP165     -0.2456
@<TRIPOS>BOND
     1   155   154    2
     2   154   153    1
     3   133   131   am
     4   125   123    1
     5   158   157   ar
     6   153   152    1
     7   153   156    1
     8    44    43    1
     9    48    47    2
    10   157   159   ar
    11   157   156    1
    12   152   150   am
    13   131   130    1
    14   131   132    2
    15   130   127    1
    16    45    46    1
    17    61    62   ar
    18    61    59   ar
    19   123   122    2
    20   123   124    1
    21   148   149    1
    22    62    60   ar
    23   150   151    2
    24   150   149    1
    25    43    42    1
    26   129   128    2
    27    47    46    1
    28   139   138    1
    29   122   121    1
    30    50    49    1
    31    46    49    1
    32    59    57   ar
    33   127   128    1
    34   127   126    1
    35   128   134   am
    36    42    41    1
    37    60    58   ar
    38    49    51    1
    39    14    13    1
    40    14    15    1
    41    14    17    1
    42    16    15    2
    43   126   117   am
    44   121   120    1
    45   120   119    1
    46   134   135    1
    47    17    18    1
    48    57    58   ar
    49    57    56    1
    50   138   135    1
    51    41    40    1
    52   135   136    1
    53    39    38    2
    54    40    37    1
    55   117   118    2
    56   117   116    1
    57   115   116    1
    58    70    69   ar
    59    56    53    1
    60    53    52    1
    61    53    54    1
    62   119   116    1
    63    18    20   ar
    64    18    19   ar
    65   136   140   am
    66   136   137    2
    67    38    37    1
    68    20    22   ar
    69   140   141    1
    70    37    36    1
    71   146   145    1
    72    69    68    1
    73    69    71   ar
    74    63    54   am
    75    63    64    1
    76    68    67    1
    77    54    55    2
    78    19    21   ar
    79   145   144    1
    80   145   147    1
    81   143   142    2
    82   144   141    1
    83    22    23   ar
    84    67    64    1
    85   141   142    1
    86    64    65    1
    87    91    90    1
    88    34    33    2
    89    21    23   ar
    90    30    28    1
    91    66    65    2
    92    90    89    1
    93    89    88    1
    94    65    72   am
    95    33    32    1
    96   100    97    1
    97   100   101    1
    98    29    28    1
    99    28    25    1
   100    97    98    1
   101    97    96    1
   102   102   101   ar
   103    35    32    1
   104    24    25    1
   105    25    26    1
   106    88    85    1
   107   101   103   ar
   108    98    99    2
   109    32    31    1
   110    72    73    1
   111    95    94    2
   112    96    94   am
   113    84    85    1
   114    84    74   am
   115    73    74    1
   116    73    76    1
   117    85    86    1
   118    74    75    2
   119    12    11    2
   120    94    93    1
   121    26    27    2
   122   114   112    1
   123   104   105    1
   124    11    10    1
   125    76    77    1
   126    93    92    1
   127    86    87    2
   128    10     9    2
   129   112   113    1
   130   112   111    2
   131   105   108    1
   132   105   106    1
   133     9     3    1
   134   110   109    1
   135   110   111    1
   136     7     6    1
   137   108   109    1
   138    78    77   ar
   139    78    80   ar
   140    77    79   ar
   141   106   107    2
   142     5     6    1
   143     5     2    1
   144     3     4    2
   145     3     2    1
   146     6     8    1
   147    80    82   ar
   148    79    81   ar
   149     1     2    1
   150    82    81   ar
   151    82    83    1
