@<TRIPOS>MOLECULE
tmp/4yniA00.pdb
 151 147 0 0 0
SMALL
GASTEIGER

@<TRIPOS>ATOM
      1  N         67.7920   56.4960   28.6610 N.3    55  TYR55      -0.1241
      2  CA        67.9320   57.6660   27.8100 C.3    55  TYR55       0.1605
      3  C         66.9550   57.6140   26.6240 C.2    55  TYR55       0.2264
      4  O         66.5350   56.5290   26.1760 O.2    55  TYR55      -0.2867
      5  CB        69.3730   57.7970   27.3290 C.3    55  TYR55       0.0534
      6  CG        69.7420   56.9300   26.1360 C.ar   55  TYR55      -0.0201
      7  CD1       69.7190   57.4460   24.8490 C.ar   55  TYR55      -0.0009
      8  CD2       70.1420   55.6070   26.3000 C.ar   55  TYR55      -0.0009
      9  CE1       70.0790   56.6760   23.7620 C.ar   55  TYR55       0.0417
     10  CE2       70.5040   54.8230   25.2090 C.ar   55  TYR55       0.0417
     11  CZ        70.4670   55.3690   23.9430 C.ar   55  TYR55       0.1957
     12  OH        70.8230   54.6170   22.8520 O.3    55  TYR55      -0.2866
     13  N         65.7480   59.1170   22.6470 N.3    57  ARG57      -0.1245
     14  CA        66.1380   59.6930   21.3720 C.3    57  ARG57       0.1563
     15  C         64.9760   60.5000   20.8290 C.2    57  ARG57       0.2260
     16  O         63.8750   59.9790   20.6900 O.2    57  ARG57      -0.2867
     17  CB        66.5390   58.6030   20.3750 C.3    57  ARG57       0.0307
     18  CG        67.6210   57.6420   20.8690 C.3    57  ARG57       0.0489
     19  CD        67.6850   56.3660   20.0130 C.3    57  ARG57       0.2205
     20  NE        68.5090   56.5130   18.8160 N.pl3  57  ARG57      -0.0865
     21  CZ        68.0410   56.4570   17.5730 C.cat  57  ARG57       0.5346
     22  NH1       66.7470   56.2600   17.3690 N.pl3  57  ARG57       0.1354
     23  NH2       68.8600   56.5860   16.5330 N.pl3  57  ARG57       0.1354
     24  N         69.2040   63.6900   22.4420 N.3    72  LEU72      -0.1245
     25  CA        69.1900   62.6100   23.3950 C.3    72  LEU72       0.1561
     26  C         69.1780   63.1560   24.8000 C.2    72  LEU72       0.2260
     27  O         69.9000   64.0940   25.1210 O.2    72  LEU72      -0.2867
     28  CB        70.3920   61.6830   23.1840 C.3    72  LEU72       0.0270
     29  CG        70.1100   60.5690   22.1660 C.3    72  LEU72       0.0019
     30  CD1       69.7000   61.1540   20.8060 C.3    72  LEU72       0.0001
     31  CD2       71.3070   59.6250   22.0510 C.3    72  LEU72       0.0001
     32  N         69.5560   62.1680   28.7970 N.3    74  TRP74      -0.1241
     33  CA        70.1180   61.1880   29.7210 C.3    74  TRP74       0.1605
     34  C         69.8600   61.5700   31.1770 C.2    74  TRP74       0.2264
     35  O         70.4240   62.5500   31.6780 O.2    74  TRP74      -0.2867
     36  CB        71.6340   61.0520   29.5050 C.3    74  TRP74       0.0550
     37  CG        72.0970   61.1000   28.0800 C.ar   74  TRP74       0.0003
     38  CD1       72.1290   62.2000   27.2550 C.ar   74  TRP74       0.0946
     39  CD2       72.6260   60.0120   27.3140 C.ar   74  TRP74       0.0152
     40  NE1       72.6450   61.8570   26.0300 N.ar   74  TRP74      -0.2442
     41  CE2       72.9570   60.5200   26.0400 C.ar   74  TRP74       0.0810
     42  CE3       72.8530   58.6560   27.5810 C.ar   74  TRP74       0.0012
     43  CZ2       73.4970   59.7170   25.0380 C.ar   74  TRP74       0.0191
     44  CZ3       73.3870   57.8650   26.5910 C.ar   74  TRP74       0.0001
     45  CH2       73.7080   58.3940   25.3340 C.ar   74  TRP74       0.0015
     46  N         74.2570   54.2480   27.3420 N.3    80  SER80      -0.1217
     47  CA        73.9130   53.4190   26.2040 C.3    80  SER80       0.1889
     48  C         74.6790   52.1130   26.3020 C.2    80  SER80       0.2288
     49  O         75.5670   51.9520   27.1380 O.2    80  SER80      -0.2866
     50  CB        74.2560   54.1200   24.8900 C.3    80  SER80       0.2089
     51  OG        75.6700   54.2590   24.7580 O.3    80  SER80      -0.2183
     52  N         77.9130   50.3580   21.1820 N.3    83  HIS83      -0.1226
     53  CA        77.2080   50.4400   19.9050 C.3    83  HIS83       0.1752
     54  C         78.1560   50.5720   18.7280 C.2    83  HIS83       0.2596
     55  O         79.2500   51.1240   18.8570 O.2    83  HIS83      -0.2718
     56  CB        76.2800   51.6630   19.8700 C.3    83  HIS83       0.0759
     57  CG        74.9270   51.4390   20.4640 C.ar   83  HIS83       0.0818
     58  ND1       74.0810   52.4800   20.7810 N.ar   83  HIS83      -0.2268
     59  CD2       74.2610   50.3030   20.7850 C.ar   83  HIS83       0.1154
     60  CE1       72.9610   51.9970   21.2890 C.ar   83  HIS83       0.1986
     61  NE2       73.0440   50.6780   21.3010 N.ar   83  HIS83      -0.2212
     62  N         77.7090   50.1070   17.5680 N.am   84  ASP84      -0.1960
     63  CA        78.3150   50.5070   16.3100 C.3    84  ASP84       0.1840
     64  C         77.3430   51.4820   15.6400 C.2    84  ASP84       0.2622
     65  O         76.3730   51.9160   16.2650 O.2    84  ASP84      -0.2715
     66  CB        78.6360   49.2920   15.4280 C.3    84  ASP84       0.1450
     67  CG        77.3960   48.4880   15.0270 C.2    84  ASP84       0.3671
     68  OD1       76.3170   48.6520   15.6330 O.co2  84  ASP84      -0.2456
     69  OD2       77.5090   47.6660   14.0920 O.co2  84  ASP84      -0.2456
     70  N         77.6540   51.9120   14.4370 N.am   85  HIS85      -0.1973
     71  CA        76.8890   52.9290   13.7620 C.3    85  HIS85       0.1656
     72  C         76.5110   52.6240   12.3520 C.2    85  HIS85       0.2291
     73  O         76.2000   53.4990   11.5950 O.2    85  HIS85      -0.2864
     74  CB        77.5810   54.2550   13.8980 C.3    85  HIS85       0.0771
     75  CG        77.7520   54.6580   15.3140 C.ar   85  HIS85       0.0820
     76  ND1       78.8310   54.2710   16.0570 N.ar   85  HIS85      -0.2267
     77  CD2       76.9400   55.3240   16.1500 C.ar   85  HIS85       0.1154
     78  CE1       78.6990   54.7170   17.2790 C.ar   85  HIS85       0.1986
     79  NE2       77.5600   55.3610   17.3620 N.ar   85  HIS85      -0.2212
     80  N         78.5140   59.6890   12.7010 N.3    90  CYS90      -0.1235
     81  CA        77.8620   59.9320   13.9730 C.3    90  CYS90       0.1672
     82  C         78.5400   61.0810   14.7180 C.2    90  CYS90       0.2270
     83  O         79.6710   60.9440   15.2020 O.2    90  CYS90      -0.2867
     84  CB        77.8710   58.6650   14.8280 C.3    90  CYS90       0.0892
     85  SG        76.8000   58.7900   16.2590 S.3    90  CYS90      -0.1085
     86  N         78.2460   63.9890   17.8390 N.3    92  LEU92      -0.1245
     87  CA        77.6730   64.1560   19.1420 C.3    92  LEU92       0.1561
     88  C         78.1080   65.5270   19.6540 C.2    92  LEU92       0.2260
     89  O         79.2940   65.8310   19.6550 O.2    92  LEU92      -0.2867
     90  CB        78.1440   63.0230   20.0650 C.3    92  LEU92       0.0270
     91  CG        77.7280   62.9930   21.5390 C.3    92  LEU92       0.0019
     92  CD1       78.2320   61.7080   22.2060 C.3    92  LEU92       0.0001
     93  CD2       78.1980   64.2310   22.3030 C.3    92  LEU92       0.0001
     94  N         81.8180   52.5800   20.6510 N.3   137  HIS137     -0.1241
     95  CA        81.8410   53.3690   21.8730 C.3   137  HIS137      0.1621
     96  C         80.5700   53.2700   22.7180 C.2   137  HIS137      0.2264
     97  O         79.5090   52.8630   22.2510 O.2   137  HIS137     -0.2867
     98  CB        82.1850   54.8460   21.5320 C.3   137  HIS137      0.0745
     99  CG        81.0230   55.7070   21.1270 C.ar  137  HIS137      0.0817
    100  ND1       81.1330   57.0800   21.0130 N.ar  137  HIS137     -0.2268
    101  CD2       79.7420   55.4110   20.7890 C.ar  137  HIS137      0.1154
    102  CE1       79.9800   57.5870   20.6350 C.ar  137  HIS137      0.1986
    103  NE2       79.1130   56.6000   20.5010 N.ar  137  HIS137     -0.2212
    104  N         78.2870   55.7120   25.4530 N.3   139  VAL139     -0.1245
    105  CA        78.1190   57.0700   25.9690 C.3   139  VAL139      0.1561
    106  C         77.3100   56.9840   27.2680 C.2   139  VAL139      0.2260
    107  O         76.2920   56.2810   27.3260 O.2   139  VAL139     -0.2867
    108  CB        77.4210   58.0040   24.9480 C.3   139  VAL139      0.0252
    109  CG1       77.1110   59.3580   25.5800 C.3   139  VAL139      0.0019
    110  CG2       78.2810   58.1820   23.7060 C.3   139  VAL139      0.0019
    111  N         72.7090   64.9160   18.4010 N.3   152  HIS152     -0.1241
    112  CA        73.3060   63.8630   17.5790 C.3   152  HIS152      0.1621
    113  C         72.8500   63.9530   16.1170 C.2   152  HIS152      0.2264
    114  O         71.6730   64.2120   15.8240 O.2   152  HIS152     -0.2867
    115  CB        72.9530   62.4800   18.1360 C.3   152  HIS152      0.0745
    116  CG        73.5110   62.2100   19.5030 C.ar  152  HIS152      0.0817
    117  ND1       74.2800   61.1000   19.7860 N.ar  152  HIS152     -0.2268
    118  CD2       73.4040   62.9000   20.6660 C.ar  152  HIS152      0.1154
    119  CE1       74.6310   61.1250   21.0590 C.ar  152  HIS152      0.1986
    120  NE2       74.1050   62.2020   21.6180 N.ar  152  HIS152     -0.2212
    121  N         73.3050   61.6370   12.5210 N.3   154  TYR154     -0.1241
    122  CA        73.7060   60.3710   11.9180 C.3   154  TYR154      0.1605
    123  C         73.4100   60.3970   10.4240 C.2   154  TYR154      0.2264
    124  O         72.3150   60.7740    9.9870 O.2   154  TYR154     -0.2867
    125  CB        73.0020   59.1920   12.6060 C.3   154  TYR154      0.0534
    126  CG        73.3520   59.0840   14.0730 C.ar  154  TYR154     -0.0196
    127  CD1       72.3750   59.2090   15.0590 C.ar  154  TYR154     -0.0009
    128  CD2       74.6770   58.9000   14.4800 C.ar  154  TYR154      0.0052
    129  CE1       72.7020   59.1310   16.4120 C.ar  154  TYR154      0.0422
    130  CE2       75.0090   58.8220   15.8220 C.ar  154  TYR154      0.0639
    131  CZ        74.0190   58.9390   16.7870 C.ar  154  TYR154      0.2013
    132  OH        74.3500   58.8540   18.1230 O.3   154  TYR154     -0.2860
    133  N         70.0560   55.6650   10.3630 N.3   158  PHE158     -0.1241
    134  CA        69.8870   54.2390   10.5920 C.3   158  PHE158      0.1605
    135  C         69.0630   54.0390   11.8560 C.2   158  PHE158      0.2264
    136  O         69.1990   54.7950   12.8170 O.2   158  PHE158     -0.2867
    137  CB        71.2460   53.5230   10.6920 C.3   158  PHE158      0.0534
    138  CG        72.0860   53.9620   11.8510 C.ar  158  PHE158     -0.0203
    139  CD1       72.0530   53.2630   13.0510 C.ar  158  PHE158     -0.0042
    140  CD2       72.9170   55.0770   11.7460 C.ar  158  PHE158     -0.0042
    141  CE1       72.8260   53.6610   14.1320 C.ar  158  PHE158     -0.0003
    142  CE2       73.7010   55.4800   12.8280 C.ar  158  PHE158     -0.0003
    143  CZ        73.6520   54.7620   14.0240 C.ar  158  PHE158     -0.0000
    144  N         66.6580   50.6580   17.1320 N.3   176  MET176     -0.1245
    145  CA        66.4420   51.9130   17.8160 C.3   176  MET176      0.1570
    146  C         65.0320   52.4010   17.6130 C.2   176  MET176      0.2261
    147  O         64.4020   52.0740   16.6480 O.2   176  MET176     -0.2867
    148  CB        67.4130   52.9530   17.3090 C.3   176  MET176      0.0387
    149  CG        68.8160   52.4360   17.1400 C.3   176  MET176      0.0595
    150  SD        69.6890   52.6200   18.6710 S.3   176  MET176     -0.1393
    151  CE        70.8410   53.8490   18.1790 C.3   176  MET176      0.0692
@<TRIPOS>BOND
     1   124   123    2
     2   133   134    1
     3   123   122    1
     4   134   137    1
     5   134   135    1
     6   137   138    1
     7    73    72    2
     8   140   138   ar
     9   140   142   ar
    10   138   139   ar
    11   135   136    2
    12   122   121    1
    13   122   125    1
    14    72    71    1
    15   125   126    1
    16    80    81    1
    17   142   143   ar
    18   139   141   ar
    19    71    74    1
    20    71    70    1
    21    74    75    1
    22    81    82    1
    23    81    84    1
    24   143   141   ar
    25   126   128   ar
    26   126   127   ar
    27    69    67   ar
    28    70    64   am
    29   128   130   ar
    30    82    83    2
    31    84    85    1
    32    67    66    1
    33    67    68   ar
    34   127   129   ar
    35    75    76   ar
    36    75    77   ar
    37    66    63    1
    38    64    65    2
    39    64    63    1
    40   130    85    1
    41   130   131   ar
    42   114   113    2
    43    76    78   ar
    44   113   112    1
    45    77    79   ar
    46    63    62    1
    47   129   131   ar
    48    23    21    1
    49   147   146    2
    50   131   132    1
    51   144   145    1
    52   149   148    1
    53   149   150    1
    54    78    79   ar
    55   148   145    1
    56    22    21    1
    57    62    54   am
    58    21    20    2
    59   112   115    1
    60   112   111    1
    61   146   145    1
    62    86    87    1
    63   115   116    1
    64   151   150    1
    65    54    55    2
    66    54    53    1
    67    20    19    1
    68    87    88    1
    69    87    90    1
    70   116   117   ar
    71   116   118   ar
    72    88    89    2
    73   117   119   ar
    74    56    53    1
    75    56    57    1
    76    53    52    1
    77    19    18    1
    78    90    91    1
    79    17    18    1
    80    17    14    1
    81    57    58   ar
    82    57    59   ar
    83   103   102   ar
    84   103   101   ar
    85   102   100   ar
    86    94    95    1
    87   118   120   ar
    88    16    15    2
    89    58    60   ar
    90    59    61   ar
    91   101    99   ar
    92    30    29    1
    93    15    14    1
    94   100    99   ar
    95   119   120   ar
    96    99    98    1
    97    60    61   ar
    98    14    13    1
    99    98    95    1
   100    91    92    1
   101    91    93    1
   102    95    96    1
   103    31    29    1
   104    29    28    1
   105    97    96    2
   106    24    25    1
   107    12    11    1
   108    28    25    1
   109    25    26    1
   110   110   108    1
   111     9    11   ar
   112     9     7   ar
   113    11    10   ar
   114    51    50    1
   115    26    27    2
   116     7     6   ar
   117    50    47    1
   118   108   109    1
   119   108   105    1
   120    43    45   ar
   121    43    41   ar
   122    10     8   ar
   123    45    44   ar
   124   104   105    1
   125   105   106    1
   126    40    41   ar
   127    40    38   ar
   128    41    39   ar
   129     6     8   ar
   130     6     5    1
   131     4     3    2
   132    47    48    1
   133    47    46    1
   134    48    49    2
   135    44    42   ar
   136     3     2    1
   137    38    37   ar
   138   106   107    2
   139    39    42   ar
   140    39    37   ar
   141     5     2    1
   142     2     1    1
   143    37    36    1
   144    32    33    1
   145    36    33    1
   146    33    34    1
   147    34    35    2
