@<TRIPOS>MOLECULE
tmp/4ynnD00.pdb
 157 152 0 0 0
SMALL
GASTEIGER

@<TRIPOS>ATOM
      1  N         20.2700  114.1710   51.8510 N.3    24  PHE24      -0.1227
      2  CA        21.6350  113.8860   52.2800 C.3    24  PHE24       0.1736
      3  C         22.3810  115.1850   52.5700 C.2    24  PHE24       0.2595
      4  O         22.8320  115.8740   51.6550 O.2    24  PHE24      -0.2718
      5  CB        22.3760  113.0750   51.2120 C.3    24  PHE24       0.0547
      6  CG        23.7570  112.6160   51.6230 C.ar   24  PHE24      -0.0202
      7  CD1       24.1690  112.6600   52.9470 C.ar   24  PHE24      -0.0042
      8  CD2       24.6460  112.1440   50.6710 C.ar   24  PHE24      -0.0042
      9  CE1       25.4360  112.2390   53.3110 C.ar   24  PHE24      -0.0003
     10  CE2       25.9130  111.7220   51.0280 C.ar   24  PHE24      -0.0003
     11  CZ        26.3090  111.7690   52.3500 C.ar   24  PHE24      -0.0000
     12  N         22.4950  115.5160   53.8500 N.am   25  GLU25      -0.1965
     13  CA        23.3430  116.6160   54.2830 C.3    25  GLU25       0.1733
     14  C         24.2880  116.1520   55.3890 C.2    25  GLU25       0.2617
     15  O         23.8490  115.6680   56.4310 O.2    25  GLU25      -0.2715
     16  CB        22.4950  117.7960   54.7590 C.3    25  GLU25       0.0429
     17  CG        23.3000  118.9960   55.2220 C.3    25  GLU25       0.1163
     18  CD        22.4210  120.1680   55.6100 C.2    25  GLU25       0.3649
     19  OE1       21.1810  120.0350   55.5310 O.co2  25  GLU25      -0.2457
     20  OE2       22.9710  121.2230   55.9950 O.co2  25  GLU25      -0.2457
     21  N         25.5860  116.3040   55.1540 N.am   26  SER26      -0.1936
     22  CA        26.5990  115.8680   56.1060 C.3    26  SER26       0.2055
     23  C         27.3370  117.0800   56.6490 C.2    26  SER26       0.2642
     24  O         27.5850  118.0390   55.9190 O.2    26  SER26      -0.2714
     25  CB        27.5880  114.9130   55.4320 C.3    26  SER26       0.2130
     26  OG        28.6600  114.5810   56.3000 O.3    26  SER26      -0.2179
     27  N         27.6820  117.0440   57.9320 N.am   27  ILE27      -0.1977
     28  CA        28.4360  118.1390   58.5340 C.3    27  ILE27       0.1596
     29  C         29.7320  117.6570   59.1800 C.2    27  ILE27       0.2287
     30  O         29.8370  116.5110   59.6230 O.2    27  ILE27      -0.2864
     31  CB        27.5950  118.9140   59.5710 C.3    27  ILE27       0.0276
     32  CG1       27.3770  118.0680   60.8270 C.3    27  ILE27       0.0022
     33  CG2       26.2640  119.3390   58.9680 C.3    27  ILE27       0.0022
     34  CD1       26.3730  118.6520   61.8000 C.3    27  ILE27       0.0001
     35  N         35.6110  111.2150   54.0580 N.3    45  HIS45      -0.1226
     36  CA        34.2540  110.7020   54.2350 C.3    45  HIS45       0.1752
     37  C         33.2310  111.8090   54.4840 C.2    45  HIS45       0.2595
     38  O         32.0250  111.5810   54.3840 O.2    45  HIS45      -0.2718
     39  CB        34.1960  109.6570   55.3580 C.3    45  HIS45       0.0759
     40  CG        34.4210  110.2170   56.7300 C.ar   45  HIS45       0.0818
     41  ND1       35.6220  110.1010   57.3940 N.ar   45  HIS45      -0.2268
     42  CD2       33.5920  110.8870   57.5660 C.ar   45  HIS45       0.1154
     43  CE1       35.5250  110.6790   58.5810 C.ar   45  HIS45       0.1986
     44  NE2       34.3050  111.1640   58.7070 N.ar   45  HIS45      -0.2212
     45  N         33.7110  113.0020   54.8140 N.am   46  VAL46      -0.1980
     46  CA        32.8220  114.1350   55.0320 C.3    46  VAL46       0.1595
     47  C         32.2930  114.6500   53.7000 C.2    46  VAL46       0.2287
     48  O         31.1030  114.9280   53.5550 O.2    46  VAL46      -0.2864
     49  CB        33.5460  115.2880   55.7520 C.3    46  VAL46       0.0276
     50  CG1       32.6110  116.4730   55.9300 C.3    46  VAL46       0.0022
     51  CG2       34.0880  114.8200   57.0930 C.3    46  VAL46       0.0022
     52  N         41.6980  108.5240   54.4410 N.3    75  ASP75      -0.1239
     53  CA        40.5350  109.3440   54.7800 C.3    75  ASP75       0.1674
     54  C         40.8840  110.8260   54.9150 C.2    75  ASP75       0.2266
     55  O         40.4830  111.4810   55.8750 O.2    75  ASP75      -0.2867
     56  CB        39.8600  108.8340   56.0550 C.3    75  ASP75       0.1410
     57  CG        38.3900  109.2010   56.1200 C.2    75  ASP75       0.3668
     58  OD1       37.9890  110.1700   55.4450 O.co2  75  ASP75      -0.2456
     59  OD2       37.6320  108.5210   56.8440 O.co2  75  ASP75      -0.2456
     60  N         27.9690  117.8120   66.6410 N.3   110  PHE110     -0.1241
     61  CA        26.5130  117.9180   66.6830 C.3   110  PHE110      0.1605
     62  C         26.0140  119.2190   66.0580 C.2   110  PHE110      0.2264
     63  O         24.8470  119.5820   66.2130 O.2   110  PHE110     -0.2867
     64  CB        25.9670  117.7450   68.1040 C.3   110  PHE110      0.0534
     65  CG        26.2810  116.4110   68.7150 C.ar  110  PHE110     -0.0203
     66  CD1       26.3460  115.2710   67.9330 C.ar  110  PHE110     -0.0042
     67  CD2       26.5010  116.2930   70.0740 C.ar  110  PHE110     -0.0042
     68  CE1       26.6350  114.0430   68.4980 C.ar  110  PHE110     -0.0003
     69  CE2       26.7850  115.0670   70.6420 C.ar  110  PHE110     -0.0003
     70  CZ        26.8530  113.9420   69.8530 C.ar  110  PHE110     -0.0000
     71  N         39.5700  100.4770   60.3900 N.3   136  ILE136     -0.1231
     72  CA        38.6950  101.6060   60.0870 C.3   136  ILE136      0.1692
     73  C         39.0290  102.1850   58.7150 C.2   136  ILE136      0.2591
     74  O         38.1360  102.5110   57.9300 O.2   136  ILE136     -0.2718
     75  CB        38.8310  102.7190   61.1470 C.3   136  ILE136      0.0266
     76  CG1       38.5090  102.1720   62.5410 C.3   136  ILE136      0.0019
     77  CG2       37.9210  103.8910   60.8120 C.3   136  ILE136      0.0020
     78  CD1       38.8270  103.1320   63.6660 C.3   136  ILE136      0.0001
     79  N         40.3230  102.3010   58.4300 N.am  137  GLU137     -0.1979
     80  CA        40.7980  102.8720   57.1730 C.3   137  GLU137      0.1602
     81  C         41.7910  101.9260   56.5120 C.2   137  GLU137      0.2287
     82  O         42.2910  100.9990   57.1490 O.2   137  GLU137     -0.2864
     83  CB        41.4640  104.2280   57.4200 C.3   137  GLU137      0.0415
     84  CG        40.6470  105.1810   58.2810 C.3   137  GLU137      0.1163
     85  CD        39.3930  105.6920   57.5880 C.2   137  GLU137      0.3649
     86  OE1       39.2020  105.4090   56.3850 O.co2 137  GLU137     -0.2457
     87  OE2       38.5880  106.3700   58.2600 O.co2 137  GLU137     -0.2457
     88  N         35.6510  113.4130   71.2780 N.3   149  ILE149     -0.1231
     89  CA        35.4090  113.5120   69.8520 C.3   149  ILE149      0.1692
     90  C         34.0810  112.8480   69.5250 C.2   149  ILE149      0.2592
     91  O         33.8690  111.6790   69.8350 O.2   149  ILE149     -0.2718
     92  CB        36.5190  112.8230   69.0530 C.3   149  ILE149      0.0266
     93  CG1       37.8570  113.5260   69.2880 C.3   149  ILE149      0.0019
     94  CG2       36.1790  112.8160   67.5800 C.3   149  ILE149      0.0020
     95  CD1       39.0030  112.9380   68.4830 C.3   149  ILE149      0.0001
     96  N         33.1940  113.6040   68.8890 N.am  150  ASN150     -0.1961
     97  CA        31.8370  113.1520   68.6220 C.3   150  ASN150      0.1804
     98  C         31.5050  113.3650   67.1430 C.2   150  ASN150      0.2463
     99  O         32.3230  113.9190   66.4120 O.2   150  ASN150     -0.2730
    100  CB        30.8670  113.9270   69.5150 C.3   150  ASN150      0.1195
    101  CG        30.8000  113.3670   70.9210 C.2   150  ASN150      0.2630
    102  OD1       30.5180  112.1850   71.1190 O.2   150  ASN150     -0.2716
    103  ND2       31.0580  114.2160   71.9080 N.am  150  ASN150     -0.0877
    104  N         30.3270  112.8980   66.6830 N.am  151  PRO151     -0.2716
    105  CA        29.9520  113.1820   65.2920 C.3   151  PRO151      0.1536
    106  C         29.9890  114.6710   64.9490 C.2   151  PRO151      0.2599
    107  O         29.4790  115.4950   65.7060 O.2   151  PRO151     -0.2715
    108  CB        28.5180  112.6640   65.2160 C.3   151  PRO151      0.0310
    109  CG        28.5020  111.5270   66.1640 C.3   151  PRO151      0.0237
    110  CD        29.4200  111.9070   67.2950 C.3   151  PRO151      0.0939
    111  N         30.5690  114.9960   63.7970 N.am  152  GLY152     -0.1955
    112  CA        30.7700  116.3750   63.3930 C.3   152  GLY152      0.1869
    113  C         32.1420  116.9120   63.7650 C.2   152  GLY152      0.2309
    114  O         32.4930  118.0360   63.4110 O.2   152  GLY152     -0.2863
    115  N         34.7930  115.4420   62.6990 N.3   154  ALA154     -0.1245
    116  CA        35.6640  114.9420   61.6410 C.3   154  ALA154      0.1562
    117  C         36.2970  116.0750   60.8490 C.2   154  ALA154      0.2260
    118  O         35.6510  117.0780   60.5520 O.2   154  ALA154     -0.2867
    119  CB        34.9010  114.0230   60.7130 C.3   154  ALA154      0.0290
    120  N         39.4490  111.9170   63.2600 N.3   170  THR170     -0.1203
    121  CA        38.9020  111.0770   62.1970 C.3   170  THR170      0.1994
    122  C         37.8090  110.1040   62.6380 C.2   170  THR170      0.2618
    123  O         36.6910  110.1460   62.1230 O.2   170  THR170     -0.2717
    124  CB        40.0220  110.2810   61.4940 C.3   170  THR170      0.1784
    125  OG1       40.9710  111.1910   60.9250 O.3   170  THR170     -0.2211
    126  CG2       39.4470  109.4040   60.3940 C.3   170  THR170      0.0376
    127  N         38.1250  109.2280   63.5840 N.am  171  ALA171     -0.1965
    128  CA        37.1940  108.1680   63.9540 C.3   171  ALA171      0.1728
    129  C         37.1950  107.8780   65.4470 C.2   171  ALA171      0.2616
    130  O         38.1450  108.2100   66.1580 O.2   171  ALA171     -0.2715
    131  CB        37.5010  106.9010   63.1740 C.3   171  ALA171      0.0334
    132  N         36.1200  107.2550   65.9160 N.am  172  ILE172     -0.1963
    133  CA        36.0390  106.8390   67.3070 C.3   172  ILE172      0.1727
    134  C         35.6220  105.3800   67.3970 C.2   172  ILE172      0.2616
    135  O         35.0600  104.8280   66.4550 O.2   172  ILE172     -0.2715
    136  CB        35.0280  107.6850   68.0950 C.3   172  ILE172      0.0290
    137  CG1       33.6170  107.4790   67.5490 C.3   172  ILE172      0.0022
    138  CG2       35.4160  109.1550   68.0540 C.3   172  ILE172      0.0023
    139  CD1       32.5430  108.1100   68.4030 C.3   172  ILE172      0.0001
    140  N         35.9250  104.7520   68.5270 N.am  173  ILE173     -0.1963
    141  CA        35.4290  103.4150   68.8140 C.3   173  ILE173      0.1727
    142  C         34.3920  103.4980   69.9200 C.2   173  ILE173      0.2616
    143  O         34.7000  103.8930   71.0430 O.2   173  ILE173     -0.2715
    144  CB        36.5620  102.4620   69.2420 C.3   173  ILE173      0.0290
    145  CG1       37.4640  102.1500   68.0480 C.3   173  ILE173      0.0022
    146  CG2       35.9900  101.1760   69.8120 C.3   173  ILE173      0.0023
    147  CD1       38.4120  101.0050   68.2790 C.3   173  ILE173      0.0001
    148  N         33.1570  103.1470   69.5950 N.am  174  SER174     -0.1950
    149  CA        32.0830  103.2180   70.5710 C.3   174  SER174      0.1924
    150  C         31.0980  102.0810   70.3690 C.2   174  SER174      0.2314
    151  O         30.8020  101.7080   69.2350 O.2   174  SER174     -0.2863
    152  CB        31.3590  104.5590   70.4640 C.3   174  SER174      0.2116
    153  OG        30.3370  104.6660   71.4390 O.3   174  SER174     -0.2180
    154  N         28.0980  104.6270   69.5490 N.3   177  GLY177     -0.1225
    155  CA        28.3290  105.7720   68.6820 C.3   177  GLY177      0.1811
    156  C         28.5290  107.1100   69.3710 C.2   177  GLY177      0.2280
    157  O         28.6140  108.1470   68.7120 O.2   177  GLY177     -0.2866
@<TRIPOS>BOND
     1     8    10   ar
     2     8     6   ar
     3    10    11   ar
     4     5     6    1
     5     5     2    1
     6     6     7   ar
     7     4     3    2
     8     1     2    1
     9     2     3    1
    10    11     9   ar
    11     3    12   am
    12     7     9   ar
    13    48    47    2
    14    47    46    1
    15    12    13    1
    16    35    36    1
    17    36    37    1
    18    36    39    1
    19    13    16    1
    20    13    14    1
    21    38    37    2
    22    52    53    1
    23    37    45   am
    24    16    17    1
    25    53    54    1
    26    53    56    1
    27    45    46    1
    28    54    55    2
    29    46    49    1
    30    21    14   am
    31    21    22    1
    32    17    18    1
    33    39    40    1
    34    14    15    2
    35    25    22    1
    36    25    26    1
    37    58    57   ar
    38    19    18   ar
    39    18    20   ar
    40    49    50    1
    41    49    51    1
    42    24    23    2
    43    56    57    1
    44    22    23    1
    45    57    59   ar
    46    86    85   ar
    47    81    82    2
    48    81    80    1
    49    23    27   am
    50    40    41   ar
    51    40    42   ar
    52    80    83    1
    53    80    79    1
    54    41    43   ar
    55    83    84    1
    56    42    44   ar
    57    85    87   ar
    58    85    84    1
    59    74    73    2
    60    27    28    1
    61    79    73   am
    62    28    29    1
    63    28    31    1
    64    43    44   ar
    65    73    72    1
    66    33    31    1
    67    29    30    2
    68    31    32    1
    69    72    71    1
    70    72    75    1
    71   126   124    1
    72   118   117    2
    73   119   116    1
    74    77    75    1
    75    32    34    1
    76   117   116    1
    77   125   124    1
    78    75    76    1
    79   124   121    1
    80   116   115    1
    81   123   122    2
    82   121   122    1
    83   121   120    1
    84    76    78    1
    85   122   127   am
    86   131   128    1
    87   112   113    1
    88   112   111    1
    89   114   113    2
    90   127   128    1
    91   111   106   am
    92   128   129    1
    93   106   105    1
    94   106   107    2
    95   108   105    1
    96   108   109    1
    97   105   104    1
    98   129   132   am
    99   129   130    2
   100   132   133    1
   101    62    63    2
   102    62    61    1
   103   109   110    1
   104    99    98    2
   105   135   134    2
   106    60    61    1
   107   104    98   am
   108   104   110    1
   109    61    64    1
   110    98    97    1
   111   133   134    1
   112   133   136    1
   113   134   140   am
   114   137   136    1
   115   137   139    1
   116    94    92    1
   117    66    68   ar
   118    66    65   ar
   119   145   147    1
   120   145   144    1
   121   138   136    1
   122    64    65    1
   123    95    93    1
   124    68    70   ar
   125   140   141    1
   126    97    96    1
   127    97   100    1
   128   155   156    1
   129   155   154    1
   130   157   156    2
   131    65    67   ar
   132   141   144    1
   133   141   142    1
   134    96    90   am
   135    92    93    1
   136    92    89    1
   137   151   150    2
   138   144   146    1
   139   100   101    1
   140    90    91    2
   141    90    89    1
   142   148   142   am
   143   148   149    1
   144    89    88    1
   145    70    69   ar
   146   142   143    2
   147    67    69   ar
   148   150   149    1
   149   152   149    1
   150   152   153    1
   151   101   102    2
   152   101   103   am
