@<TRIPOS>MOLECULE
tmp/4ynnG00.pdb
 173 168 0 0 0
SMALL
GASTEIGER

@<TRIPOS>ATOM
      1  N         23.7490   89.7500   36.2090 N.3    24  PHE24      -0.1227
      2  CA        23.1420   90.5390   35.1420 C.3    24  PHE24       0.1736
      3  C         23.7040   90.1370   33.7800 C.2    24  PHE24       0.2595
      4  O         24.7950   90.5590   33.4000 O.2    24  PHE24      -0.2718
      5  CB        23.3850   92.0330   35.3830 C.3    24  PHE24       0.0547
      6  CG        22.6860   92.9440   34.3990 C.ar   24  PHE24      -0.0202
      7  CD1       21.6730   92.4760   33.5740 C.ar   24  PHE24      -0.0042
      8  CD2       23.0630   94.2720   34.2920 C.ar   24  PHE24      -0.0042
      9  CE1       21.0450   93.3200   32.6730 C.ar   24  PHE24      -0.0003
     10  CE2       22.4400   95.1190   33.3930 C.ar   24  PHE24      -0.0003
     11  CZ        21.4300   94.6420   32.5830 C.ar   24  PHE24      -0.0000
     12  N         22.9520   89.3220   33.0490 N.am   25  GLU25      -0.1965
     13  CA        23.2800   89.0390   31.6590 C.3    25  GLU25       0.1733
     14  C         22.0630   89.2770   30.7750 C.2    25  GLU25       0.2617
     15  O         21.0100   88.6720   30.9770 O.2    25  GLU25      -0.2715
     16  CB        23.7860   87.6090   31.4830 C.3    25  GLU25       0.0429
     17  CG        24.1480   87.2830   30.0410 C.3    25  GLU25       0.1163
     18  CD        24.7220   85.8930   29.8730 C.2    25  GLU25       0.3649
     19  OE1       24.8230   85.1650   30.8820 O.co2  25  GLU25      -0.2457
     20  OE2       25.0750   85.5320   28.7290 O.co2  25  GLU25      -0.2457
     21  N         22.2170   90.1570   29.7920 N.am   26  SER26      -0.1936
     22  CA        21.1190   90.5110   28.9070 C.3    26  SER26       0.2055
     23  C         21.4140   90.0550   27.4830 C.2    26  SER26       0.2642
     24  O         22.5520   90.1340   27.0240 O.2    26  SER26      -0.2714
     25  CB        20.9000   92.0290   28.9360 C.3    26  SER26       0.2130
     26  OG        19.9270   92.4410   27.9910 O.3    26  SER26      -0.2179
     27  N         20.3860   89.5690   26.7920 N.am   27  ILE27      -0.1977
     28  CA        20.5220   89.1790   25.3900 C.3    27  ILE27       0.1596
     29  C         19.4870   89.8960   24.5240 C.2    27  ILE27       0.2287
     30  O         18.4010   90.2410   24.9890 O.2    27  ILE27      -0.2864
     31  CB        20.4140   87.6510   25.1860 C.3    27  ILE27       0.0276
     32  CG1       18.9730   87.1780   25.3740 C.3    27  ILE27       0.0022
     33  CG2       21.3600   86.9120   26.1240 C.3    27  ILE27       0.0022
     34  CD1       18.8410   85.6800   25.4360 C.3    27  ILE27       0.0001
     35  N         18.3910  100.0250   25.4000 N.3    45  HIS45      -0.1226
     36  CA        18.1130   99.3450   26.6600 C.3    45  HIS45       0.1752
     37  C         18.7480   97.9590   26.7180 C.2    45  HIS45       0.2595
     38  O         18.8740   97.3680   27.7900 O.2    45  HIS45      -0.2718
     39  CB        16.6050   99.2570   26.9210 C.3    45  HIS45       0.0759
     40  CG        15.8770   98.3340   25.9930 C.ar   45  HIS45       0.0818
     41  ND1       15.1490   98.7830   24.9140 N.ar   45  HIS45      -0.2268
     42  CD2       15.7460   96.9840   25.9980 C.ar   45  HIS45       0.1154
     43  CE1       14.6100   97.7520   24.2870 C.ar   45  HIS45       0.1986
     44  NE2       14.9580   96.6500   24.9260 N.ar   45  HIS45      -0.2212
     45  N         19.1540   97.4470   25.5630 N.am   46  VAL46      -0.1980
     46  CA        19.8050   96.1480   25.5080 C.3    46  VAL46       0.1595
     47  C         21.2270   96.2700   26.0400 C.2    46  VAL46       0.2287
     48  O         21.6830   95.4360   26.8210 O.2    46  VAL46      -0.2864
     49  CB        19.8480   95.6030   24.0690 C.3    46  VAL46       0.0276
     50  CG1       20.5490   94.2570   24.0340 C.3    46  VAL46       0.0022
     51  CG2       18.4430   95.4830   23.5080 C.3    46  VAL46       0.0022
     52  N         15.6840  105.1370   22.1480 N.3    75  ASP75      -0.1239
     53  CA        16.0750  103.7600   22.4480 C.3    75  ASP75       0.1674
     54  C         16.8720  103.1390   21.3090 C.2    75  ASP75       0.2266
     55  O         16.6260  102.0010   20.9100 O.2    75  ASP75      -0.2867
     56  CB        14.8620  102.8900   22.7780 C.3    75  ASP75       0.1410
     57  CG        15.2260  101.6970   23.6440 C.2    75  ASP75       0.3668
     58  OD1       16.4110  101.2980   23.6440 O.co2  75  ASP75      -0.2456
     59  OD2       14.3320  101.1500   24.3210 O.co2  75  ASP75      -0.2456
     60  N         14.1820   84.7070   23.2460 N.3   110  PHE110     -0.1241
     61  CA        14.4380   83.6860   24.2630 C.3   110  PHE110      0.1605
     62  C         15.8090   83.0200   24.1140 C.2   110  PHE110      0.2264
     63  O         16.0730   81.9870   24.7300 O.2   110  PHE110     -0.2867
     64  CB        13.3190   82.6410   24.3030 C.3   110  PHE110      0.0534
     65  CG        11.9780   83.2090   24.6590 C.ar  110  PHE110     -0.0203
     66  CD1       11.8700   84.2550   25.5580 C.ar  110  PHE110     -0.0042
     67  CD2       10.8260   82.7050   24.0890 C.ar  110  PHE110     -0.0042
     68  CE1       10.6370   84.7840   25.8830 C.ar  110  PHE110     -0.0003
     69  CE2        9.5890   83.2290   24.4110 C.ar  110  PHE110     -0.0003
     70  CZ         9.4950   84.2700   25.3100 C.ar  110  PHE110     -0.0000
     71  N          2.3240  106.3980   23.7040 N.3   134  LEU134     -0.1231
     72  CA         2.5220  105.1100   24.3570 C.3   134  LEU134      0.1693
     73  C          3.2530  105.2580   25.6890 C.2   134  LEU134      0.2592
     74  O          3.0610  104.4540   26.6030 O.2   134  LEU134     -0.2718
     75  CB         3.2970  104.1620   23.4400 C.3   134  LEU134      0.0284
     76  CG         2.7030  103.8960   22.0550 C.3   134  LEU134      0.0019
     77  CD1        3.3710  102.6870   21.4250 C.3   134  LEU134      0.0001
     78  CD2        1.1930  103.7110   22.1210 C.3   134  LEU134      0.0001
     79  N          4.1040  106.2790   25.7750 N.am  135  ASN135     -0.1960
     80  CA         4.9210  106.5530   26.9600 C.3   135  ASN135      0.1819
     81  C          5.9230  105.4430   27.2650 C.2   135  ASN135      0.2621
     82  O          6.3390  105.2630   28.4090 O.2   135  ASN135     -0.2715
     83  CB         4.0540  106.8520   28.1890 C.3   135  ASN135      0.1195
     84  CG         3.7350  108.3260   28.3310 C.2   135  ASN135      0.2630
     85  OD1        3.8320  109.0910   27.3690 O.2   135  ASN135     -0.2716
     86  ND2        3.3570  108.7360   29.5370 N.am  135  ASN135     -0.0877
     87  N          6.3000  104.7010   26.2300 N.am  136  ILE136     -0.1963
     88  CA         7.3820  103.7330   26.3240 C.3   136  ILE136      0.1727
     89  C          8.7230  104.4560   26.2050 C.2   136  ILE136      0.2616
     90  O          9.6700  104.1560   26.9340 O.2   136  ILE136     -0.2715
     91  CB         7.2620  102.6590   25.2280 C.3   136  ILE136      0.0290
     92  CG1        5.9110  101.9480   25.3380 C.3   136  ILE136      0.0022
     93  CG2        8.3960  101.6550   25.3320 C.3   136  ILE136      0.0023
     94  CD1        5.6050  101.0340   24.1810 C.3   136  ILE136      0.0001
     95  N          8.7980  105.4050   25.2750 N.am  137  GLU137     -0.1977
     96  CA        10.0270  106.1600   25.0430 C.3   137  GLU137      0.1602
     97  C          9.7570  107.6610   25.0380 C.2   137  GLU137      0.2287
     98  O          8.6080  108.0910   24.9360 O.2   137  GLU137     -0.2864
     99  CB        10.6630  105.7480   23.7150 C.3   137  GLU137      0.0415
    100  CG        10.7960  104.2460   23.5320 C.3   137  GLU137      0.1163
    101  CD        11.8120  103.6190   24.4720 C.2   137  GLU137      0.3649
    102  OE1       12.5090  104.3580   25.2030 O.co2 137  GLU137     -0.2457
    103  OE2       11.9020  102.3750   24.4880 O.co2 137  GLU137     -0.2457
    104  N          6.7320   89.3370   18.3370 N.3   149  ILE149     -0.1231
    105  CA         7.9130   89.9100   18.9660 C.3   149  ILE149      0.1692
    106  C          7.9110   89.5820   20.4500 C.2   149  ILE149      0.2592
    107  O          6.9550   89.8730   21.1640 O.2   149  ILE149     -0.2718
    108  CB         7.9570   91.4330   18.7940 C.3   149  ILE149      0.0266
    109  CG1        8.0710   91.7890   17.3140 C.3   149  ILE149      0.0019
    110  CG2        9.1250   92.0200   19.5680 C.3   149  ILE149      0.0020
    111  CD1        8.1730   93.2680   17.0580 C.3   149  ILE149      0.0001
    112  N          8.9940   88.9720   20.9070 N.am  150  ASN150     -0.1961
    113  CA         9.0830   88.4900   22.2730 C.3   150  ASN150      0.1804
    114  C         10.3860   88.9990   22.8870 C.2   150  ASN150      0.2463
    115  O         11.1820   89.6270   22.1920 O.2   150  ASN150     -0.2730
    116  CB         9.0340   86.9610   22.2630 C.3   150  ASN150      0.1195
    117  CG         7.6230   86.4280   22.1320 C.2   150  ASN150      0.2630
    118  OD1        6.7510   86.7490   22.9380 O.2   150  ASN150     -0.2716
    119  ND2        7.3870   85.6200   21.1050 N.am  150  ASN150     -0.0877
    120  N         10.6000   88.7660   24.1940 N.am  151  PRO151     -0.2716
    121  CA        11.8870   89.1480   24.7880 C.3   151  PRO151      0.1536
    122  C         13.1100   88.5620   24.0690 C.2   151  PRO151      0.2599
    123  O         13.1400   87.3810   23.7310 O.2   151  PRO151     -0.2715
    124  CB        11.7870   88.5730   26.1980 C.3   151  PRO151      0.0310
    125  CG        10.3370   88.6680   26.5130 C.3   151  PRO151      0.0237
    126  CD         9.6070   88.4130   25.2270 C.3   151  PRO151      0.0939
    127  N         14.1160   89.4030   23.8560 N.am  152  GLY152     -0.1955
    128  CA        15.3100   89.0330   23.1170 C.3   152  GLY152      0.1869
    129  C         15.2270   89.3850   21.6440 C.2   152  GLY152      0.2309
    130  O         16.2080   89.2630   20.9090 O.2   152  GLY152     -0.2863
    131  N         14.5740   92.3970   20.8220 N.3   154  ALA154     -0.1245
    132  CA        14.8730   93.8220   20.8380 C.3   154  ALA154      0.1562
    133  C         16.1490   94.0920   20.0520 C.2   154  ALA154      0.2260
    134  O         17.1160   93.3370   20.1430 O.2   154  ALA154     -0.2867
    135  CB        15.0000   94.3260   22.2630 C.3   154  ALA154      0.0290
    136  N         11.4650   97.0150   19.0110 N.3   170  THR170     -0.1203
    137  CA        11.7990   97.6580   20.2730 C.3   170  THR170      0.1994
    138  C         10.9580   97.1810   21.4600 C.2   170  THR170      0.2618
    139  O         11.4980   96.6790   22.4460 O.2   170  THR170     -0.2717
    140  CB        11.6950   99.1850   20.1450 C.3   170  THR170      0.1784
    141  OG1       12.5960   99.6310   19.1240 O.3   170  THR170     -0.2211
    142  CG2       12.0440   99.8620   21.4640 C.3   170  THR170      0.0376
    143  N          9.6420   97.3410   21.3730 N.am  171  ALA171     -0.1965
    144  CA         8.7860   97.0430   22.5140 C.3   171  ALA171      0.1728
    145  C          7.4490   96.4360   22.1170 C.2   171  ALA171      0.2616
    146  O          7.0160   96.5580   20.9720 O.2   171  ALA171     -0.2715
    147  CB         8.5700   98.2920   23.3490 C.3   171  ALA171      0.0334
    148  N          6.8050   95.7820   23.0800 N.am  172  ILE172     -0.1963
    149  CA         5.4640   95.2370   22.8960 C.3   172  ILE172      0.1727
    150  C          4.5620   95.6830   24.0410 C.2   172  ILE172      0.2616
    151  O          5.0420   96.0400   25.1140 O.2   172  ILE172     -0.2715
    152  CB         5.4710   93.6990   22.8520 C.3   172  ILE172      0.0290
    153  CG1        5.9150   93.1250   24.1980 C.3   172  ILE172      0.0022
    154  CG2        6.3530   93.1990   21.7150 C.3   172  ILE172      0.0023
    155  CD1        5.7490   91.6280   24.3030 C.3   172  ILE172      0.0001
    156  N          3.2550   95.6570   23.8140 N.am  173  ILE173     -0.1963
    157  CA         2.2980   95.9060   24.8850 C.3   173  ILE173      0.1727
    158  C          1.6090   94.6040   25.2540 C.2   173  ILE173      0.2616
    159  O          0.9030   94.0130   24.4390 O.2   173  ILE173     -0.2715
    160  CB         1.2420   96.9410   24.4760 C.3   173  ILE173      0.0290
    161  CG1        1.8800   98.3250   24.3670 C.3   173  ILE173      0.0022
    162  CG2        0.1020   96.9590   25.4800 C.3   173  ILE173      0.0023
    163  CD1        0.8820   99.4510   24.2660 C.3   173  ILE173      0.0001
    164  N          1.8260   94.1590   26.4860 N.am  174  SER174     -0.1950
    165  CA         1.2710   92.8950   26.9460 C.3   174  SER174      0.1924
    166  C          0.8630   92.9450   28.4080 C.2   174  SER174      0.2314
    167  O          1.5310   93.5830   29.2200 O.2   174  SER174     -0.2863
    168  CB         2.2890   91.7750   26.7460 C.3   174  SER174      0.2116
    169  OG         1.7570   90.5310   27.1610 O.3   174  SER174     -0.2180
    170  N          3.5390   90.0620   29.5630 N.3   177  GLY177     -0.1225
    171  CA         4.9050   90.1030   29.0670 C.3   177  GLY177      0.1811
    172  C          5.2290   89.1520   27.9290 C.2   177  GLY177      0.2280
    173  O          6.3840   89.0370   27.5130 O.2   177  GLY177     -0.2866
@<TRIPOS>BOND
     1   111   109    1
     2   109   108    1
     3   104   105    1
     4   108   105    1
     5   108   110    1
     6   105   106    1
     7   136   137    1
     8   141   140    1
     9   133   134    2
    10   133   132    1
    11   140   137    1
    12   140   142    1
    13   137   138    1
    14   106   112   am
    15   106   107    2
    16   131   132    1
    17   132   135    1
    18   112   113    1
    19   130   129    2
    20    55    54    2
    21   146   145    2
    22   119   117   am
    23    54    53    1
    24   143   138   am
    25   143   144    1
    26    77    76    1
    27   138   139    2
    28   129   128    1
    29   154   152    1
    30    76    78    1
    31    76    75    1
    32   145   144    1
    33   145   148   am
    34   117   116    1
    35   117   118    2
    36    52    53    1
    37   115   114    2
    38   116   113    1
    39   113   114    1
    40    53    56    1
    41   144   147    1
    42    56    57    1
    43   152   149    1
    44   152   153    1
    45   114   120   am
    46   149   148    1
    47   149   150    1
    48   128   127    1
    49    60    61    1
    50    75    72    1
    51    51    49    1
    52   100    99    1
    53   100   101    1
    54    58    57   ar
    55    57    59   ar
    56    71    72    1
    57    99    96    1
    58   123   122    2
    59   156   150   am
    60   156   157    1
    61   127   122   am
    62    50    49    1
    63   150   151    2
    64    49    46    1
    65   122   121    1
    66    67    69   ar
    67    67    65   ar
    68    62    61    1
    69    62    63    2
    70    94    92    1
    71   120   121    1
    72   120   126    1
    73   153   155    1
    74    61    64    1
    75   163   161    1
    76    43    41   ar
    77    43    44   ar
    78    64    65    1
    79    72    73    1
    80   161   160    1
    81    69    70   ar
    82   159   158    2
    83   101   103   ar
    84   101   102   ar
    85   160   157    1
    86   160   162    1
    87    29    30    2
    88    29    28    1
    89    65    66   ar
    90   121   124    1
    91   157   158    1
    92    41    40   ar
    93    44    42   ar
    94    98    97    2
    95    97    96    1
    96    96    95    1
    97    31    32    1
    98    31    28    1
    99    31    33    1
   100   126   125    1
   101    91    93    1
   102    91    92    1
   103    91    88    1
   104   158   164   am
   105    95    89   am
   106    70    68   ar
   107    32    34    1
   108    28    27    1
   109    35    36    1
   110    46    45    1
   111    46    47    1
   112    66    68   ar
   113    45    37   am
   114    73    79   am
   115    73    74    2
   116    79    80    1
   117    40    42   ar
   118    40    39    1
   119    47    48    2
   120   124   125    1
   121    89    88    1
   122    89    90    2
   123    87    88    1
   124    87    81   am
   125   164   165    1
   126    36    37    1
   127    36    39    1
   128    37    38    2
   129   168   165    1
   130   168   169    1
   131    27    23   am
   132   165   166    1
   133    80    81    1
   134    80    83    1
   135    24    23    2
   136    81    82    2
   137    85    84    2
   138    23    22    1
   139   173   172    2
   140   172   171    1
   141    26    25    1
   142    83    84    1
   143    84    86   am
   144   166   167    2
   145    20    18   ar
   146    22    25    1
   147    22    21    1
   148   171   170    1
   149    21    14   am
   150    18    17    1
   151    18    19   ar
   152    17    16    1
   153    14    15    2
   154    14    13    1
   155    16    13    1
   156    13    12    1
   157    11     9   ar
   158    11    10   ar
   159     9     7   ar
   160    12     3   am
   161    10     8   ar
   162     4     3    2
   163     7     6   ar
   164     3     2    1
   165     8     6   ar
   166     6     5    1
   167     2     5    1
   168     2     1    1
