@<TRIPOS>MOLECULE
tmp/4ynnG01.pdb
 75 72 0 0 0
SMALL
GASTEIGER

@<TRIPOS>ATOM
      1  N         15.2580  122.7320   21.9660 N.3   208  LEU208     -0.1231
      2  CA        13.8370  123.0300   22.0920 C.3   208  LEU208      0.1693
      3  C         13.5040  124.3600   21.4320 C.2   208  LEU208      0.2592
      4  O         14.3170  125.2830   21.4250 O.2   208  LEU208     -0.2718
      5  CB        13.3930  123.0350   23.5610 C.3   208  LEU208      0.0284
      6  CG        12.9410  121.7260   24.2260 C.3   208  LEU208      0.0019
      7  CD1       13.9650  120.6090   24.0630 C.3   208  LEU208      0.0001
      8  CD2       12.6250  121.9550   25.7000 C.3   208  LEU208      0.0001
      9  N         12.3130  124.4380   20.8500 N.am  209  MET209     -0.1965
     10  CA        11.8350  125.6720   20.2490 C.3   209  MET209      0.1736
     11  C         11.0490  126.4820   21.2770 C.2   209  MET209      0.2617
     12  O         10.7380  127.6530   21.0550 O.2   209  MET209     -0.2715
     13  CB        10.9610  125.3570   19.0370 C.3   209  MET209      0.0427
     14  CG        11.7470  125.0580   17.7730 C.3   209  MET209      0.0599
     15  SD        10.6990  124.5050   16.4140 S.3   209  MET209     -0.1393
     16  CE         9.2370  125.5100   16.6640 C.3   209  MET209      0.0692
     17  N         10.7470  125.8500   22.4090 N.am  210  GLY210     -0.1940
     18  CA         9.9510  126.4660   23.4580 C.3   210  GLY210      0.2014
     19  C          8.5090  126.6610   23.0350 C.2   210  GLY210      0.2639
     20  O          7.9220  127.7200   23.2450 O.2   210  GLY210     -0.2714
     21  N          7.9330  125.6230   22.4450 N.am  211  ILE211     -0.1963
     22  CA         6.5750  125.6910   21.9280 C.3   211  ILE211      0.1727
     23  C          5.7430  124.5130   22.4350 C.2   211  ILE211      0.2616
     24  O          6.2350  123.3930   22.5280 O.2   211  ILE211     -0.2715
     25  CB         6.5880  125.7320   20.3820 C.3   211  ILE211      0.0290
     26  CG1        5.1720  125.6590   19.8180 C.3   211  ILE211      0.0022
     27  CG2        7.4230  124.5960   19.8260 C.3   211  ILE211      0.0023
     28  CD1        5.1340  125.3840   18.3320 C.3   211  ILE211      0.0001
     29  N          4.4870  124.7760   22.7780 N.am  212  PHE212     -0.1960
     30  CA         3.5610  123.7220   23.1660 C.3   212  PHE212      0.1771
     31  C          2.5770  123.4770   22.0240 C.2   212  PHE212      0.2619
     32  O          2.0300  124.4190   21.4500 O.2   212  PHE212     -0.2715
     33  CB         2.8130  124.1100   24.4430 C.3   212  PHE212      0.0574
     34  CG         3.4900  123.6540   25.7070 C.ar  212  PHE212     -0.0200
     35  CD1        4.4940  124.4130   26.2870 C.ar  212  PHE212     -0.0042
     36  CD2        3.1190  122.4670   26.3180 C.ar  212  PHE212     -0.0042
     37  CE1        5.1180  123.9950   27.4500 C.ar  212  PHE212     -0.0003
     38  CE2        3.7400  122.0430   27.4810 C.ar  212  PHE212     -0.0003
     39  CZ         4.7400  122.8090   28.0470 C.ar  212  PHE212     -0.0000
     40  N          2.3660  122.2100   21.6870 N.am  213  VAL213     -0.1977
     41  CA         1.5430  121.8610   20.5370 C.3   213  VAL213      0.1596
     42  C          0.3790  120.9610   20.9440 C.2   213  VAL213      0.2287
     43  O          0.5270  120.0800   21.7920 O.2   213  VAL213     -0.2864
     44  CB         2.3820  121.1690   19.4530 C.3   213  VAL213      0.0276
     45  CG1        1.5440  120.8870   18.2340 C.3   213  VAL213      0.0022
     46  CG2        3.5560  122.0430   19.0690 C.3   213  VAL213      0.0022
     47  N         -0.3410  116.7530   15.6870 N.3   266  ALA266     -0.1245
     48  CA         0.5150  117.4170   16.6650 C.3   266  ALA266      0.1562
     49  C          1.7290  116.6030   17.0810 C.2   266  ALA266      0.2260
     50  O          2.8160  117.1530   17.2540 O.2   266  ALA266     -0.2867
     51  CB        -0.2950  117.7930   17.8910 C.3   266  ALA266      0.0290
     52  N          5.2260  116.9120   15.5160 N.3   269  VAL269     -0.1231
     53  CA         6.0910  118.0570   15.7640 C.3   269  VAL269      0.1692
     54  C          7.2720  117.6860   16.6570 C.2   269  VAL269      0.2591
     55  O          8.4170  118.0090   16.3420 O.2   269  VAL269     -0.2718
     56  CB         5.3230  119.2320   16.3840 C.3   269  VAL269      0.0266
     57  CG1        6.2730  120.3780   16.6670 C.3   269  VAL269      0.0020
     58  CG2        4.2450  119.6950   15.4390 C.3   269  VAL269      0.0020
     59  N          6.9950  117.0120   17.7700 N.am  270  LYS270     -0.1980
     60  CA         8.0510  116.6540   18.7150 C.3   270  LYS270      0.1596
     61  C          9.0960  115.7270   18.0950 C.2   270  LYS270      0.2287
     62  O         10.2990  115.9330   18.2620 O.2   270  LYS270     -0.2864
     63  CB         7.4720  116.0060   19.9780 C.3   270  LYS270      0.0298
     64  CG         8.5430  115.4190   20.8910 C.3   270  LYS270      0.0038
     65  CD         7.9680  114.7640   22.1290 C.3   270  LYS270      0.0206
     66  CE         9.0190  114.6860   23.2240 C.3   270  LYS270      0.1093
     67  NZ         8.5960  113.8080   24.3480 N.3   270  LYS270     -0.1314
     68  N         11.4370  117.5760   15.4390 N.3   273  ILE273     -0.1245
     69  CA        12.4450  118.4160   16.0690 C.3   273  ILE273      0.1561
     70  C         13.5080  117.5580   16.7540 C.2   273  ILE273      0.2260
     71  O         14.6750  117.9390   16.8250 O.2   273  ILE273     -0.2867
     72  CB        11.8160  119.4080   17.0680 C.3   273  ILE273      0.0252
     73  CG1       10.7220  120.2240   16.3770 C.3   273  ILE273      0.0019
     74  CG2       12.8750  120.3260   17.6630 C.3   273  ILE273      0.0019
     75  CD1       11.2120  121.0110   15.1850 C.3   273  ILE273      0.0001
@<TRIPOS>BOND
     1    75    73    1
     2    58    56    1
     3    68    69    1
     4    52    53    1
     5    47    48    1
     6    53    56    1
     7    53    54    1
     8    69    70    1
     9    69    72    1
    10    55    54    2
    11    73    72    1
    12    56    57    1
    13    15    16    1
    14    15    14    1
    15    54    59   am
    16    48    49    1
    17    48    51    1
    18    70    71    2
    19    72    74    1
    20    49    50    2
    21    59    60    1
    22    14    13    1
    23    61    62    2
    24    61    60    1
    25    45    44    1
    26    28    26    1
    27    60    63    1
    28    13    10    1
    29    46    44    1
    30    44    41    1
    31    26    25    1
    32    27    25    1
    33    63    64    1
    34    10     9    1
    35    10    11    1
    36    25    22    1
    37    41    42    1
    38    41    40    1
    39     9     3   am
    40    64    65    1
    41    42    43    2
    42    12    11    2
    43    11    17   am
    44     4     3    2
    45     3     2    1
    46    32    31    2
    47    40    31   am
    48    22    23    1
    49    22    21    1
    50     1     2    1
    51    31    30    1
    52     2     5    1
    53    65    66    1
    54    17    18    1
    55    23    24    2
    56    23    29   am
    57    21    19   am
    58    29    30    1
    59    19    20    2
    60    19    18    1
    61    30    33    1
    62    66    67    1
    63     5     6    1
    64     7     6    1
    65     6     8    1
    66    33    34    1
    67    34    35   ar
    68    34    36   ar
    69    35    37   ar
    70    36    38   ar
    71    37    39   ar
    72    38    39   ar
