@<TRIPOS>MOLECULE
tmp/4ynuA01.pdb
 130 128 0 0 0
SMALL
GASTEIGER

@<TRIPOS>ATOM
      1  N         25.4400   42.8770   39.9980 N.3    51  TYR51      -0.1241
      2  CA        26.6540   42.4760   40.7260 C.3    51  TYR51       0.1605
      3  C         27.8740   43.2300   40.1990 C.2    51  TYR51       0.2264
      4  O         28.1440   43.2270   39.0020 O.2    51  TYR51      -0.2867
      5  CB        26.8760   40.9540   40.6360 C.3    51  TYR51       0.0534
      6  CG        28.1950   40.5020   41.2160 C.ar   51  TYR51      -0.0201
      7  CD1       28.5980   40.9110   42.4770 C.ar   51  TYR51      -0.0009
      8  CD2       29.0570   39.6720   40.4930 C.ar   51  TYR51      -0.0009
      9  CE1       29.8050   40.5130   43.0020 C.ar   51  TYR51       0.0417
     10  CE2       30.2720   39.2780   41.0100 C.ar   51  TYR51       0.0417
     11  CZ        30.6450   39.6980   42.2700 C.ar   51  TYR51       0.1957
     12  OH        31.8630   39.3090   42.8190 O.3    51  TYR51      -0.2866
     13  N         26.8940   40.9350   46.7110 N.3    91  ASN91      -0.1225
     14  CA        27.5770   39.7340   46.2450 C.3    91  ASN91       0.1785
     15  C         27.0010   39.2200   44.9280 C.2    91  ASN91       0.2598
     16  O         26.1170   39.8430   44.3300 O.2    91  ASN91      -0.2718
     17  CB        27.5570   38.6470   47.3370 C.3    91  ASN91       0.1169
     18  CG        26.1680   38.1090   47.6120 C.2    91  ASN91       0.2627
     19  OD1       25.1750   38.6070   47.0770 O.2    91  ASN91      -0.2716
     20  ND2       26.0920   37.0670   48.4470 N.am   91  ASN91      -0.0877
     21  N         27.5390   38.1060   44.4420 N.am   92  GLY92      -0.1942
     22  CA        27.0500   37.5110   43.2140 C.3    92  GLY92       0.2014
     23  C         25.8260   36.7220   43.6080 C.2    92  GLY92       0.2639
     24  O         25.4710   36.6530   44.7900 O.2    92  GLY92      -0.2714
     25  N         25.1330   36.1260   42.6730 N.am   93  MET93      -0.1963
     26  CA        23.8670   35.6050   43.1500 C.3    93  MET93       0.1736
     27  C         23.7090   34.0950   43.1170 C.2    93  MET93       0.2616
     28  O         22.6480   33.5770   43.4170 O.2    93  MET93      -0.2715
     29  CB        22.7090   36.3720   42.5460 C.3    93  MET93       0.0427
     30  CG        22.3790   37.5990   43.3800 C.3    93  MET93       0.0599
     31  SD        21.6010   38.9040   42.4460 S.3    93  MET93      -0.1393
     32  CE        20.2190   37.9890   41.7590 C.3    93  MET93       0.0692
     33  N         24.7950   33.3900   42.8270 N.am   94  ALA94      -0.1977
     34  CA        24.7440   31.9500   42.6760 C.3    94  ALA94       0.1597
     35  C         24.4030   31.2830   43.9990 C.2    94  ALA94       0.2287
     36  O         25.0190   31.5660   45.0190 O.2    94  ALA94      -0.2864
     37  CB        26.0790   31.4280   42.1550 C.3    94  ALA94       0.0319
     38  N         23.0170   26.8700   37.3970 N.3   197  TYR197     -0.1241
     39  CA        22.7540   27.1260   38.8080 C.3   197  TYR197      0.1605
     40  C         21.5790   28.0720   39.0070 C.2   197  TYR197      0.2264
     41  O         21.3510   28.9860   38.2100 O.2   197  TYR197     -0.2867
     42  CB        23.9920   27.6760   39.5100 C.3   197  TYR197      0.0534
     43  CG        24.5370   28.9470   38.9070 C.ar  197  TYR197     -0.0201
     44  CD1       25.5210   28.9080   37.9280 C.ar  197  TYR197     -0.0009
     45  CD2       24.0770   30.1940   39.3280 C.ar  197  TYR197     -0.0009
     46  CE1       26.0180   30.0660   37.3730 C.ar  197  TYR197      0.0417
     47  CE2       24.5760   31.3630   38.7740 C.ar  197  TYR197      0.0417
     48  CZ        25.5480   31.2890   37.7940 C.ar  197  TYR197      0.1957
     49  OH        26.0510   32.4560   37.2490 O.3   197  TYR197     -0.2866
     50  N         33.1500   29.5690   36.6160 N.3   399  LEU399     -0.1245
     51  CA        31.9650   30.2100   36.0590 C.3   399  LEU399      0.1561
     52  C         32.2100   30.6110   34.6250 C.2   399  LEU399      0.2260
     53  O         33.2750   31.1150   34.2610 O.2   399  LEU399     -0.2867
     54  CB        31.5770   31.4530   36.8750 C.3   399  LEU399      0.0270
     55  CG        31.0420   31.1760   38.2730 C.3   399  LEU399      0.0019
     56  CD1       30.9640   32.4170   39.1640 C.3   399  LEU399      0.0001
     57  CD2       29.6930   30.5000   38.1730 C.3   399  LEU399      0.0001
     58  N         35.3670   33.1530   35.2210 N.3   411  GLU411     -0.1245
     59  CA        36.0510   33.4310   36.4600 C.3   411  GLU411      0.1567
     60  C         36.1420   32.1420   37.2450 C.2   411  GLU411      0.2260
     61  O         35.3110   31.2540   37.1080 O.2   411  GLU411     -0.2867
     62  CB        35.4020   34.5740   37.2500 C.3   411  GLU411      0.0388
     63  CG        34.1350   34.2360   37.9830 C.3   411  GLU411      0.1160
     64  CD        33.5360   35.4450   38.6780 C.2   411  GLU411      0.3649
     65  OE1       34.0560   35.8590   39.7370 O.co2 411  GLU411     -0.2457
     66  OE2       32.5350   35.9880   38.1670 O.co2 411  GLU411     -0.2457
     67  N         38.2530   29.9150   40.7390 N.3   413  TRP413     -0.1241
     68  CA        39.0630   29.9020   41.9480 C.3   413  TRP413      0.1605
     69  C         39.2530   28.4870   42.4650 C.2   413  TRP413      0.2264
     70  O         38.3470   27.6590   42.4070 O.2   413  TRP413     -0.2867
     71  CB        38.4730   30.7920   43.0390 C.3   413  TRP413      0.0550
     72  CG        37.0380   30.5550   43.4060 C.ar  413  TRP413      0.0003
     73  CD1       36.5750   29.8250   44.4610 C.ar  413  TRP413      0.0946
     74  CD2       35.8800   31.1220   42.7670 C.ar  413  TRP413      0.0152
     75  NE1       35.2000   29.8830   44.5040 N.ar  413  TRP413     -0.2442
     76  CE2       34.7500   30.6750   43.4810 C.ar  413  TRP413      0.0810
     77  CE3       35.6930   31.9690   41.6730 C.ar  413  TRP413      0.0012
     78  CZ2       33.4620   31.0250   43.1240 C.ar  413  TRP413      0.0191
     79  CZ3       34.4020   32.3170   41.3170 C.ar  413  TRP413      0.0001
     80  CH2       33.3050   31.8510   42.0460 C.ar  413  TRP413      0.0015
     81  N         42.3870   38.6190   42.5310 N.3   499  ARG499     -0.1245
     82  CA        41.8140   39.3310   43.6470 C.3   499  ARG499      0.1563
     83  C         41.3630   38.3430   44.7070 C.2   499  ARG499      0.2260
     84  O         41.2320   37.1400   44.4370 O.2   499  ARG499     -0.2867
     85  CB        40.6320   40.1670   43.1790 C.3   499  ARG499      0.0307
     86  CG        39.4930   39.3620   42.5890 C.3   499  ARG499      0.0489
     87  CD        38.2690   40.2500   42.4700 C.3   499  ARG499      0.2205
     88  NE        37.1620   39.6770   41.7220 N.pl3 499  ARG499     -0.0865
     89  CZ        36.2580   38.8470   42.2340 C.cat 499  ARG499      0.5346
     90  NH1       36.3650   38.4040   43.4850 N.pl3 499  ARG499      0.1354
     91  NH2       35.2600   38.4200   41.4660 N.pl3 499  ARG499      0.1354
     92  N         38.7420   36.2900   46.5680 N.3   501  ASN501     -0.1225
     93  CA        37.4370   35.7620   46.2690 C.3   501  ASN501      0.1785
     94  C         36.3630   36.0990   47.2850 C.2   501  ASN501      0.2597
     95  O         35.2020   35.7150   47.1120 O.2   501  ASN501     -0.2718
     96  CB        37.4840   34.2380   46.0940 C.3   501  ASN501      0.1169
     97  CG        36.3010   33.7260   45.3210 C.2   501  ASN501      0.2627
     98  OD1       35.9280   34.3000   44.2940 O.2   501  ASN501     -0.2716
     99  ND2       35.6610   32.6660   45.8310 N.am  501  ASN501     -0.0877
    100  N         36.7310   36.8330   48.3250 N.am  502  PHE502     -0.1962
    101  CA        35.7490   37.3470   49.2900 C.3   502  PHE502      0.1771
    102  C         34.9600   36.2300   49.9630 C.2   502  PHE502      0.2619
    103  O         33.7560   36.3710   50.2030 O.2   502  PHE502     -0.2715
    104  CB        34.7600   38.3040   48.6230 C.3   502  PHE502      0.0574
    105  CG        35.3930   39.3650   47.7630 C.ar  502  PHE502     -0.0200
    106  CD1       36.4730   40.1050   48.2120 C.ar  502  PHE502     -0.0042
    107  CD2       34.8680   39.6400   46.5130 C.ar  502  PHE502     -0.0042
    108  CE1       37.0390   41.0830   47.4010 C.ar  502  PHE502     -0.0003
    109  CE2       35.4240   40.6180   45.7080 C.ar  502  PHE502     -0.0003
    110  CZ        36.5020   41.3470   46.1630 C.ar  502  PHE502     -0.0000
    111  N         35.6390   35.1240   50.2670 N.am  503  HIS503     -0.1973
    112  CA        35.0550   34.0400   51.0630 C.3   503  HIS503      0.1656
    113  C         35.8430   33.7730   52.3500 C.2   503  HIS503      0.2291
    114  O         36.1110   32.6150   52.6820 O.2   503  HIS503     -0.2864
    115  CB        35.0350   32.7230   50.2710 C.3   503  HIS503      0.0771
    116  CG        33.9680   32.6360   49.2250 C.ar  503  HIS503      0.0820
    117  ND1       33.5770   31.4390   48.6580 N.ar  503  HIS503     -0.2267
    118  CD2       33.2330   33.5940   48.6160 C.ar  503  HIS503      0.1154
    119  CE1       32.6620   31.6710   47.7310 C.ar  503  HIS503      0.1986
    120  NE2       32.4290   32.9680   47.6920 N.ar  503  HIS503     -0.2212
    121  N         29.1280   28.5910   47.2390 N.3   546  HIS546     -0.1241
    122  CA        28.9090   29.9860   47.5480 C.3   546  HIS546      0.1621
    123  C         28.3900   30.1330   48.9840 C.2   546  HIS546      0.2264
    124  O         27.4160   29.5040   49.3730 O.2   546  HIS546     -0.2867
    125  CB        27.9420   30.5650   46.5040 C.3   546  HIS546      0.0745
    126  CG        28.5740   30.7150   45.1490 C.ar  546  HIS546      0.0817
    127  ND1       29.1080   31.9040   44.7070 N.ar  546  HIS546     -0.2268
    128  CD2       28.8480   29.8040   44.1850 C.ar  546  HIS546      0.1154
    129  CE1       29.6330   31.7330   43.5050 C.ar  546  HIS546      0.1986
    130  NE2       29.4870   30.4690   43.1630 N.ar  546  HIS546     -0.2212
@<TRIPOS>BOND
     1    53    52    2
     2    52    51    1
     3    58    59    1
     4    51    50    1
     5    51    54    1
     6    59    60    1
     7    59    62    1
     8    54    55    1
     9    61    60    2
    10    49    48    1
    11    62    63    1
    12    46    48   ar
    13    46    44   ar
    14    38    39    1
    15    48    47   ar
    16    44    43   ar
    17    63    64    1
    18    66    64   ar
    19    57    55    1
    20    41    40    2
    21    55    56    1
    22    64    65   ar
    23    47    45   ar
    24    39    40    1
    25    39    42    1
    26    43    45   ar
    27    43    42    1
    28     4     3    2
    29     1     2    1
    30     3     2    1
    31     8    10   ar
    32     8     6   ar
    33     5     2    1
    34     5     6    1
    35    67    68    1
    36    10    11   ar
    37     6     7   ar
    38    79    77   ar
    39    79    80   ar
    40    91    89    1
    41    77    74   ar
    42    88    89    2
    43    88    87    1
    44    32    31    1
    45    68    69    1
    46    68    71    1
    47    80    78   ar
    48    37    34    1
    49    89    90    1
    50    11    12    1
    51    11     9   ar
    52    70    69    2
    53    31    30    1
    54    87    86    1
    55     7     9   ar
    56    81    82    1
    57    29    26    1
    58    29    30    1
    59    86    85    1
    60    25    26    1
    61    25    23   am
    62    34    33    1
    63    34    35    1
    64    74    72   ar
    65    74    76   ar
    66    33    27   am
    67    71    72    1
    68    27    26    1
    69    27    28    2
    70    78    76   ar
    71   130   129   ar
    72   130   128   ar
    73    85    82    1
    74    22    23    1
    75    22    21    1
    76    72    73   ar
    77    76    75   ar
    78   129   127   ar
    79    23    24    2
    80    82    83    1
    81    35    36    2
    82   128   126   ar
    83    98    97    2
    84    16    15    2
    85    84    83    2
    86    21    15   am
    87    73    75   ar
    88   127   126   ar
    89    15    14    1
    90   126   125    1
    91    97    99   am
    92    97    96    1
    93   109   110   ar
    94   109   107   ar
    95    96    93    1
    96   110   108   ar
    97    14    13    1
    98    14    17    1
    99    93    92    1
   100    93    94    1
   101   125   122    1
   102   107   105   ar
   103    19    18    2
   104    95    94    2
   105   121   122    1
   106    94   100   am
   107    17    18    1
   108   108   106   ar
   109   122   123    1
   110    18    20   am
   111   120   119   ar
   112   120   118   ar
   113   119   117   ar
   114   105   106   ar
   115   105   104    1
   116   100   101    1
   117   118   116   ar
   118   104   101    1
   119   117   116   ar
   120   123   124    2
   121   116   115    1
   122   101   102    1
   123   102   103    2
   124   102   111   am
   125   111   112    1
   126   115   112    1
   127   112   113    1
   128   113   114    2
