@<TRIPOS>MOLECULE
tmp/4yo0C00.pdb
 120 118 0 0 0
SMALL
GASTEIGER

@<TRIPOS>ATOM
      1  N        -38.1320   33.3890    2.6330 N.3    31  ASN31      -0.1225
      2  CA       -37.8600   32.9130    3.9900 C.3    31  ASN31       0.1785
      3  C        -36.7210   31.9010    4.0720 C.2    31  ASN31       0.2597
      4  O        -36.3360   31.5390    5.1800 O.2    31  ASN31      -0.2718
      5  CB       -39.1400   32.3120    4.6150 C.3    31  ASN31       0.1169
      6  CG       -40.0740   33.3970    5.1640 C.2    31  ASN31       0.2627
      7  OD1      -39.6880   34.5800    5.2300 O.2    31  ASN31      -0.2716
      8  ND2      -41.2800   33.0120    5.5780 N.am   31  ASN31      -0.0877
      9  N        -36.1480   31.4640    2.9490 N.am   32  TYR32      -0.1962
     10  CA       -35.1500   30.4010    2.9400 C.3    32  TYR32       0.1771
     11  C        -34.0180   30.6710    1.9880 C.2    32  TYR32       0.2620
     12  O        -34.2220   31.1770    0.8780 O.2    32  TYR32      -0.2715
     13  CB       -35.8370   29.0650    2.5290 C.3    32  TYR32       0.0574
     14  CG       -36.9830   28.7550    3.4750 C.ar   32  TYR32      -0.0198
     15  CD1      -36.7090   28.1540    4.7180 C.ar   32  TYR32      -0.0009
     16  CD2      -38.2580   29.1520    3.1980 C.ar   32  TYR32      -0.0009
     17  CE1      -37.7420   27.9040    5.6300 C.ar   32  TYR32       0.0417
     18  CE2      -39.2950   28.8940    4.0720 C.ar   32  TYR32       0.0417
     19  CZ       -39.0490   28.3020    5.2910 C.ar   32  TYR32       0.1957
     20  OH       -40.1550   28.1130    6.1200 O.3    32  TYR32      -0.2866
     21  N        -32.8280   30.2640    2.4160 N.am   33  GLY33      -0.1954
     22  CA       -31.6900   30.2200    1.5240 C.3    33  GLY33       0.1869
     23  C        -31.8860   29.1920    0.4090 C.2    33  GLY33       0.2309
     24  O        -32.6290   28.2060    0.4950 O.2    33  GLY33      -0.2863
     25  N        -21.1250   20.6740   -3.5300 N.3    47  TRP47      -0.1241
     26  CA       -21.7250   22.0110   -3.3240 C.3    47  TRP47       0.1605
     27  C        -21.0280   23.0970   -4.1360 C.2    47  TRP47       0.2264
     28  O        -19.8070   23.2590   -4.0580 O.2    47  TRP47      -0.2867
     29  CB       -21.6480   22.2750   -1.8400 C.3    47  TRP47       0.0550
     30  CG       -22.0920   23.7140   -1.4540 C.ar   47  TRP47       0.0003
     31  CD1      -23.3370   24.2360   -1.6250 C.ar   47  TRP47       0.0946
     32  CD2      -21.3030   24.6990   -0.7780 C.ar   47  TRP47       0.0152
     33  NE1      -23.3290   25.5710   -1.1520 N.ar   47  TRP47      -0.2442
     34  CE2      -22.1010   25.8280   -0.6100 C.ar   47  TRP47       0.0810
     35  CE3      -19.9810   24.7170   -0.3290 C.ar   47  TRP47       0.0012
     36  CZ2      -21.6570   26.9420    0.0740 C.ar   47  TRP47       0.0191
     37  CZ3      -19.5030   25.8990    0.3280 C.ar   47  TRP47       0.0001
     38  CH2      -20.3440   26.9760    0.4640 C.ar   47  TRP47       0.0015
     39  N        -24.2490   28.8390   -2.1380 N.3    50  SER50      -0.1202
     40  CA       -25.5020   29.1000   -1.4310 C.3    50  SER50       0.2020
     41  C        -25.7270   30.6260   -1.3830 C.2    50  SER50       0.2619
     42  O        -24.7650   31.3950   -1.4080 O.2    50  SER50      -0.2717
     43  CB       -25.4560   28.5970   -0.0220 C.3    50  SER50       0.2103
     44  OG       -25.3590   27.1280   -0.0870 O.3    50  SER50      -0.2182
     45  N        -27.0030   30.9920   -1.2340 N.am   51  ILE51      -0.1965
     46  CA       -27.3830   32.4080   -1.0480 C.3    51  ILE51       0.1727
     47  C        -28.4060   32.5090    0.0660 C.2    51  ILE51       0.2617
     48  O        -29.3090   31.6740    0.1810 O.2    51  ILE51      -0.2715
     49  CB       -27.9130   33.0070   -2.3680 C.3    51  ILE51       0.0290
     50  CG1      -28.1700   34.5110   -2.2310 C.3    51  ILE51       0.0022
     51  CG2      -29.2210   32.2660   -2.9080 C.3    51  ILE51       0.0023
     52  CD1      -28.2360   35.1680   -3.5660 C.3    51  ILE51       0.0001
     53  N        -28.2230   33.4850    0.9500 N.am   52  SER52      -0.1936
     54  CA       -29.1050   33.6450    2.0780 C.3    52  SER52       0.2055
     55  C        -30.5150   34.0030    1.6300 C.2    52  SER52       0.2643
     56  O        -30.7500   34.4920    0.5060 O.2    52  SER52      -0.2714
     57  CB       -28.5640   34.7400    3.0110 C.3    52  SER52       0.2130
     58  OG       -28.5090   36.0000    2.3150 O.3    52  SER52      -0.2179
     59  N        -31.4570   33.8440    2.5570 N.am   53  ALA53      -0.1963
     60  CA       -32.8830   34.1350    2.2760 C.3    53  ALA53       0.1728
     61  C        -33.1030   35.5390    1.6750 C.2    53  ALA53       0.2616
     62  O        -33.8930   35.7100    0.7390 O.2    53  ALA53      -0.2715
     63  CB       -33.7030   34.0220    3.5720 C.3    53  ALA53       0.0334
     64  N        -32.3870   36.5100    2.1830 N.am   54  GLY54      -0.1955
     65  CA       -32.5420   37.9210    1.7610 C.3    54  GLY54       0.1869
     66  C        -31.8130   38.3020    0.4830 C.2    54  GLY54       0.2309
     67  O        -32.0690   39.4090   -0.0730 O.2    54  GLY54      -0.2863
     68  N        -28.6280   38.8070    0.0530 N.3    56  ASP56      -0.1225
     69  CA       -27.5530   39.7620    0.2110 C.3    56  ASP56       0.1805
     70  C        -26.2290   39.0970    0.6570 C.2    56  ASP56       0.2597
     71  O        -25.2080   39.8070    0.7990 O.2    56  ASP56      -0.2718
     72  CB       -28.0230   40.8670    1.2050 C.3    56  ASP56       0.1424
     73  CG       -28.4170   40.2190    2.5840 C.2    56  ASP56       0.3668
     74  OD1      -29.0860   39.1160    2.5970 O.co2  56  ASP56      -0.2456
     75  OD2      -28.0930   40.8120    3.6350 O.co2  56  ASP56      -0.2456
     76  N        -26.2210   37.7990    0.9410 N.am   57  LYS57      -0.1979
     77  CA       -25.0000   37.1020    1.3550 C.3    57  LYS57       0.1596
     78  C        -24.8180   35.8320    0.5480 C.2    57  LYS57       0.2287
     79  O        -25.7610   35.0730    0.3640 O.2    57  LYS57      -0.2864
     80  CB       -25.0660   36.6940    2.8240 C.3    57  LYS57       0.0298
     81  CG       -25.4150   37.9150    3.7350 C.3    57  LYS57       0.0038
     82  CD       -25.4010   37.3930    5.1810 C.3    57  LYS57       0.0206
     83  CE       -26.7850   37.0040    5.6340 C.3    57  LYS57       0.1093
     84  NZ       -26.9070   36.8520    7.1240 N.3    57  LYS57      -0.1314
     85  N        -22.1370   32.4640   -0.6970 N.3    59  TYR59      -0.1241
     86  CA       -21.1050   31.5720   -0.1660 C.3    59  TYR59       0.1605
     87  C        -20.7530   30.5630   -1.2610 C.2    59  TYR59       0.2264
     88  O        -21.6770   30.0190   -1.8920 O.2    59  TYR59      -0.2867
     89  CB       -21.6640   30.7550    1.0460 C.3    59  TYR59       0.0534
     90  CG       -22.0950   31.6140    2.1990 C.ar   59  TYR59      -0.0201
     91  CD1      -23.3790   32.2430    2.1700 C.ar   59  TYR59      -0.0009
     92  CD2      -21.2590   31.8190    3.3120 C.ar   59  TYR59      -0.0009
     93  CE1      -23.7880   33.0510    3.2060 C.ar   59  TYR59       0.0417
     94  CE2      -21.6850   32.5820    4.3700 C.ar   59  TYR59       0.0417
     95  CZ       -22.9440   33.1950    4.3040 C.ar   59  TYR59       0.1957
     96  OH       -23.3680   34.0730    5.3570 O.3    59  TYR59      -0.2866
     97  N        -32.8960   25.2590    1.5810 N.3    99  THR99      -0.1203
     98  CA       -32.3550   24.9620    2.9050 C.3    99  THR99       0.1994
     99  C        -33.4360   25.1240    3.9690 C.2    99  THR99       0.2619
    100  O        -34.4320   25.8730    3.8240 O.2    99  THR99      -0.2717
    101  CB       -31.0780   25.7870    3.2380 C.3    99  THR99       0.1784
    102  OG1      -31.3560   27.1970    3.1790 O.3    99  THR99      -0.2211
    103  CG2      -29.9530   25.3370    2.2590 C.3    99  THR99       0.0376
    104  N        -33.2210   24.4120    5.0730 N.am  100  SER100     -0.1937
    105  CA       -33.9670   24.6070    6.3140 C.3   100  SER100      0.2055
    106  C        -32.9700   24.5910    7.4890 C.2   100  SER100      0.2642
    107  O        -32.8980   23.6110    8.2830 O.2   100  SER100     -0.2714
    108  CB       -35.0590   23.5630    6.4730 C.3   100  SER100      0.2130
    109  OG       -35.8240   23.8380    7.6390 O.3   100  SER100     -0.2179
    110  N        -32.1510   25.6470    7.5480 N.am  101  ARG101     -0.1977
    111  CA       -31.1450   25.9130    8.5610 C.3   101  ARG101      0.1597
    112  C        -29.9510   24.9700    8.5560 C.2   101  ARG101      0.2287
    113  O        -28.8080   25.4440    8.5660 O.2   101  ARG101     -0.2864
    114  CB       -31.7810   25.9800    9.9530 C.3   101  ARG101      0.0334
    115  CG       -32.5850   27.2690   10.1340 C.3   101  ARG101      0.0492
    116  CD       -32.7800   27.6660   11.5920 C.3   101  ARG101      0.2205
    117  NE       -31.5270   28.0940   12.2010 N.pl3 101  ARG101     -0.0865
    118  CZ       -31.0510   29.3380   12.1510 C.cat 101  ARG101      0.5346
    119  NH1      -31.7170   30.3020   11.5000 N.pl3 101  ARG101      0.1354
    120  NH2      -29.8930   29.6100   12.7480 N.pl3 101  ARG101      0.1354
@<TRIPOS>BOND
     1    27    28    2
     2    27    26    1
     3    52    50    1
     4    25    26    1
     5    26    29    1
     6    51    49    1
     7    49    50    1
     8    49    46    1
     9    39    40    1
    10    88    87    2
    11    29    30    1
    12    31    30   ar
    13    31    33   ar
    14    30    32   ar
    15    40    41    1
    16    40    43    1
    17    42    41    2
    18    41    45   am
    19    87    86    1
    20    45    46    1
    21    33    34   ar
    22    46    47    1
    23    32    34   ar
    24    32    35   ar
    25    85    86    1
    26    34    36   ar
    27    35    37   ar
    28    86    89    1
    29    44    43    1
    30    67    66    2
    31    68    69    1
    32    47    48    2
    33    47    53   am
    34    36    38   ar
    35    69    70    1
    36    69    72    1
    37    37    38   ar
    38    79    78    2
    39    23    24    2
    40    23    22    1
    41    66    65    1
    42    56    55    2
    43    78    77    1
    44    70    71    2
    45    70    76   am
    46    62    61    2
    47    12    11    2
    48    76    77    1
    49    53    54    1
    50    89    90    1
    51    72    73    1
    52    77    80    1
    53    22    21    1
    54    97    98    1
    55    55    54    1
    56    55    59   am
    57    61    64   am
    58    61    60    1
    59    65    64    1
    60    11    21   am
    61    11    10    1
    62    54    57    1
    63    91    90   ar
    64    91    93   ar
    65    90    92   ar
    66   103   101    1
    67    60    59    1
    68    60    63    1
    69    58    57    1
    70    13    10    1
    71    13    14    1
    72    73    74   ar
    73    73    75   ar
    74     1     2    1
    75    80    81    1
    76    98   101    1
    77    98    99    1
    78    10     9    1
    79     9     3   am
    80   102   101    1
    81    16    14   ar
    82    16    18   ar
    83    93    95   ar
    84    92    94   ar
    85    14    15   ar
    86    81    82    1
    87   100    99    2
    88    99   104   am
    89     2     3    1
    90     2     5    1
    91    18    19   ar
    92     3     4    2
    93    95    94   ar
    94    95    96    1
    95     5     6    1
    96    15    17   ar
    97   104   105    1
    98     6     7    2
    99     6     8   am
   100    82    83    1
   101    19    17   ar
   102    19    20    1
   103    83    84    1
   104   105   108    1
   105   105   106    1
   106   108   109    1
   107   106   110   am
   108   106   107    2
   109   110   111    1
   110   112   111    1
   111   112   113    2
   112   111   114    1
   113   114   115    1
   114   115   116    1
   115   119   118    1
   116   116   117    1
   117   118   117    2
   118   118   120    1
