@<TRIPOS>MOLECULE
tmp/4yo0A00.pdb
 114 111 0 0 0
SMALL
GASTEIGER

@<TRIPOS>ATOM
      1  N        -68.4850    6.0320  -54.6600 N.3    31  ASN31      -0.1225
      2  CA       -69.3090    6.4810  -55.7890 C.3    31  ASN31       0.1785
      3  C        -68.6250    7.5050  -56.7160 C.2    31  ASN31       0.2597
      4  O        -69.2280    7.8980  -57.7330 O.2    31  ASN31      -0.2718
      5  CB       -70.6150    7.0790  -55.2520 C.3    31  ASN31       0.1169
      6  CG       -71.6930    6.0340  -55.0160 C.2    31  ASN31       0.2627
      7  OD1      -71.5020    4.8400  -55.2690 O.2    31  ASN31      -0.2716
      8  ND2      -72.8430    6.4890  -54.5380 N.am   31  ASN31      -0.0877
      9  N        -67.3760    7.8870  -56.4480 N.am   32  TYR32      -0.1962
     10  CA       -66.7030    8.9750  -57.1530 C.3    32  TYR32       0.1771
     11  C        -65.2310    8.6940  -57.3750 C.2    32  TYR32       0.2620
     12  O        -64.5310    8.1910  -56.4770 O.2    32  TYR32      -0.2715
     13  CB       -66.8610   10.2940  -56.3840 C.3    32  TYR32       0.0574
     14  CG       -68.3090   10.6560  -56.2510 C.ar   32  TYR32      -0.0198
     15  CD1      -69.0250   11.2460  -57.3190 C.ar   32  TYR32      -0.0009
     16  CD2      -69.0160   10.3860  -55.0790 C.ar   32  TYR32      -0.0009
     17  CE1      -70.3890   11.5430  -57.2130 C.ar   32  TYR32       0.0417
     18  CE2      -70.3920   10.6930  -54.9580 C.ar   32  TYR32       0.0417
     19  CZ       -71.0670   11.2800  -56.0270 C.ar   32  TYR32       0.1957
     20  OH       -72.4120   11.5790  -55.8980 O.3    32  TYR32      -0.2866
     21  N        -64.7460    9.0750  -58.5590 N.am   33  GLY33      -0.1954
     22  CA       -63.3040    9.1180  -58.8200 C.3    33  GLY33       0.1869
     23  C        -62.6030   10.1680  -57.9900 C.2    33  GLY33       0.2309
     24  O        -63.2040   11.0050  -57.3280 O.2    33  GLY33      -0.2863
     25  N        -52.5800   18.6610  -63.7620 N.3    47  TRP47      -0.1241
     26  CA       -53.1850   17.3730  -63.3800 C.3    47  TRP47       0.1605
     27  C        -52.1290   16.2670  -63.4220 C.2    47  TRP47       0.2264
     28  O        -51.4120   16.1390  -64.4080 O.2    47  TRP47      -0.2867
     29  CB       -54.3330   17.1170  -64.3670 C.3    47  TRP47       0.0550
     30  CG       -54.8570   15.6940  -64.3040 C.ar   47  TRP47       0.0003
     31  CD1      -55.5150   15.1040  -63.2460 C.ar   47  TRP47       0.0946
     32  CD2      -54.8830   14.7610  -65.3760 C.ar   47  TRP47       0.0152
     33  NE1      -55.8990   13.8190  -63.6030 N.ar   47  TRP47      -0.2442
     34  CE2      -55.4950   13.5900  -64.8890 C.ar   47  TRP47       0.0810
     35  CE3      -54.3660   14.7660  -66.6800 C.ar   47  TRP47       0.0012
     36  CZ2      -55.7130   12.4290  -65.6930 C.ar   47  TRP47       0.0191
     37  CZ3      -54.5650   13.6230  -67.4980 C.ar   47  TRP47       0.0001
     38  CH2      -55.2390   12.4320  -66.9630 C.ar   47  TRP47       0.0015
     39  N        -55.7060   10.5180  -62.3240 N.3    50  SER50      -0.1202
     40  CA       -57.0320   10.2640  -61.7860 C.3    50  SER50       0.2020
     41  C        -57.2490    8.7610  -61.6400 C.2    50  SER50       0.2619
     42  O        -56.7120    7.9750  -62.4350 O.2    50  SER50      -0.2717
     43  CB       -58.1480   10.7450  -62.6730 C.3    50  SER50       0.2103
     44  OG       -58.0580   12.2150  -62.6830 O.3    50  SER50      -0.2182
     45  N        -58.1270    8.3950  -60.7040 N.am   51  ILE51      -0.1965
     46  CA       -58.5240    6.9750  -60.5550 C.3    51  ILE51       0.1727
     47  C        -60.0590    6.8990  -60.4840 C.2    51  ILE51       0.2617
     48  O        -60.7240    7.8340  -59.9830 O.2    51  ILE51      -0.2715
     49  CB       -57.8640    6.3350  -59.2920 C.3    51  ILE51       0.0290
     50  CG1      -58.3060    4.8650  -59.0970 C.3    51  ILE51       0.0022
     51  CG2      -58.3560    7.0870  -58.0400 C.3    51  ILE51       0.0023
     52  CD1      -57.3860    4.1920  -57.9900 C.3    51  ILE51       0.0001
     53  N        -60.6680    5.8580  -61.1110 N.am   52  SER52      -0.1936
     54  CA       -62.1200    5.8260  -61.2200 C.3    52  SER52       0.2055
     55  C        -62.7960    5.4620  -59.9130 C.2    52  SER52       0.2643
     56  O        -62.1510    5.0110  -58.9520 O.2    52  SER52      -0.2714
     57  CB       -62.5520    4.8580  -62.3210 C.3    52  SER52       0.2130
     58  OG       -62.0770    3.5220  -62.0330 O.3    52  SER52      -0.2179
     59  N        -64.1450    5.6340  -59.9000 N.am   53  ALA53      -0.1963
     60  CA       -64.9180    5.2960  -58.7060 C.3    53  ALA53       0.1728
     61  C        -64.6920    3.8540  -58.2350 C.2    53  ALA53       0.2616
     62  O        -64.4900    3.6270  -57.0480 O.2    53  ALA53      -0.2715
     63  CB       -66.4000    5.5120  -58.9720 C.3    53  ALA53       0.0334
     64  N        -64.6710    2.9160  -59.1360 N.am   54  GLY54      -0.1955
     65  CA       -64.3280    1.5850  -58.6020 C.3    54  GLY54       0.1869
     66  C        -62.8780    1.1870  -58.3540 C.2    54  GLY54       0.2309
     67  O        -62.6150   -0.0020  -58.0740 O.2    54  GLY54      -0.2863
     68  N        -60.5100    0.7610  -60.3970 N.3    56  ASP56      -0.1225
     69  CA       -59.9620   -0.2140  -61.3440 C.3    56  ASP56       0.1805
     70  C        -59.4090    0.4220  -62.6430 C.2    56  ASP56       0.2597
     71  O        -58.9510   -0.3210  -63.5510 O.2    56  ASP56      -0.2718
     72  CB       -61.0320   -1.2760  -61.6690 C.3    56  ASP56       0.1424
     73  CG       -62.3540   -0.7020  -62.2750 C.2    56  ASP56       0.3668
     74  OD1      -62.8080    0.4350  -62.0260 O.co2  56  ASP56      -0.2456
     75  OD2      -62.9990   -1.4780  -63.0060 O.co2  56  ASP56      -0.2456
     76  N        -59.5870    1.7310  -62.8350 N.am   57  LYS57      -0.1979
     77  CA       -59.1300    2.4150  -64.0440 C.3    57  LYS57       0.1596
     78  C        -58.3190    3.6270  -63.6310 C.2    57  LYS57       0.2287
     79  O        -58.7410    4.3780  -62.7460 O.2    57  LYS57      -0.2864
     80  CB       -60.3000    2.9010  -64.9370 C.3    57  LYS57       0.0298
     81  CG       -61.3130    1.7970  -65.2960 C.3    57  LYS57       0.0038
     82  CD       -62.6000    2.3060  -65.9800 C.3    57  LYS57       0.0206
     83  CE       -63.6410    1.2130  -66.0930 C.3    57  LYS57       0.1093
     84  NZ       -64.8530    1.7600  -66.7370 N.3    57  LYS57      -0.1314
     85  N        -55.6520    6.9630  -64.9420 N.3    59  TYR59      -0.1241
     86  CA       -55.3090    7.8620  -66.0400 C.3    59  TYR59       0.1605
     87  C        -54.1910    8.7850  -65.5900 C.2    59  TYR59       0.2264
     88  O        -54.2800    9.3750  -64.5010 O.2    59  TYR59      -0.2867
     89  CB       -56.5320    8.7190  -66.4490 C.3    59  TYR59       0.0534
     90  CG       -57.7050    7.8970  -66.9340 C.ar   59  TYR59      -0.0201
     91  CD1      -58.5680    7.2650  -66.0400 C.ar   59  TYR59      -0.0009
     92  CD2      -57.9320    7.8130  -68.2780 C.ar   59  TYR59      -0.0009
     93  CE1      -59.6180    6.5070  -66.5210 C.ar   59  TYR59       0.0417
     94  CE2      -58.9670    7.0630  -68.7820 C.ar   59  TYR59       0.0417
     95  CZ       -59.8440    6.4750  -67.9060 C.ar   59  TYR59       0.1957
     96  OH       -60.9240    5.7100  -68.4220 O.3    59  TYR59      -0.2866
     97  N        -64.0360   14.0900  -57.9280 N.3    99  THR99      -0.1218
     98  CA       -64.6990   14.3860  -59.1750 C.3    99  THR99       0.1862
     99  C        -66.1960   14.1350  -59.1040 C.2    99  THR99       0.2287
    100  O        -66.6920   13.4220  -58.2240 O.2    99  THR99      -0.2866
    101  CB       -64.1250   13.6440  -60.3840 C.3    99  THR99       0.1770
    102  OG1      -64.3330   12.2190  -60.2910 O.3    99  THR99      -0.2211
    103  CG2      -62.6410   13.9080  -60.5500 C.3    99  THR99       0.0375
    104  N        -68.1920   13.6460  -62.4360 N.3   101  ARG101     -0.1245
    105  CA       -68.2940   13.4250  -63.8820 C.3   101  ARG101      0.1563
    106  C        -67.5150   14.4110  -64.7380 C.2   101  ARG101      0.2260
    107  O        -66.7460   13.9840  -65.5930 O.2   101  ARG101     -0.2867
    108  CB       -69.7640   13.3460  -64.3420 C.3   101  ARG101      0.0307
    109  CG       -70.4310   12.1280  -63.7460 C.3   101  ARG101      0.0489
    110  CD       -71.7540   11.8420  -64.4680 C.3   101  ARG101      0.2205
    111  NE       -71.5300   11.3190  -65.8190 N.pl3 101  ARG101     -0.0865
    112  CZ       -71.0920   10.0860  -66.1000 C.cat 101  ARG101      0.5346
    113  NH1      -70.7820    9.2250  -65.1240 N.pl3 101  ARG101      0.1354
    114  NH2      -70.9320    9.7170  -67.3680 N.pl3 101  ARG101      0.1354
@<TRIPOS>BOND
     1    94    92   ar
     2    94    95   ar
     3    96    95    1
     4    92    90   ar
     5    95    93   ar
     6    37    38   ar
     7    37    35   ar
     8   114   112    1
     9    38    36   ar
    10    90    89    1
    11    90    91   ar
    12    84    83    1
    13    35    32   ar
    14    93    91   ar
    15    89    86    1
    16   112   111    2
    17   112   113    1
    18    83    82    1
    19    86    87    1
    20    86    85    1
    21    82    81    1
    22   111   110    1
    23    36    34   ar
    24   107   106    2
    25    87    88    2
    26    32    34   ar
    27    32    30   ar
    28    81    80    1
    29    80    77    1
    30    34    33   ar
    31   106   105    1
    32   110   109    1
    33    28    27    2
    34    29    30    1
    35    29    26    1
    36   108   105    1
    37   108   109    1
    38    30    31   ar
    39    77    78    1
    40    77    76    1
    41   105   104    1
    42    25    26    1
    43    78    79    2
    44    33    31   ar
    45    71    70    2
    46    27    26    1
    47    75    73   ar
    48    76    70   am
    49    44    43    1
    50    43    40    1
    51    70    69    1
    52    42    41    2
    53    39    40    1
    54    57    58    1
    55    57    54    1
    56    73    74   ar
    57    73    72    1
    58    40    41    1
    59    72    69    1
    60    41    45   am
    61    69    68    1
    62    54    53    1
    63    54    55    1
    64    53    47   am
    65    45    46    1
    66    46    47    1
    67    46    49    1
    68   103   101    1
    69    47    48    2
    70   101   102    1
    71   101    98    1
    72    55    59   am
    73    55    56    2
    74    59    60    1
    75    49    50    1
    76    49    51    1
    77    98    99    1
    78    98    97    1
    79    64    65    1
    80    64    61   am
    81    99   100    2
    82    50    52    1
    83    63    60    1
    84    22    21    1
    85    22    23    1
    86    60    61    1
    87    65    66    1
    88    21    11   am
    89    66    67    2
    90    61    62    2
    91    23    24    2
    92     4     3    2
    93    11    10    1
    94    11    12    2
    95    15    17   ar
    96    15    14   ar
    97    17    19   ar
    98    10     9    1
    99    10    13    1
   100     3     9   am
   101     3     2    1
   102    13    14    1
   103    14    16   ar
   104    19    20    1
   105    19    18   ar
   106     2     5    1
   107     2     1    1
   108     7     6    2
   109     5     6    1
   110    16    18   ar
   111     6     8   am
