@<TRIPOS>MOLECULE
tmp/4yo4A00.pdb
 97 89 0 0 0
SMALL
GASTEIGER

@<TRIPOS>ATOM
      1  N         29.2700   -0.9930   13.3240 N.3    18  LEU18      -0.1231
      2  CA        28.6550    0.2270   13.8730 C.3    18  LEU18       0.1693
      3  C         27.2380    0.0490   14.3970 C.2    18  LEU18       0.2592
      4  O         26.7800    0.7950   15.2780 O.2    18  LEU18      -0.2718
      5  CB        28.6660    1.3140   12.7960 C.3    18  LEU18       0.0284
      6  CG        30.0640    1.6470   12.2870 C.3    18  LEU18       0.0019
      7  CD1       30.0440    2.5900   11.0960 C.3    18  LEU18       0.0001
      8  CD2       30.9100    2.2000   13.4340 C.3    18  LEU18       0.0001
      9  N         26.5520   -0.9420   13.8580 N.am   19  GLY19      -0.1957
     10  CA        25.1930   -1.2690   14.2570 C.3    19  GLY19       0.1869
     11  C         24.8590   -2.6880   13.8330 C.2    19  GLY19       0.2309
     12  O         25.4300   -3.2100   12.8790 O.2    19  GLY19      -0.2863
     13  N         25.7950   -3.1070   10.1110 N.3    26  VAL26      -0.1245
     14  CA        26.4670   -1.9610    9.5080 C.3    26  VAL26       0.1561
     15  C         27.9310   -2.0250    9.8810 C.2    26  VAL26       0.2260
     16  O         28.2400   -2.1810   11.0630 O.2    26  VAL26      -0.2867
     17  CB        25.8850   -0.6390   10.0230 C.3    26  VAL26       0.0252
     18  CG1       26.5540    0.5520    9.3370 C.3    26  VAL26       0.0019
     19  CG2       24.3930   -0.6170    9.7640 C.3    26  VAL26       0.0019
     20  N         29.6130    4.1340    5.9350 N.3    39  ALA39      -0.1245
     21  CA        29.0100    3.0580    6.7270 C.3    39  ALA39       0.1562
     22  C         28.2870    2.1400    5.7330 C.2    39  ALA39       0.2260
     23  O         27.3840    2.5940    5.0160 O.2    39  ALA39      -0.2867
     24  CB        28.0080    3.6420    7.6990 C.3    39  ALA39       0.0290
     25  N         25.7490   -0.7010    5.0890 N.3    41  LYS41      -0.1245
     26  CA        24.6150   -1.3740    5.6940 C.3    41  LYS41       0.1561
     27  C         24.2260   -2.5930    4.8490 C.2    41  LYS41       0.2260
     28  O         23.7690   -2.4640    3.7180 O.2    41  LYS41      -0.2867
     29  CB        23.4250   -0.4060    5.8470 C.3    41  LYS41       0.0271
     30  CG        22.1750   -1.0150    6.4790 C.3    41  LYS41       0.0035
     31  CD        21.0320    0.0050    6.5620 C.3    41  LYS41       0.0206
     32  CE        19.7890   -0.5480    7.2250 C.3    41  LYS41       0.1093
     33  NZ        18.7610    0.5320    7.3120 N.3    41  LYS41      -0.1314
     34  N         20.8870   11.4420    6.7490 N.3    76  ILE76      -0.1245
     35  CA        21.9660   10.6760    6.1450 C.3    76  ILE76       0.1561
     36  C         21.9270   10.7180    4.6050 C.2    76  ILE76       0.2260
     37  O         20.8320   10.7640    4.0210 O.2    76  ILE76      -0.2867
     38  CB        21.8510    9.2040    6.6520 C.3    76  ILE76       0.0252
     39  CG1       23.2000    8.5380    6.5970 C.3    76  ILE76       0.0019
     40  CG2       20.7250    8.4690    5.9880 C.3    76  ILE76       0.0019
     41  CD1       24.0630    9.0310    7.7100 C.3    76  ILE76       0.0001
     42  N         26.4930    4.1900    2.9530 N.3    92  LEU92      -0.1231
     43  CA        25.9050    5.4030    3.5230 C.3    92  LEU92       0.1693
     44  C         26.9150    6.3400    4.1430 C.2    92  LEU92       0.2592
     45  O         28.0140    5.9520    4.5120 O.2    92  LEU92      -0.2718
     46  CB        24.8910    4.9950    4.6290 C.3    92  LEU92       0.0284
     47  CG        23.7210    4.1020    4.1860 C.3    92  LEU92       0.0019
     48  CD1       23.0940    3.3650    5.3520 C.3    92  LEU92       0.0001
     49  CD2       22.6590    4.9450    3.5030 C.3    92  LEU92       0.0001
     50  N         26.5380    7.6050    4.2670 N.am   93  GLU93      -0.1966
     51  CA        27.3950    8.5780    4.9250 C.3    93  GLU93       0.1733
     52  C         27.7850    8.0840    6.3140 C.2    93  GLU93       0.2616
     53  O         26.9320    7.6130    7.0600 O.2    93  GLU93      -0.2715
     54  CB        26.6020    9.8970    5.0490 C.3    93  GLU93       0.0429
     55  CG        27.2880   10.9990    5.8090 C.3    93  GLU93       0.1163
     56  CD        26.5100   12.3060    5.7020 C.2    93  GLU93       0.3649
     57  OE1       25.2840   12.2560    5.4590 O.co2  93  GLU93      -0.2457
     58  OE2       27.1270   13.3750    5.8470 O.co2  93  GLU93      -0.2457
     59  N         29.0570    8.2240    6.6690 N.am   94  LEU94      -0.1963
     60  CA        29.5260    7.8570    8.0240 C.3    94  LEU94       0.1728
     61  C         29.2250    8.9630    9.0140 C.2    94  LEU94       0.2616
     62  O         29.5450   10.1190    8.7550 O.2    94  LEU94      -0.2715
     63  CB        31.0260    7.6070    8.0060 C.3    94  LEU94       0.0311
     64  CG        31.6720    7.2230    9.3330 C.3    94  LEU94       0.0022
     65  CD1       31.1250    5.8910    9.8210 C.3    94  LEU94       0.0001
     66  CD2       33.1700    7.1630    9.2130 C.3    94  LEU94       0.0001
     67  N         28.5500    8.6340   10.1120 N.am   95  VAL95      -0.1977
     68  CA        28.2700    9.6160   11.1440 C.3    95  VAL95       0.1596
     69  C         28.9980    9.0840   12.3900 C.2    95  VAL95       0.2287
     70  O         28.4660    8.2880   13.1330 O.2    95  VAL95      -0.2864
     71  CB        26.7610    9.7830   11.3500 C.3    95  VAL95       0.0276
     72  CG1       26.4960   10.9980   12.2200 C.3    95  VAL95       0.0022
     73  CG2       26.0790    9.9340    9.9900 C.3    95  VAL95       0.0022
     74  N         22.0120   10.1660   14.9610 N.3   145  MET145     -0.1245
     75  CA        23.4550   10.0150   15.1730 C.3   145  MET145      0.1570
     76  C         24.1450   11.3510   15.1560 C.2   145  MET145      0.2261
     77  O         23.7620   12.2550   14.4290 O.2   145  MET145     -0.2867
     78  CB        24.0460    9.1060   14.1320 C.3   145  MET145      0.0387
     79  CG        23.4240    7.7360   14.1380 C.3   145  MET145      0.0595
     80  SD        24.5140    6.6210   13.2750 S.3   145  MET145     -0.1393
     81  CE        25.6920    6.2600   14.5610 C.3   145  MET145      0.0692
     82  N         18.8620    8.7970   10.7970 N.3   159  ILE159     -0.1231
     83  CA        19.1920    7.5700   10.0590 C.3   159  ILE159      0.1692
     84  C         18.0210    6.5830   10.0400 C.2   159  ILE159      0.2592
     85  O         16.9410    6.8460   10.5940 O.2   159  ILE159     -0.2718
     86  CB        20.4450    6.8530   10.6360 C.3   159  ILE159      0.0266
     87  CG1       20.1890    6.2990   12.0490 C.3   159  ILE159      0.0019
     88  CG2       21.6510    7.7920   10.6260 C.3   159  ILE159      0.0020
     89  CD1       21.0220    5.0900   12.3820 C.3   159  ILE159      0.0001
     90  N         18.2420    5.4490    9.3810 N.am  160  ASP160     -0.1974
     91  CA        17.3110    4.3060    9.3540 C.3   160  ASP160      0.1709
     92  C         15.9510    4.5990    8.7150 C.2   160  ASP160      0.2293
     93  O         14.9420    4.8060    9.3990 O.2   160  ASP160     -0.2864
     94  CB        17.1300    3.6780   10.7170 C.3   160  ASP160      0.1436
     95  CG        16.5720    2.2780   10.6250 C.2   160  ASP160      0.3671
     96  OD1       16.1080    1.8720    9.5180 O.co2 160  ASP160     -0.2456
     97  OD2       16.5750    1.5990   11.6770 O.co2 160  ASP160     -0.2456
@<TRIPOS>BOND
     1    42    43    1
     2    49    47    1
     3    43    44    1
     4    43    46    1
     5    28    27    2
     6    37    36    2
     7    44    50   am
     8    44    45    2
     9    47    46    1
    10    47    48    1
    11    50    51    1
    12    36    35    1
    13    27    26    1
    14    51    54    1
    15    51    52    1
    16    23    22    2
    17    54    55    1
    18    25    26    1
    19    57    56   ar
    20    26    29    1
    21    56    55    1
    22    56    58   ar
    23    22    21    1
    24    29    30    1
    25    20    21    1
    26    40    38    1
    27    35    38    1
    28    35    34    1
    29    52    59   am
    30    52    53    2
    31    30    31    1
    32    31    32    1
    33    39    38    1
    34    39    41    1
    35    59    60    1
    36    21    24    1
    37    32    33    1
    38    63    60    1
    39    63    64    1
    40    60    61    1
    41    92    91    1
    42    92    93    2
    43    62    61    2
    44    61    67   am
    45    66    64    1
    46    64    65    1
    47    18    17    1
    48    91    90    1
    49    91    94    1
    50    90    84   am
    51    14    15    1
    52    14    17    1
    53    14    13    1
    54    96    95   ar
    55    19    17    1
    56    15    16    2
    57    73    71    1
    58    84    83    1
    59    84    85    2
    60    83    86    1
    61    83    82    1
    62    67    68    1
    63    95    94    1
    64    95    97   ar
    65    88    86    1
    66    86    87    1
    67     7     6    1
    68    68    71    1
    69    68    69    1
    70    71    72    1
    71    87    89    1
    72     6     5    1
    73     6     8    1
    74    69    70    2
    75     5     2    1
    76    12    11    2
    77    80    79    1
    78    80    81    1
    79     1     2    1
    80    11    10    1
    81     9    10    1
    82     9     3   am
    83     2     3    1
    84    78    79    1
    85    78    75    1
    86     3     4    2
    87    77    76    2
    88    74    75    1
    89    76    75    1
