@<TRIPOS>MOLECULE
tmp/4yo6D00.pdb
 159 152 0 0 0
SMALL
GASTEIGER

@<TRIPOS>ATOM
      1  N         34.6460   10.8790   31.9700 N.3    29  MET29      -0.1230
      2  CA        33.7370   10.5050   30.8730 C.3    29  MET29       0.1702
      3  C         32.9470   11.7570   30.4070 C.2    29  MET29       0.2593
      4  O         32.5770   11.8800   29.2310 O.2    29  MET29      -0.2718
      5  CB        32.7730    9.4120   31.3400 C.3    29  MET29       0.0401
      6  CG        33.4750    8.1060   31.6710 C.3    29  MET29       0.0596
      7  SD        32.3100    6.7650   31.9950 S.3    29  MET29      -0.1393
      8  CE        31.5290    7.3530   33.5370 C.3    29  MET29       0.0692
      9  N         32.7050   12.6720   31.3520 N.am   30  GLY30      -0.1942
     10  CA        32.0240   13.9270   31.1210 C.3    30  GLY30       0.2014
     11  C         32.1360   14.8160   32.3440 C.2    30  GLY30       0.2638
     12  O         32.6800   14.4090   33.3720 O.2    30  GLY30      -0.2714
     13  N         31.5980   16.0220   32.2420 N.am   31  GLU31      -0.1977
     14  CA        31.6440   17.0130   33.3100 C.3    31  GLU31       0.1602
     15  C         30.5070   18.0200   33.1300 C.2    31  GLU31       0.2287
     16  O         30.0330   18.2330   32.0070 O.2    31  GLU31      -0.2864
     17  CB        33.0460   17.6740   33.3280 C.3    31  GLU31       0.0415
     18  CG        33.1390   19.1640   33.6260 C.3    31  GLU31       0.1163
     19  CD        34.3140   19.8770   32.9850 C.2    31  GLU31       0.3649
     20  OE1       34.3380   21.1280   33.0470 O.co2  31  GLU31      -0.2457
     21  OE2       35.1960   19.2000   32.4050 O.co2  31  GLU31      -0.2457
     22  N         32.2450   13.4380   36.1900 N.3    37  VAL37      -0.1245
     23  CA        31.8380   12.0350   36.1830 C.3    37  VAL37       0.1561
     24  C         33.0200   11.2080   35.6790 C.2    37  VAL37       0.2260
     25  O         33.5420   11.4480   34.5850 O.2    37  VAL37      -0.2867
     26  CB        30.5110   11.7560   35.4260 C.3    37  VAL37       0.0252
     27  CG1       30.1090   10.2790   35.5310 C.3    37  VAL37       0.0019
     28  CG2       29.3920   12.6450   35.9660 C.3    37  VAL37       0.0019
     29  N         29.6400    4.7000   37.2710 N.3    48  ALA48      -0.1245
     30  CA        29.9040    6.1040   36.9920 C.3    48  ALA48       0.1562
     31  C         29.9530    6.8010   38.3480 C.2    48  ALA48       0.2260
     32  O         29.0060    6.6910   39.1300 O.2    48  ALA48      -0.2867
     33  CB        28.8020    6.6870   36.1200 C.3    48  ALA48       0.0290
     34  N         30.3490   10.3260   40.2440 N.3    50  LYS50      -0.1245
     35  CA        30.2510   11.7850   40.1640 C.3    50  LYS50       0.1561
     36  C         30.8810   12.3630   41.4170 C.2    50  LYS50       0.2260
     37  O         30.4110   12.0830   42.5310 O.2    50  LYS50      -0.2867
     38  CB        28.7850   12.2840   40.0340 C.3    50  LYS50       0.0271
     39  CG        28.6720   13.7740   39.6530 C.3    50  LYS50       0.0035
     40  CD        27.2370   14.3050   39.7990 C.3    50  LYS50       0.0206
     41  CE        26.4400   14.2780   38.5040 C.3    50  LYS50       0.1093
     42  NZ        24.9930   14.5820   38.7130 N.3    50  LYS50      -0.1314
     43  N         18.2790    7.8390   35.5720 N.3    79  VAL79      -0.1245
     44  CA        19.5380    7.1910   35.9730 C.3    79  VAL79       0.1561
     45  C         19.3460    6.5080   37.3290 C.2    79  VAL79       0.2260
     46  O         18.5070    6.9310   38.1140 O.2    79  VAL79      -0.2867
     47  CB        20.7800    8.1310   35.9940 C.3    79  VAL79       0.0252
     48  CG1       21.2100    8.5200   34.5900 C.3    79  VAL79       0.0019
     49  CG2       20.5670    9.3570   36.8680 C.3    79  VAL79       0.0019
     50  N         26.6350    5.7220   40.2840 N.3    95  TYR95      -0.1227
     51  CA        25.5210    5.3270   39.4300 C.3    95  TYR95       0.1736
     52  C         25.8140    4.1080   38.5910 C.2    95  TYR95       0.2595
     53  O         26.9780    3.7620   38.3340 O.2    95  TYR95      -0.2718
     54  CB        25.2010    6.4570   38.4420 C.3    95  TYR95       0.0548
     55  CG        24.8840    7.7900   39.0680 C.ar   95  TYR95      -0.0200
     56  CD1       25.8870    8.7300   39.2960 C.ar   95  TYR95      -0.0009
     57  CD2       23.5740    8.1450   39.3720 C.ar   95  TYR95      -0.0009
     58  CE1       25.6010    9.9680   39.8560 C.ar   95  TYR95       0.0417
     59  CE2       23.2720    9.3930   39.9100 C.ar   95  TYR95       0.0417
     60  CZ        24.2920   10.2940   40.1640 C.ar   95  TYR95       0.1957
     61  OH        24.0060   11.5150   40.7050 O.3    95  TYR95      -0.2866
     62  N         24.7250    3.5290   38.0660 N.am   96  VAL96      -0.1966
     63  CA        24.7870    2.4290   37.1150 C.3    96  VAL96       0.1727
     64  C         25.3610    3.0870   35.8440 C.2    96  VAL96       0.2616
     65  O         24.8800    4.1530   35.4160 O.2    96  VAL96      -0.2715
     66  CB        23.3840    1.7820   36.8720 C.3    96  VAL96       0.0290
     67  CG1       23.4200    0.7740   35.7290 C.3    96  VAL96       0.0023
     68  CG2       22.8500    1.1300   38.1390 C.3    96  VAL96       0.0023
     69  N         26.4390    2.4890   35.3120 N.am   97  TYR97      -0.1960
     70  CA        27.1320    2.9420   34.1090 C.3    97  TYR97       0.1771
     71  C         26.1840    2.9080   32.9020 C.2    97  TYR97       0.2619
     72  O         25.4350    1.9510   32.7230 O.2    97  TYR97      -0.2715
     73  CB        28.3600    2.0500   33.8610 C.3    97  TYR97       0.0574
     74  CG        29.1380    2.3480   32.5990 C.ar   97  TYR97      -0.0198
     75  CD1       29.7170    3.6020   32.3880 C.ar   97  TYR97      -0.0009
     76  CD2       29.3840    1.3500   31.6570 C.ar   97  TYR97      -0.0009
     77  CE1       30.4930    3.8590   31.2570 C.ar   97  TYR97       0.0417
     78  CE2       30.1870    1.5890   30.5420 C.ar   97  TYR97       0.0417
     79  CZ        30.7290    2.8480   30.3430 C.ar   97  TYR97       0.1957
     80  OH        31.4670    3.0940   29.2170 O.3    97  TYR97      -0.2866
     81  N         26.2350    3.9690   32.0930 N.am   98  MET98      -0.1964
     82  CA        25.4300    4.1690   30.8950 C.3    98  MET98       0.1722
     83  C         26.4220    4.1400   29.7190 C.2    98  MET98       0.2458
     84  O         26.9540    5.1870   29.3420 O.2    98  MET98      -0.2730
     85  CB        24.6520    5.5080   31.0130 C.3    98  MET98       0.0427
     86  CG        23.6290    5.4860   32.1530 C.3    98  MET98       0.0599
     87  SD        22.3220    4.2860   31.8130 S.3    98  MET98      -0.1393
     88  CE        22.0470    3.6550   33.3700 C.3    98  MET98       0.0692
     89  N         26.6970    2.9090   29.1710 N.am   99  PRO99      -0.2716
     90  CA        27.6880    2.6580   28.1220 C.3    99  PRO99       0.1536
     91  C         27.6590    3.5730   26.8920 C.2    99  PRO99       0.2599
     92  O         28.7000    3.7830   26.2690 O.2    99  PRO99      -0.2715
     93  CB        27.4550    1.1890   27.7490 C.3    99  PRO99       0.0310
     94  CG        26.7710    0.5990   28.9000 C.3    99  PRO99       0.0237
     95  CD        25.9430    1.6730   29.4980 C.3    99  PRO99       0.0939
     96  N         26.4820    4.0710   26.5200 N.am  100  ASN100     -0.1959
     97  CA        26.3470    4.9630   25.3850 C.3   100  ASN100      0.1819
     98  C         26.4180    6.4520   25.7210 C.2   100  ASN100      0.2622
     99  O         26.2020    7.2810   24.8510 O.2   100  ASN100     -0.2715
    100  CB        25.1780    4.5600   24.5110 C.3   100  ASN100      0.1195
    101  CG        25.5180    3.3100   23.7590 C.2   100  ASN100      0.2630
    102  OD1       26.5080    3.2540   23.0260 O.2   100  ASN100     -0.2716
    103  ND2       24.7910    2.2500   24.0100 N.am  100  ASN100     -0.0877
    104  N         26.7950    6.7950   26.9640 N.am  101  GLY101     -0.1940
    105  CA        27.0120    8.1850   27.3760 C.3   101  GLY101      0.2014
    106  C         25.7980    9.0810   27.2160 C.2   101  GLY101      0.2639
    107  O         24.6710    8.6500   27.4650 O.2   101  GLY101     -0.2714
    108  N         26.0310   10.3490   26.8310 N.am  102  SER102     -0.1949
    109  CA        24.9650   11.3090   26.6750 C.3   102  SER102      0.1924
    110  C         24.4280   11.3940   25.2630 C.2   102  SER102      0.2314
    111  O         25.1240   11.0590   24.3020 O.2   102  SER102     -0.2863
    112  CB        25.4070   12.6800   27.1760 C.3   102  SER102      0.2116
    113  OG        26.3020   13.3060   26.2690 O.3   102  SER102     -0.2180
    114  N         26.5690   13.7900   23.0840 N.3   105  ASP105     -0.1225
    115  CA        27.7300   13.1190   22.5140 C.3   105  ASP105      0.1805
    116  C         27.3830   12.1620   21.3850 C.2   105  ASP105      0.2597
    117  O         28.1590   12.0280   20.4430 O.2   105  ASP105     -0.2718
    118  CB        28.5320   12.4130   23.6210 C.3   105  ASP105      0.1424
    119  CG        29.1010   13.3460   24.7020 C.2   105  ASP105      0.3668
    120  OD1       29.1570   14.5870   24.4620 O.co2 105  ASP105     -0.2456
    121  OD2       29.6150   12.8260   25.7270 O.co2 105  ASP105     -0.2456
    122  N         26.2100   11.5210   21.4450 N.am  106  ARG106     -0.1979
    123  CA        25.7860   10.6190   20.3920 C.3   106  ARG106      0.1597
    124  C         25.2900   11.3660   19.1960 C.2   106  ARG106      0.2287
    125  O         25.5310   10.9220   18.0630 O.2   106  ARG106     -0.2864
    126  CB        24.8090    9.5380   20.8850 C.3   106  ARG106      0.0334
    127  CG        25.3950    8.6370   21.9780 C.3   106  ARG106      0.0492
    128  CD        26.5070    7.6660   21.5140 C.3   106  ARG106      0.2205
    129  NE        27.8170    8.3160   21.3010 N.pl3 106  ARG106     -0.0865
    130  CZ        28.6420    8.7090   22.2730 C.cat 106  ARG106      0.5346
    131  NH1       28.3080    8.5400   23.5440 N.pl3 106  ARG106      0.1354
    132  NH2       29.8020    9.2860   21.9800 N.pl3 106  ARG106      0.1354
    133  N         22.8190   16.7880   27.1730 N.3   148  ALA148     -0.1245
    134  CA        23.9520   16.3560   28.0140 C.3   148  ALA148      0.1562
    135  C         23.4440   15.6410   29.2870 C.2   148  ALA148      0.2260
    136  O         24.1770   14.8400   29.8530 O.2   148  ALA148     -0.2867
    137  CB        24.8120   17.5470   28.3940 C.3   148  ALA148      0.0290
    138  N         21.0360   10.4250   29.3620 N.3   151  LEU151     -0.1245
    139  CA        22.0180    9.3540   29.2050 C.3   151  LEU151      0.1561
    140  C         21.4380    8.1680   28.4950 C.2   151  LEU151      0.2260
    141  O         20.2210    8.0450   28.4160 O.2   151  LEU151     -0.2867
    142  CB        22.6880    8.9880   30.5390 C.3   151  LEU151      0.0270
    143  CG        23.3260   10.1500   31.2550 C.3   151  LEU151      0.0019
    144  CD1       23.9230    9.6920   32.4870 C.3   151  LEU151      0.0001
    145  CD2       24.4180   10.8140   30.4070 C.3   151  LEU151      0.0001
    146  N         19.1580   12.4670   33.9330 N.3   161  SER161     -0.1202
    147  CA        20.1280   12.5870   35.0280 C.3   161  SER161      0.2020
    148  C         20.1610   14.0140   35.5800 C.2   161  SER161      0.2618
    149  O         19.4950   14.8850   35.0310 O.2   161  SER161     -0.2717
    150  CB        21.5210   12.1960   34.5340 C.3   161  SER161      0.2103
    151  OG        22.0110   13.1060   33.5630 O.3   161  SER161     -0.2182
    152  N         20.9850   14.2530   36.6190 N.am  162  ASP162     -0.1973
    153  CA        21.2390   15.5340   37.2790 C.3   162  ASP162      0.1709
    154  C         20.0040   16.1460   37.9130 C.2   162  ASP162      0.2293
    155  O         19.3380   16.9820   37.3090 O.2   162  ASP162     -0.2864
    156  CB        22.0030   16.5120   36.3590 C.3   162  ASP162      0.1436
    157  CG        23.4480   16.1150   36.1180 C.2   162  ASP162      0.3671
    158  OD1       24.3440   16.8290   36.6040 O.co2 162  ASP162     -0.2456
    159  OD2       23.6820   15.0930   35.4340 O.co2 162  ASP162     -0.2456
@<TRIPOS>BOND
     1   125   124    2
     2   124   123    1
     3   123   126    1
     4   123   122    1
     5   117   116    2
     6   126   127    1
     7   129   128    1
     8   129   130    2
     9   116   122   am
    10   116   115    1
    11   128   127    1
    12   132   130    1
    13   130   131    1
    14   115   114    1
    15   115   118    1
    16   102   101    2
    17   118   119    1
    18   101   103   am
    19   101   100    1
    20   111   110    2
    21   120   119   ar
    22   100    97    1
    23   119   121   ar
    24    99    98    2
    25   110   109    1
    26    97    98    1
    27    97    96    1
    28    98   104   am
    29   113   112    1
    30    92    91    2
    31    96    91   am
    32   109   108    1
    33   109   112    1
    34   108   106   am
    35    91    90    1
    36   104   105    1
    37   133   134    1
    38   106   105    1
    39   106   107    2
    40    93    90    1
    41    93    94    1
    42   134   137    1
    43   134   135    1
    44    90    89    1
    45   141   140    2
    46   140   139    1
    47    94    95    1
    48    89    95    1
    49    89    83   am
    50   139   138    1
    51   139   142    1
    52    80    79    1
    53     4     3    2
    54   135   136    2
    55    84    83    2
    56    83    82    1
    57    79    78   ar
    58    79    77   ar
    59     3     2    1
    60     3     9   am
    61   145   143    1
    62   142   143    1
    63    78    76   ar
    64     2     5    1
    65     2     1    1
    66    82    85    1
    67    82    81    1
    68    85    86    1
    69    10     9    1
    70    10    11    1
    71   143   144    1
    72    77    75   ar
    73     5     6    1
    74    76    74   ar
    75     6     7    1
    76    87    86    1
    77    87    88    1
    78     7     8    1
    79    16    15    2
    80    81    71   am
    81    13    11   am
    82    13    14    1
    83    11    12    2
    84    75    74   ar
    85    21    19   ar
    86    74    73    1
    87    72    71    2
    88    71    70    1
    89    19    20   ar
    90    19    18    1
    91    15    14    1
    92    14    17    1
    93    17    18    1
    94   151   150    1
    95    73    70    1
    96   146   147    1
    97    70    69    1
    98   150   147    1
    99    25    24    2
   100    48    47    1
   101   147   148    1
   102   149   148    2
   103    69    64   am
   104    65    64    2
   105    26    27    1
   106    26    28    1
   107    26    23    1
   108   159   157   ar
   109    43    44    1
   110   148   152   am
   111    24    23    1
   112    67    66    1
   113    64    63    1
   114    44    47    1
   115    44    45    1
   116    47    49    1
   117   157   156    1
   118   157   158   ar
   119    33    30    1
   120    23    22    1
   121   156   153    1
   122   152   153    1
   123    66    63    1
   124    66    68    1
   125    30    29    1
   126    30    31    1
   127    63    62    1
   128   153   154    1
   129   155   154    2
   130    45    46    2
   131    62    52   am
   132    53    52    2
   133    31    32    2
   134    54    55    1
   135    54    51    1
   136    41    42    1
   137    41    40    1
   138    52    51    1
   139    55    56   ar
   140    55    57   ar
   141    56    58   ar
   142    57    59   ar
   143    51    50    1
   144    39    40    1
   145    39    38    1
   146    58    60   ar
   147    59    60   ar
   148    38    35    1
   149    35    34    1
   150    35    36    1
   151    60    61    1
   152    36    37    2
