@<TRIPOS>MOLECULE
tmp/4yo6B01.pdb
 81 78 0 0 0
SMALL
GASTEIGER

@<TRIPOS>ATOM
      1  N         22.4970   -8.2310   37.0290 N.3   112  TRP112     -0.1227
      2  CA        22.4860   -8.8790   38.3250 C.3   112  TRP112      0.1737
      3  C         21.8860   -7.9490   39.3910 C.2   112  TRP112      0.2595
      4  O         21.1040   -8.4070   40.2190 O.2   112  TRP112     -0.2718
      5  CB        23.8850   -9.3270   38.7280 C.3   112  TRP112      0.0564
      6  CG        23.9060  -10.0440   40.0450 C.ar  112  TRP112      0.0003
      7  CD1       24.4930   -9.6210   41.2030 C.ar  112  TRP112      0.0946
      8  CD2       23.2130  -11.2580   40.3650 C.ar  112  TRP112      0.0152
      9  NE1       24.2470  -10.5210   42.2150 N.ar  112  TRP112     -0.2442
     10  CE2       23.4880  -11.5530   41.7210 C.ar  112  TRP112      0.0810
     11  CE3       22.4120  -12.1420   39.6290 C.ar  112  TRP112      0.0012
     12  CZ2       22.9400  -12.6640   42.3680 C.ar  112  TRP112      0.0191
     13  CZ3       21.9110  -13.2700   40.2600 C.ar  112  TRP112      0.0001
     14  CH2       22.2020  -13.5360   41.6050 C.ar  112  TRP112      0.0015
     15  N         22.2140   -6.6460   39.3340 N.am  113  HIS113     -0.1975
     16  CA        21.6720   -5.6300   40.2420 C.3   113  HIS113      0.1656
     17  C         20.1180   -5.6180   40.1880 C.2   113  HIS113      0.2291
     18  O         19.4800   -5.6960   41.2370 O.2   113  HIS113     -0.2864
     19  CB        22.2710   -4.2420   39.9090 C.3   113  HIS113      0.0771
     20  CG        21.6200   -3.1180   40.6500 C.ar  113  HIS113      0.0820
     21  ND1       21.7380   -2.9890   42.0250 N.ar  113  HIS113     -0.2267
     22  CD2       20.7950   -2.1540   40.1930 C.ar  113  HIS113      0.1154
     23  CE1       20.9970   -1.9440   42.3600 C.ar  113  HIS113      0.1986
     24  NE2       20.4350   -1.3870   41.2910 N.ar  113  HIS113     -0.2212
     25  N         18.6430   -8.9700   41.6590 N.3   116  CYS116     -0.1235
     26  CA        18.6480   -8.9560   43.1260 C.3   116  CYS116      0.1677
     27  C         17.4460   -8.2060   43.6700 C.2   116  CYS116      0.2270
     28  O         16.8350   -8.6680   44.6240 O.2   116  CYS116     -0.2867
     29  CB        19.9530   -8.3860   43.6760 C.3   116  CYS116      0.0956
     30  SG        21.3610   -9.5120   43.5270 S.3   116  CYS116     -0.0801
     31  N         27.7130   -7.8860   35.5000 N.3   238  ASP238     -0.1239
     32  CA        27.7880   -7.3880   36.8720 C.3   238  ASP238      0.1674
     33  C         27.5130   -8.4140   37.9760 C.2   238  ASP238      0.2266
     34  O         27.2520   -8.0210   39.1090 O.2   238  ASP238     -0.2867
     35  CB        26.8630   -6.1620   37.0150 C.3   238  ASP238      0.1410
     36  CG        25.3800   -6.4900   36.9400 C.2   238  ASP238      0.3668
     37  OD1       25.0050   -7.3840   36.1230 O.co2 238  ASP238     -0.2456
     38  OD2       24.5880   -5.8560   37.7030 O.co2 238  ASP238     -0.2456
     39  N         28.6230  -10.8870   40.7550 N.3   240  ASP240     -0.1239
     40  CA        29.7820  -11.2940   41.5520 C.3   240  ASP240      0.1674
     41  C         29.4790  -12.6230   42.2140 C.2   240  ASP240      0.2266
     42  O         28.3320  -12.8900   42.5600 O.2   240  ASP240     -0.2867
     43  CB        30.1700  -10.2300   42.5910 C.3   240  ASP240      0.1410
     44  CG        29.0820   -9.8650   43.5740 C.2   240  ASP240      0.3668
     45  OD1       28.0950   -9.2030   43.1580 O.co2 240  ASP240     -0.2456
     46  OD2       29.2110  -10.2300   44.7550 O.co2 240  ASP240     -0.2456
     47  N         27.4940  -12.6350   45.9660 N.3   243  SER243     -0.1217
     48  CA        26.0410  -12.4260   45.9800 C.3   243  SER243      0.1889
     49  C         25.3030  -13.5500   45.2510 C.2   243  SER243      0.2288
     50  O         24.2380  -13.9430   45.6990 O.2   243  SER243     -0.2866
     51  CB        25.6650  -11.0490   45.4370 C.3   243  SER243      0.2089
     52  OG        26.1760  -10.8980   44.1260 O.3   243  SER243     -0.2183
     53  N         20.1190   -9.5040   53.2670 N.3   274  GLU274     -0.1231
     54  CA        21.5140   -9.5960   53.7300 C.3   274  GLU274      0.1699
     55  C         22.4710   -9.6450   52.5550 C.2   274  GLU274      0.2592
     56  O         23.5990   -9.1580   52.6630 O.2   274  GLU274     -0.2718
     57  CB        21.7200  -10.8440   54.6150 C.3   274  GLU274      0.0402
     58  CG        21.2110  -10.6870   56.0460 C.3   274  GLU274      0.1161
     59  CD        21.1620  -11.9570   56.8810 C.2   274  GLU274      0.3649
     60  OE1       22.0650  -12.8130   56.7370 O.co2 274  GLU274     -0.2457
     61  OE2       20.2230  -12.0840   57.6990 O.co2 274  GLU274     -0.2457
     62  N         22.0190  -10.2570   51.4370 N.am  275  MET275     -0.1965
     63  CA        22.7410  -10.4370   50.1730 C.3   275  MET275      0.1736
     64  C         23.1960   -9.0870   49.5700 C.2   275  MET275      0.2617
     65  O         24.2720   -9.0150   48.9730 O.2   275  MET275     -0.2715
     66  CB        21.8400  -11.2430   49.2150 C.3   275  MET275      0.0427
     67  CG        22.4160  -11.4970   47.8410 C.3   275  MET275      0.0599
     68  SD        21.2100  -12.2810   46.7390 S.3   275  MET275     -0.1393
     69  CE        19.9100  -11.0010   46.6520 C.3   275  MET275      0.0692
     70  N         22.3940   -8.0280   49.7550 N.am  276  THR276     -0.1937
     71  CA        22.6860   -6.6780   49.2580 C.3   276  THR276      0.2028
     72  C         23.1380   -5.7020   50.3670 C.2   276  THR276      0.2642
     73  O         23.4900   -4.5540   50.0570 O.2   276  THR276     -0.2714
     74  CB        21.5200   -6.1200   48.4390 C.3   276  THR276      0.1808
     75  OG1       20.3820   -6.0110   49.2930 O.3   276  THR276     -0.2208
     76  CG2       21.2050   -6.9650   47.1890 C.3   276  THR276      0.0379
     77  N         23.1180   -6.2290   51.5820 N.am  277  ALA277     -0.1977
     78  CA        23.5600   -5.4140   52.7220 C.3   277  ALA277      0.1597
     79  C         22.9000   -4.0630   52.8780 C.2   277  ALA277      0.2287
     80  O         23.4320   -3.1040   53.3630 O.2   277  ALA277     -0.2864
     81  CB        25.0860   -5.2520   52.7920 C.3   277  ALA277      0.0319
@<TRIPOS>BOND
     1    31    32    1
     2    37    36   ar
     3    32    35    1
     4    32    33    1
     5    36    35    1
     6    36    38   ar
     7     1     2    1
     8    33    34    2
     9     2     5    1
    10     2     3    1
    11     5     6    1
    12    15     3   am
    13    15    16    1
    14     3     4    2
    15    11    13   ar
    16    11     8   ar
    17    19    16    1
    18    19    20    1
    19     6     8   ar
    20     6     7   ar
    21    17    16    1
    22    17    18    2
    23    22    20   ar
    24    22    24   ar
    25    13    14   ar
    26     8    10   ar
    27    20    21   ar
    28    39    40    1
    29     7     9   ar
    30    24    23   ar
    31    40    41    1
    32    40    43    1
    33    14    12   ar
    34    25    26    1
    35    10     9   ar
    36    10    12   ar
    37    21    23   ar
    38    41    42    2
    39    43    44    1
    40    26    27    1
    41    26    29    1
    42    45    44   ar
    43    30    29    1
    44    44    46   ar
    45    27    28    2
    46    52    51    1
    47    49    50    2
    48    49    48    1
    49    51    48    1
    50    47    48    1
    51    69    68    1
    52    68    67    1
    53    76    74    1
    54    67    66    1
    55    74    71    1
    56    74    75    1
    57    65    64    2
    58    66    63    1
    59    71    70    1
    60    71    72    1
    61    64    70   am
    62    64    63    1
    63    73    72    2
    64    63    62    1
    65    72    77   am
    66    62    55   am
    67    77    78    1
    68    55    56    2
    69    55    54    1
    70    78    81    1
    71    78    79    1
    72    79    80    2
    73    53    54    1
    74    54    57    1
    75    57    58    1
    76    58    59    1
    77    60    59   ar
    78    59    61   ar
