@<TRIPOS>MOLECULE
tmp/4yo7A00.pdb
 117 109 0 0 0
SMALL
GASTEIGER

@<TRIPOS>ATOM
      1  N         58.8280   10.3320   38.5400 N.3    17  ASP17      -0.1239
      2  CA        59.0400   11.4220   39.4800 C.3    17  ASP17       0.1674
      3  C         59.1570   10.8760   40.9150 C.2    17  ASP17       0.2266
      4  O         59.1810    9.6530   41.1110 O.2    17  ASP17      -0.2867
      5  CB        57.9450   12.4920   39.3250 C.3    17  ASP17       0.1410
      6  CG        56.5270   11.9870   39.6030 C.2    17  ASP17       0.3668
      7  OD1       56.3360   11.1520   40.5010 O.co2  17  ASP17      -0.2456
      8  OD2       55.5710   12.4890   38.9400 O.co2  17  ASP17      -0.2456
      9  N         57.3580   10.5920   43.7050 N.3    19  PHE19      -0.1227
     10  CA        56.3440    9.6720   44.1960 C.3    19  PHE19       0.1736
     11  C         56.1700    8.4620   43.2790 C.2    19  PHE19       0.2595
     12  O         56.0970    7.3090   43.7510 O.2    19  PHE19      -0.2718
     13  CB        55.0180   10.4070   44.3830 C.3    19  PHE19       0.0547
     14  CG        53.8760    9.5060   44.7530 C.ar   19  PHE19      -0.0202
     15  CD1       53.6440    9.1780   46.0850 C.ar   19  PHE19      -0.0042
     16  CD2       53.0600    8.9560   43.7870 C.ar   19  PHE19      -0.0042
     17  CE1       52.5960    8.3400   46.4380 C.ar   19  PHE19      -0.0003
     18  CE2       52.0060    8.1030   44.1490 C.ar   19  PHE19      -0.0003
     19  CZ        51.7900    7.8100   45.4750 C.ar   19  PHE19      -0.0000
     20  N         56.1290    8.6870   41.9650 N.am   20  LEU20      -0.1980
     21  CA        55.8010    7.6030   41.0560 C.3    20  LEU20       0.1596
     22  C         56.9200    6.5670   40.9930 C.2    20  LEU20       0.2287
     23  O         56.6840    5.4100   40.6530 O.2    20  LEU20      -0.2864
     24  CB        55.4630    8.1380   39.6680 C.3    20  LEU20       0.0297
     25  CG        54.0790    8.7750   39.5550 C.3    20  LEU20       0.0022
     26  CD1       53.9330    9.3710   38.1790 C.3    20  LEU20       0.0001
     27  CD2       52.9060    7.7920   39.8650 C.3    20  LEU20       0.0001
     28  N         46.6060    5.5980   39.4630 N.3    90  ASN90      -0.1225
     29  CA        47.0150    6.8040   40.1670 C.3    90  ASN90       0.1785
     30  C         46.5130    8.1480   39.6320 C.2    90  ASN90       0.2597
     31  O         46.1950    9.0150   40.4240 O.2    90  ASN90      -0.2718
     32  CB        48.5430    6.8160   40.2690 C.3    90  ASN90       0.1169
     33  CG        49.0920    8.1490   40.7210 C.2    90  ASN90       0.2627
     34  OD1       49.4450    8.9790   39.8900 O.2    90  ASN90      -0.2716
     35  ND2       49.1960    8.3520   42.0260 N.am   90  ASN90      -0.0877
     36  N         46.4410    8.3280   38.3180 N.am   91  ARG91      -0.1979
     37  CA        45.8590    9.5450   37.7390 C.3    91  ARG91       0.1597
     38  C         44.5450    9.2400   37.0390 C.2    91  ARG91       0.2287
     39  O         44.4970    8.4470   36.1100 O.2    91  ARG91      -0.2864
     40  CB        46.8230   10.1980   36.7560 C.3    91  ARG91       0.0334
     41  CG        48.1210   10.6150   37.3510 C.3    91  ARG91       0.0492
     42  CD        49.0290   11.1150   36.2700 C.3    91  ARG91       0.2205
     43  NE        50.2950   11.6490   36.7530 N.pl3  91  ARG91      -0.0865
     44  CZ        51.1930   12.2370   35.9620 C.cat  91  ARG91       0.5346
     45  NH1       50.9750   12.3450   34.6480 N.pl3  91  ARG91       0.1354
     46  NH2       52.2990   12.7300   36.4790 N.pl3  91  ARG91       0.1354
     47  N         46.1040   18.3610   35.3560 N.3   135  HIS135     -0.1241
     48  CA        46.0200   17.0410   35.9750 C.3   135  HIS135      0.1621
     49  C         44.8070   17.0580   36.8970 C.2   135  HIS135      0.2264
     50  O         44.5470   18.0590   37.5640 O.2   135  HIS135     -0.2867
     51  CB        47.2640   16.7060   36.7830 C.3   135  HIS135      0.0745
     52  CG        48.4680   16.3730   35.9590 C.ar  135  HIS135      0.0817
     53  ND1       49.5230   15.6460   36.4670 N.ar  135  HIS135     -0.2268
     54  CD2       48.8030   16.6790   34.6870 C.ar  135  HIS135      0.1154
     55  CE1       50.4500   15.5050   35.5410 C.ar  135  HIS135      0.1986
     56  NE2       50.0360   16.1190   34.4430 N.ar  135  HIS135     -0.2212
     57  N         44.6210   15.6720   39.6800 N.3   137  ALA137     -0.1245
     58  CA        45.1010   15.8300   41.0580 C.3   137  ALA137      0.1562
     59  C         45.3330   17.3090   41.3740 C.2   137  ALA137      0.2260
     60  O         45.0870   17.7460   42.4870 O.2   137  ALA137     -0.2867
     61  CB        46.3730   15.0410   41.2870 C.3   137  ALA137      0.0290
     62  N         42.8620   18.7180   44.1030 N.3   140  ARG140     -0.1245
     63  CA        43.5000   19.0560   45.3810 C.3   140  ARG140      0.1563
     64  C         43.2580   20.5240   45.6990 C.2   140  ARG140      0.2260
     65  O         42.8560   20.8810   46.8120 O.2   140  ARG140     -0.2867
     66  CB        44.9940   18.7290   45.3630 C.3   140  ARG140      0.0307
     67  CG        45.2300   17.2620   45.5000 C.3   140  ARG140      0.0489
     68  CD        46.6750   16.8870   45.2620 C.3   140  ARG140      0.2205
     69  NE        46.8500   15.4470   45.3520 N.pl3 140  ARG140     -0.0865
     70  CZ        47.9460   14.8090   44.9580 C.cat 140  ARG140      0.5346
     71  NH1       48.9680   15.4850   44.4490 N.pl3 140  ARG140      0.1354
     72  NH2       48.0150   13.4990   45.0590 N.pl3 140  ARG140      0.1354
     73  N         54.5300   20.3740   40.0640 N.3   164  PHE164     -0.1241
     74  CA        54.8660   19.2240   40.9180 C.3   164  PHE164      0.1605
     75  C         56.3600   19.0730   41.1680 C.2   164  PHE164      0.2264
     76  O         56.8070   17.9950   41.6140 O.2   164  PHE164     -0.2867
     77  CB        54.3120   17.9220   40.3350 C.3   164  PHE164      0.0534
     78  CG        52.8310   17.7020   40.5560 C.ar  164  PHE164     -0.0203
     79  CD1       52.2070   18.0250   41.7620 C.ar  164  PHE164     -0.0042
     80  CD2       52.0740   17.1220   39.5620 C.ar  164  PHE164     -0.0042
     81  CE1       50.8780   17.7660   41.9620 C.ar  164  PHE164     -0.0003
     82  CE2       50.7370   16.8780   39.7610 C.ar  164  PHE164     -0.0003
     83  CZ        50.1370   17.2150   40.9660 C.ar  164  PHE164     -0.0000
     84  N         51.6600   18.9750   46.0750 N.3   188  ASN188     -0.1240
     85  CA        52.4560   17.8140   46.4590 C.3   188  ASN188      0.1653
     86  C         53.6570   18.1740   47.3020 C.2   188  ASN188      0.2266
     87  O         53.9960   19.3450   47.4870 O.2   188  ASN188     -0.2867
     88  CB        52.8980   16.9870   45.2230 C.3   188  ASN188      0.1155
     89  CG        54.1140   17.5480   44.4800 C.2   188  ASN188      0.2627
     90  OD1       54.4730   18.7200   44.5850 O.2   188  ASN188     -0.2716
     91  ND2       54.7380   16.6750   43.6740 N.am  188  ASN188     -0.0877
     92  N         56.8990   17.5790   46.8230 N.3   190  GLU190     -0.1245
     93  CA        58.0820   18.1300   46.1680 C.3   190  GLU190      0.1567
     94  C         58.0230   19.6560   46.1280 C.2   190  GLU190      0.2260
     95  O         59.0090   20.3230   46.4320 O.2   190  GLU190     -0.2867
     96  CB        58.2490   17.5710   44.7570 C.3   190  GLU190      0.0388
     97  CG        58.8210   16.1760   44.7370 C.3   190  GLU190      0.1160
     98  CD        60.2330   16.1110   45.3670 C.2   190  GLU190      0.3649
     99  OE1       61.1660   16.6860   44.7820 O.co2 190  GLU190     -0.2457
    100  OE2       60.4060   15.4980   46.4490 O.co2 190  GLU190     -0.2457
    101  N         51.5200   13.6220   49.8050 N.3   213  ASP213     -0.1239
    102  CA        52.1190   12.3540   49.3460 C.3   213  ASP213      0.1674
    103  C         52.7000   11.5890   50.5420 C.2   213  ASP213      0.2266
    104  O         52.6280   10.3750   50.5910 O.2   213  ASP213     -0.2867
    105  CB        53.2360   12.5260   48.3100 C.3   213  ASP213      0.1410
    106  CG        52.7270   12.8020   46.8870 C.2   213  ASP213      0.3668
    107  OD1       53.5370   13.3240   46.0980 O.co2 213  ASP213     -0.2456
    108  OD2       51.5450   12.5150   46.5610 O.co2 213  ASP213     -0.2456
    109  N         49.8310    9.2620   50.5880 N.3   232  GLN232     -0.1245
    110  CA        49.3110    8.5750   49.4190 C.3   232  GLN232      0.1566
    111  C         50.1030    7.2750   49.2950 C.2   232  GLN232      0.2260
    112  O         51.3290    7.2680   49.3160 O.2   232  GLN232     -0.2867
    113  CB        49.4400    9.4200   48.1410 C.3   232  GLN232      0.0367
    114  CG        48.5930    8.8480   47.0230 C.3   232  GLN232      0.0905
    115  CD        48.6730    9.5180   45.6830 C.2   232  GLN232      0.2608
    116  OE1       47.9850    9.0890   44.7640 O.2   232  GLN232     -0.2717
    117  NE2       49.5120   10.5250   45.5330 N.am  232  GLN232     -0.0878
@<TRIPOS>BOND
     1    56    54   ar
     2    56    55   ar
     3    45    44    1
     4    54    52   ar
     5    47    48    1
     6    55    53   ar
     7    52    53   ar
     8    52    51    1
     9    44    46    1
    10    44    43    2
    11    48    51    1
    12    48    49    1
    13    39    38    2
    14    42    43    1
    15    42    41    1
    16    40    41    1
    17    40    37    1
    18    49    50    2
    19    38    37    1
    20    37    36    1
    21    26    25    1
    22    36    30   am
    23     1     2    1
    24     8     6   ar
    25     5     2    1
    26     5     6    1
    27    28    29    1
    28     2     3    1
    29    25    24    1
    30    25    27    1
    31    80    82   ar
    32    80    78   ar
    33     6     7   ar
    34    30    29    1
    35    30    31    2
    36    24    21    1
    37    57    58    1
    38    82    83   ar
    39    34    33    2
    40    73    74    1
    41    29    32    1
    42    32    33    1
    43    77    78    1
    44    77    74    1
    45    78    79   ar
    46    23    22    2
    47    33    35   am
    48     3     4    2
    49    74    75    1
    50    83    81   ar
    51    22    21    1
    52    21    20    1
    53    58    61    1
    54    58    59    1
    55    75    76    2
    56    59    60    2
    57    79    81   ar
    58    20    11   am
    59    11    12    2
    60    11    10    1
    61    91    89   am
    62     9    10    1
    63    16    18   ar
    64    16    14   ar
    65    62    63    1
    66    18    19   ar
    67    10    13    1
    68    13    14    1
    69    71    70    1
    70    89    90    2
    71    89    88    1
    72    97    96    1
    73    97    98    1
    74    14    15   ar
    75    96    93    1
    76   116   115    2
    77    99    98   ar
    78    70    72    1
    79    70    69    2
    80    88    85    1
    81    68    69    1
    82    68    67    1
    83    66    63    1
    84    66    67    1
    85    98   100   ar
    86    63    64    1
    87    19    17   ar
    88   117   115   am
    89   115   114    1
    90    64    65    2
    91    84    85    1
    92    15    17   ar
    93   107   106   ar
    94    94    93    1
    95    94    95    2
    96    93    92    1
    97    85    86    1
    98   108   106   ar
    99   106   105    1
   100   114   113    1
   101    86    87    2
   102   113   110    1
   103   105   102    1
   104   111   112    2
   105   111   110    1
   106   102   101    1
   107   102   103    1
   108   110   109    1
   109   103   104    2
