@<TRIPOS>MOLECULE
tmp/4yo8B00.pdb
 138 131 0 0 0
SMALL
GASTEIGER

@<TRIPOS>ATOM
      1  N         18.0240   12.3520  -11.1410 N.3    21  ALA21      -0.1231
      2  CA        17.6550   12.6810  -12.5340 C.3    21  ALA21       0.1694
      3  C         18.7310   12.2570  -13.5080 C.2    21  ALA21       0.2591
      4  O         18.4420   11.6650  -14.5570 O.2    21  ALA21      -0.2718
      5  CB        17.3850   14.1650  -12.6820 C.3    21  ALA21       0.0304
      6  N         19.9710   12.5770  -13.1410 N.am   22  MET22      -0.1979
      7  CA        21.1280   12.3750  -13.9850 C.3    22  MET22       0.1605
      8  C         22.0440   11.3470  -13.3440 C.2    22  MET22       0.2287
      9  O         22.0430   11.1740  -12.1120 O.2    22  MET22      -0.2864
     10  CB        21.9000   13.6970  -14.1290 C.3    22  MET22       0.0413
     11  CG        21.1870   14.7720  -14.9350 C.3    22  MET22       0.0598
     12  SD        21.9760   16.4050  -14.8730 S.3    22  MET22      -0.1393
     13  CE        21.5250   16.9380  -13.2130 C.3    22  MET22       0.0692
     14  N         16.3420   13.3590  -17.5690 N.3    64  ILE64      -0.1245
     15  CA        15.8040   14.6620  -17.2200 C.3    64  ILE64       0.1561
     16  C         14.3030   14.8430  -17.5460 C.2    64  ILE64       0.2260
     17  O         13.7900   14.3820  -18.5570 O.2    64  ILE64      -0.2867
     18  CB        16.6840   15.7890  -17.8770 C.3    64  ILE64       0.0252
     19  CG1       18.0510   15.8040  -17.2130 C.3    64  ILE64       0.0019
     20  CG2       16.0470   17.1510  -17.7150 C.3    64  ILE64       0.0019
     21  CD1       19.1150   16.6710  -17.8590 C.3    64  ILE64       0.0001
     22  N         20.2690   17.9310   -7.3920 N.3    90  VAL90      -0.1231
     23  CA        20.4950   19.3690   -7.2640 C.3    90  VAL90       0.1692
     24  C         19.3220   20.2280   -7.7470 C.2    90  VAL90       0.2592
     25  O         18.4030   19.7650   -8.4350 O.2    90  VAL90      -0.2718
     26  CB        21.8070   19.7840   -7.9740 C.3    90  VAL90       0.0266
     27  CG1       22.9350   18.8400   -7.5730 C.3    90  VAL90       0.0020
     28  CG2       21.6700   19.8190   -9.4910 C.3    90  VAL90       0.0020
     29  N         19.3700   21.5040   -7.4030 N.am   91  ALA91      -0.1966
     30  CA        18.3020   22.4080   -7.7740 C.3    91  ALA91       0.1728
     31  C         18.8090   23.8170   -7.8270 C.2    91  ALA91       0.2616
     32  O         19.9100   24.1070   -7.3710 O.2    91  ALA91      -0.2715
     33  CB        17.1720   22.3250   -6.7730 C.3    91  ALA91       0.0334
     34  N         17.9780   24.6860   -8.3750 N.am   92  GLY92      -0.1955
     35  CA        18.2770   26.0920   -8.4290 C.3    92  GLY92       0.1869
     36  C         17.6020   26.8080   -7.2910 C.2    92  GLY92       0.2309
     37  O         16.4370   26.5600   -7.0030 O.2    92  GLY92      -0.2863
     38  N         11.6430   23.0310  -18.2700 N.3   164  GLN164     -0.1231
     39  CA        12.6120   24.0100  -18.7510 C.3   164  GLN164      0.1698
     40  C         13.6820   24.2030  -17.6740 C.2   164  GLN164      0.2592
     41  O         13.3910   24.1570  -16.4780 O.2   164  GLN164     -0.2718
     42  CB        11.9350   25.3660  -19.0420 C.3   164  GLN164      0.0381
     43  CG        10.6110   25.2910  -19.7960 C.3   164  GLN164      0.0905
     44  CD         9.4540   24.7030  -18.9740 C.2   164  GLN164      0.2608
     45  OE1        9.2610   25.0420  -17.8110 O.2   164  GLN164     -0.2717
     46  NE2        8.6680   23.8280  -19.6010 N.am  164  GLN164     -0.0878
     47  N         14.9120   24.4500  -18.0970 N.am  165  PHE165     -0.1962
     48  CA        15.9440   24.8960  -17.1780 C.3   165  PHE165      0.1771
     49  C         15.7240   26.3710  -16.9440 C.2   165  PHE165      0.2619
     50  O         15.6550   27.1350  -17.9000 O.2   165  PHE165     -0.2715
     51  CB        17.3140   24.6690  -17.7700 C.3   165  PHE165      0.0574
     52  CG        18.4370   24.8900  -16.7970 C.ar  165  PHE165     -0.0200
     53  CD1       18.8560   23.8660  -15.9500 C.ar  165  PHE165     -0.0042
     54  CD2       19.1060   26.0960  -16.7610 C.ar  165  PHE165     -0.0042
     55  CE1       19.8970   24.0630  -15.0640 C.ar  165  PHE165     -0.0003
     56  CE2       20.1520   26.2900  -15.8820 C.ar  165  PHE165     -0.0003
     57  CZ        20.5370   25.2810  -15.0270 C.ar  165  PHE165     -0.0000
     58  N         15.5920   26.7780  -15.6830 N.am  166  VAL166     -0.1977
     59  CA        15.3340   28.1810  -15.3710 C.3   166  VAL166      0.1596
     60  C         16.6460   28.9250  -15.2110 C.2   166  VAL166      0.2287
     61  O         17.5060   28.5040  -14.4450 O.2   166  VAL166     -0.2864
     62  CB        14.5090   28.3150  -14.0910 C.3   166  VAL166      0.0276
     63  CG1       14.2960   29.7830  -13.7520 C.3   166  VAL166      0.0022
     64  CG2       13.1800   27.5680  -14.2600 C.3   166  VAL166      0.0022
     65  N         13.9400   25.2470   -7.6940 N.3   184  VAL184     -0.1231
     66  CA        13.3960   24.8650   -8.9850 C.3   184  VAL184      0.1692
     67  C         14.2070   23.7100   -9.5650 C.2   184  VAL184      0.2592
     68  O         15.4240   23.6670   -9.4260 O.2   184  VAL184     -0.2718
     69  CB        13.3520   26.0990   -9.9380 C.3   184  VAL184      0.0266
     70  CG1       14.7500   26.5710  -10.3130 C.3   184  VAL184      0.0020
     71  CG2       12.5240   25.8030  -11.1780 C.3   184  VAL184      0.0020
     72  N         13.5250   22.7490  -10.1750 N.am  185  GLU185     -0.1966
     73  CA        14.1930   21.6390  -10.8500 C.3   185  GLU185      0.1733
     74  C         13.2110   21.0000  -11.8580 C.2   185  GLU185      0.2616
     75  O         12.2000   21.6110  -12.1760 O.2   185  GLU185     -0.2715
     76  CB        14.7670   20.6460   -9.8290 C.3   185  GLU185      0.0429
     77  CG        14.0110   20.5590   -8.5070 C.3   185  GLU185      0.1163
     78  CD        12.9110   19.5060   -8.4980 C.2   185  GLU185      0.3649
     79  OE1       12.1460   19.4340   -9.4910 O.co2 185  GLU185     -0.2457
     80  OE2       12.8070   18.7690   -7.4750 O.co2 185  GLU185     -0.2457
     81  N         13.4910   19.8110  -12.3780 N.am  186  MET186     -0.1963
     82  CA        12.6900   19.2860  -13.4720 C.3   186  MET186      0.1736
     83  C         12.0380   17.9310  -13.2070 C.2   186  MET186      0.2616
     84  O         11.3480   17.4130  -14.0960 O.2   186  MET186     -0.2715
     85  CB        13.5300   19.2520  -14.7550 C.3   186  MET186      0.0427
     86  CG        14.2440   20.5800  -15.0080 C.3   186  MET186      0.0599
     87  SD        15.2440   20.7560  -16.4930 S.3   186  MET186     -0.1393
     88  CE        14.1530   20.2560  -17.8120 C.3   186  MET186      0.0692
     89  N         12.2000   17.3740  -11.9970 N.am  187  GLU187     -0.1977
     90  CA        11.6250   16.0220  -11.6860 C.3   187  GLU187      0.1602
     91  C         10.8010   15.8930  -10.3970 C.2   187  GLU187      0.2287
     92  O          9.9640   14.9660  -10.2730 O.2   187  GLU187     -0.2864
     93  CB        12.7190   14.9810  -11.6360 C.3   187  GLU187      0.0415
     94  CG        13.4820   14.8390  -12.9290 C.3   187  GLU187      0.1163
     95  CD        14.5380   15.9170  -13.1040 C.2   187  GLU187      0.3649
     96  OE1       15.0060   16.4780  -12.1040 O.co2 187  GLU187     -0.2457
     97  OE2       14.9230   16.1800  -14.2420 O.co2 187  GLU187     -0.2457
     98  N         17.1720   18.1350   -2.2260 N.3   206  ARG206     -0.1245
     99  CA        17.9440   18.8390   -3.2460 C.3   206  ARG206      0.1563
    100  C         19.0300   19.6800   -2.5740 C.2   206  ARG206      0.2260
    101  O         18.8170   20.2310   -1.4920 O.2   206  ARG206     -0.2867
    102  CB        17.0390   19.7400   -4.0970 C.3   206  ARG206      0.0307
    103  CG        16.0040   19.0040   -4.9590 C.3   206  ARG206      0.0489
    104  CD        16.6140   18.0950   -6.0320 C.3   206  ARG206      0.2205
    105  NE        15.6000   17.7540   -7.0360 N.pl3 206  ARG206     -0.0865
    106  CZ        15.8370   17.4880   -8.3250 C.cat 206  ARG206      0.5346
    107  NH1       14.8180   17.1940   -9.1390 N.pl3 206  ARG206      0.1354
    108  NH2       17.0780   17.4730   -8.8110 N.pl3 206  ARG206      0.1354
    109  N         22.6090   24.0930   -6.6980 N.3   209  SER209     -0.1202
    110  CA        23.6720   24.0870   -7.7170 C.3   209  SER209      0.2020
    111  C         23.8530   25.4410   -8.3940 C.2   209  SER209      0.2618
    112  O         24.8780   25.6530   -9.0430 O.2   209  SER209     -0.2717
    113  CB        23.3840   23.0500   -8.8180 C.3   209  SER209      0.2103
    114  OG        22.0730   23.1990   -9.3680 O.3   209  SER209     -0.2182
    115  N         22.8660   26.3290   -8.2640 N.am  210  ASP210     -0.1973
    116  CA        22.8700   27.6060   -8.9610 C.3   210  ASP210      0.1709
    117  C         21.7500   28.4640   -8.4080 C.2   210  ASP210      0.2293
    118  O         21.0340   28.0330   -7.5140 O.2   210  ASP210     -0.2864
    119  CB        22.6770   27.4090  -10.4770 C.3   210  ASP210      0.1436
    120  CG        21.3510   26.7140  -10.8090 C.2   210  ASP210      0.3671
    121  OD1       20.3250   27.4240  -11.0060 O.co2 210  ASP210     -0.2456
    122  OD2       21.3540   25.4620  -10.8190 O.co2 210  ASP210     -0.2456
    123  N         19.4530   30.0770  -10.6110 N.3   212  ALA212     -0.1245
    124  CA        18.3480   30.0800  -11.5700 C.3   212  ALA212      0.1562
    125  C         18.2110   31.4220  -12.2880 C.2   212  ALA212      0.2260
    126  O         17.1100   31.8220  -12.6930 O.2   212  ALA212     -0.2867
    127  CB        17.0350   29.7020  -10.8710 C.3   212  ALA212      0.0290
    128  N         25.6420   25.8320  -12.4630 N.3   220  PHE220     -0.1241
    129  CA        25.2630   24.4190  -12.4970 C.3   220  PHE220      0.1605
    130  C         26.4670   23.5360  -12.8890 C.2   220  PHE220      0.2264
    131  O         26.7840   22.5740  -12.2020 O.2   220  PHE220     -0.2867
    132  CB        24.0760   24.1510  -13.4320 C.3   220  PHE220      0.0534
    133  CG        23.8150   22.6800  -13.6520 C.ar  220  PHE220     -0.0203
    134  CD1       24.4480   21.9980  -14.6750 C.ar  220  PHE220     -0.0042
    135  CD2       22.9570   21.9830  -12.8190 C.ar  220  PHE220     -0.0042
    136  CE1       24.2390   20.6430  -14.8630 C.ar  220  PHE220     -0.0003
    137  CE2       22.7300   20.6320  -12.9970 C.ar  220  PHE220     -0.0003
    138  CZ        23.3800   19.9560  -14.0150 C.ar  220  PHE220     -0.0000
@<TRIPOS>BOND
     1    43    42    1
     2    43    44    1
     3    46    44   am
     4    42    39    1
     5    44    45    2
     6    39    38    1
     7    39    40    1
     8    17    16    2
     9    47    40   am
    10    47    48    1
    11    50    49    2
    12    18    20    1
    13    18    15    1
    14    18    19    1
    15    21    19    1
    16    88    87    1
    17    51    48    1
    18    51    52    1
    19    40    41    2
    20    14    15    1
    21    16    15    1
    22    48    49    1
    23    49    58   am
    24    52    54   ar
    25    52    53   ar
    26    54    56   ar
    27    87    86    1
    28    53    55   ar
    29    56    57   ar
    30    58    59    1
    31    59    60    1
    32    59    62    1
    33    60    61    2
    34    55    57   ar
    35    86    85    1
    36    11    12    1
    37    11    10    1
    38    12    13    1
    39   136   134   ar
    40   136   138   ar
    41    85    82    1
    42   134   133   ar
    43     4     3    2
    44    64    62    1
    45    97    95   ar
    46    10     7    1
    47    84    83    2
    48    62    63    1
    49   138   137   ar
    50     7     8    1
    51     7     6    1
    52   133   132    1
    53   133   135   ar
    54     3     6   am
    55     3     2    1
    56    82    83    1
    57    82    81    1
    58   132   129    1
    59     8     9    2
    60    83    89   am
    61    95    94    1
    62    95    96   ar
    63   137   135   ar
    64    94    93    1
    65   130   129    1
    66   130   131    2
    67   126   125    2
    68     5     2    1
    69     2     1    1
    70   129   128    1
    71    81    74   am
    72   125   124    1
    73    75    74    2
    74    89    90    1
    75    74    73    1
    76    90    93    1
    77    90    91    1
    78   124   127    1
    79   124   123    1
    80    71    69    1
    81   121   120   ar
    82    73    72    1
    83    73    76    1
    84   122   120   ar
    85   120   119    1
    86   119   116    1
    87    91    92    2
    88    70    69    1
    89    72    67   am
    90    69    66    1
    91    76    77    1
    92    67    68    2
    93    67    66    1
    94    79    78   ar
    95    28    26    1
    96   114   113    1
    97   107   106    1
    98   112   111    2
    99    66    65    1
   100   116   117    1
   101   116   115    1
   102   113   110    1
   103   108   106    1
   104    77    78    1
   105    78    80   ar
   106    25    24    2
   107    35    34    1
   108    35    36    1
   109   117   118    2
   110   111   115   am
   111   111   110    1
   112    34    31   am
   113   106   105    2
   114    26    27    1
   115    26    23    1
   116    31    30    1
   117    31    32    2
   118    30    29    1
   119    30    33    1
   120    24    29   am
   121    24    23    1
   122   110   109    1
   123    22    23    1
   124    36    37    2
   125   105   104    1
   126   104   103    1
   127   103   102    1
   128   102    99    1
   129    99   100    1
   130    99    98    1
   131   100   101    2
