@<TRIPOS>MOLECULE
tmp/4yoeA00.pdb
 145 137 0 0 0
SMALL
GASTEIGER

@<TRIPOS>ATOM
      1  N          7.9030   11.8100  -16.4670 N.3     5  GLN5       -0.1245
      2  CA         9.2160   11.4520  -15.9430 C.3     5  GLN5        0.1566
      3  C          9.7840   10.1470  -16.5250 C.2     5  GLN5        0.2260
      4  O         11.0050   10.0060  -16.6760 O.2     5  GLN5       -0.2867
      5  CB         9.2260   11.4470  -14.4030 C.3     5  GLN5        0.0367
      6  CG        10.6510   11.6290  -13.8370 C.3     5  GLN5        0.0905
      7  CD        11.2070   12.9950  -14.1900 C.2     5  GLN5        0.2608
      8  OE1       10.5470   14.0010  -14.0360 O.2     5  GLN5       -0.2717
      9  NE2       12.4150   13.0640  -14.7230 N.am    5  GLN5       -0.0878
     10  N         11.5710   10.6360  -20.2270 N.3     8  LYS8       -0.1245
     11  CA        12.5510   11.7180  -20.2680 C.3     8  LYS8        0.1561
     12  C         13.9690   11.2310  -20.0370 C.2     8  LYS8        0.2260
     13  O         14.2140   10.3470  -19.1980 O.2     8  LYS8       -0.2867
     14  CB        12.1310   12.7240  -19.1560 C.3     8  LYS8        0.0271
     15  CG        12.7900   14.0740  -19.1440 C.3     8  LYS8        0.0035
     16  CD        11.9510   15.0270  -18.3020 C.3     8  LYS8        0.0206
     17  CE        12.5150   16.4160  -18.3880 C.3     8  LYS8        0.1093
     18  NZ        11.7590   17.3650  -17.5410 N.3     8  LYS8       -0.1314
     19  N         18.0280   12.5660  -19.2300 N.3    10  PHE10      -0.1241
     20  CA        18.9730   13.5750  -18.8200 C.3    10  PHE10       0.1605
     21  C         20.1050   13.3790  -19.8560 C.2    10  PHE10       0.2264
     22  O         20.5120   12.2330  -20.1000 O.2    10  PHE10      -0.2867
     23  CB        19.5090   13.2350  -17.4220 C.3    10  PHE10       0.0534
     24  CG        20.8280   13.8870  -17.0620 C.ar   10  PHE10      -0.0203
     25  CD1       20.8700   15.1990  -16.5700 C.ar   10  PHE10      -0.0042
     26  CD2       22.0280   13.1830  -17.1770 C.ar   10  PHE10      -0.0042
     27  CE1       22.0840   15.7830  -16.1820 C.ar   10  PHE10      -0.0003
     28  CE2       23.2490   13.7720  -16.7860 C.ar   10  PHE10      -0.0003
     29  CZ        23.2690   15.0770  -16.3240 C.ar   10  PHE10      -0.0000
     30  N         15.5000   20.7950  -23.8110 N.3    37  VAL37      -0.1245
     31  CA        16.0930   21.9710  -23.1760 C.3    37  VAL37       0.1561
     32  C         17.5580   21.7560  -22.8210 C.2    37  VAL37       0.2260
     33  O         17.9360   20.6610  -22.4340 O.2    37  VAL37      -0.2867
     34  CB        15.2530   22.3830  -21.9140 C.3    37  VAL37       0.0252
     35  CG1       15.3530   21.3440  -20.7880 C.3    37  VAL37       0.0019
     36  CG2       15.6520   23.7610  -21.4030 C.3    37  VAL37       0.0019
     37  N         20.2910   23.2650  -20.1310 N.3    39  MET39      -0.1245
     38  CA        20.3160   24.0720  -18.9300 C.3    39  MET39       0.1570
     39  C         21.4370   25.1010  -19.0330 C.2    39  MET39       0.2261
     40  O         22.5310   24.7890  -19.5070 O.2    39  MET39      -0.2867
     41  CB        20.4150   23.2020  -17.6550 C.3    39  MET39       0.0387
     42  CG        19.2110   22.2060  -17.5010 C.3    39  MET39       0.0595
     43  SD        17.5410   22.8080  -17.8830 S.3    39  MET39      -0.1393
     44  CE        17.3700   24.0720  -16.6410 C.3    39  MET39       0.0692
     45  N         25.2690   24.9720  -19.0300 N.3    48  ARG48      -0.1245
     46  CA        25.7030   24.2440  -17.8400 C.3    48  ARG48       0.1563
     47  C         26.2460   22.8560  -18.2210 C.2    48  ARG48       0.2260
     48  O         26.7230   22.1210  -17.3690 O.2    48  ARG48      -0.2867
     49  CB        24.5870   24.2080  -16.8070 C.3    48  ARG48       0.0307
     50  CG        24.6630   25.5140  -15.9780 C.3    48  ARG48       0.0489
     51  CD        23.3850   25.8450  -15.2810 C.3    48  ARG48       0.2205
     52  NE        22.9890   24.8460  -14.2850 N.pl3  48  ARG48      -0.0865
     53  CZ        21.7460   24.7490  -13.8320 C.cat  48  ARG48       0.5346
     54  NH1       21.4380   23.8460  -12.9160 N.pl3  48  ARG48       0.1354
     55  NH2       20.7960   25.5530  -14.3020 N.pl3  48  ARG48       0.1354
     56  N         24.5590   20.2970  -19.6730 N.3    50  PHE50      -0.1241
     57  CA        23.5860   19.2100  -19.6240 C.3    50  PHE50       0.1605
     58  C         22.2130   19.7180  -20.0270 C.2    50  PHE50       0.2264
     59  O         21.9620   20.9140  -20.0030 O.2    50  PHE50      -0.2867
     60  CB        23.5520   18.5080  -18.2590 C.3    50  PHE50       0.0534
     61  CG        22.9240   19.2980  -17.1310 C.ar   50  PHE50      -0.0203
     62  CD1       21.5580   19.2080  -16.8720 C.ar   50  PHE50      -0.0042
     63  CD2       23.7070   20.1120  -16.3100 C.ar   50  PHE50      -0.0042
     64  CE1       20.9910   19.8880  -15.7830 C.ar   50  PHE50      -0.0003
     65  CE2       23.1300   20.8390  -15.2480 C.ar   50  PHE50      -0.0003
     66  CZ        21.7860   20.7110  -14.9840 C.ar   50  PHE50      -0.0000
     67  N         17.8240   18.1230  -21.1010 N.3    52  PHE52      -0.1241
     68  CA        16.8540   17.0350  -21.0100 C.3    52  PHE52       0.1605
     69  C         16.0940   16.9400  -22.3040 C.2    52  PHE52       0.2264
     70  O         15.7510   17.9760  -22.8800 O.2    52  PHE52      -0.2867
     71  CB        15.8300   17.3230  -19.8870 C.3    52  PHE52       0.0534
     72  CG        16.4400   17.3580  -18.5000 C.ar   52  PHE52      -0.0203
     73  CD1       16.6030   16.1860  -17.7640 C.ar   52  PHE52      -0.0042
     74  CD2       16.8810   18.5600  -17.9470 C.ar   52  PHE52      -0.0042
     75  CE1       17.1750   16.2170  -16.4880 C.ar   52  PHE52      -0.0003
     76  CE2       17.4680   18.5850  -16.6730 C.ar   52  PHE52      -0.0003
     77  CZ        17.6090   17.4180  -15.9590 C.ar   52  PHE52      -0.0000
     78  N         20.9290    9.4100  -19.8180 N.3    80  LYS80      -0.1231
     79  CA        20.5130    8.5470  -18.7000 C.3    80  LYS80       0.1693
     80  C         19.0580    8.8390  -18.4520 C.2    80  LYS80       0.2592
     81  O         18.6370    9.9620  -18.6780 O.2    80  LYS80      -0.2718
     82  CB        21.3020    8.8730  -17.4100 C.3    80  LYS80       0.0285
     83  CG        22.8150    8.9910  -17.5900 C.3    80  LYS80       0.0035
     84  CD        23.5970    8.7380  -16.3360 C.3    80  LYS80       0.0206
     85  CE        25.0780    8.9410  -16.5480 C.3    80  LYS80       0.1093
     86  NZ        25.4350   10.3890  -16.6380 N.3    80  LYS80      -0.1314
     87  N         18.2970    7.8710  -17.9160 N.am   81  ARG81      -0.1966
     88  CA        16.8890    8.1370  -17.6120 C.3    81  ARG81       0.1729
     89  C         16.8190    9.2330  -16.5420 C.2    81  ARG81       0.2616
     90  O         17.6380    9.2320  -15.6040 O.2    81  ARG81      -0.2715
     91  CB        16.1470    6.8180  -17.2590 C.3    81  ARG81       0.0348
     92  CG        15.9280    6.0420  -18.5800 C.3    81  ARG81       0.0492
     93  CD        15.3810    4.6500  -18.4480 C.3    81  ARG81       0.2205
     94  NE        15.7660    3.8550  -19.6290 N.pl3  81  ARG81      -0.0865
     95  CZ        14.9610    3.5780  -20.6410 C.cat  81  ARG81       0.5346
     96  NH1       15.4000    2.8490  -21.6650 N.pl3  81  ARG81       0.1354
     97  NH2       13.6850    3.9440  -20.6010 N.pl3  81  ARG81       0.1354
     98  N         16.0110   10.2850  -16.8120 N.am   82  ALA82      -0.1963
     99  CA        15.9380   11.4660  -15.9410 C.3    82  ALA82       0.1728
    100  C         15.2350   11.1710  -14.6220 C.2    82  ALA82       0.2616
    101  O         14.1600   10.5850  -14.6130 O.2    82  ALA82      -0.2715
    102  CB        15.2390   12.6150  -16.6610 C.3    82  ALA82       0.0334
    103  N         15.8800   11.5270  -13.5140 N.am   83  VAL83      -0.1977
    104  CA        15.3440   11.3200  -12.1640 C.3    83  VAL83       0.1596
    105  C         14.5370   12.5870  -11.8550 C.2    83  VAL83       0.2287
    106  O         14.9950   13.6800  -12.1840 O.2    83  VAL83      -0.2864
    107  CB        16.5230   11.0960  -11.1640 C.3    83  VAL83       0.0276
    108  CG1       16.0360   11.0060   -9.7260 C.3    83  VAL83       0.0022
    109  CG2       17.3150    9.8360  -11.5270 C.3    83  VAL83       0.0022
    110  N         12.7310   15.7800   -9.7980 N.3    85  ARG85      -0.1245
    111  CA        13.3100   16.7540   -8.8470 C.3    85  ARG85       0.1563
    112  C         13.2010   16.2330   -7.4080 C.2    85  ARG85       0.2260
    113  O         14.1550   16.3620   -6.6450 O.2    85  ARG85      -0.2867
    114  CB        12.6230   18.1220   -8.9800 C.3    85  ARG85       0.0307
    115  CG        12.8550   18.7810  -10.3510 C.3    85  ARG85       0.0489
    116  CD        11.7290   19.7370  -10.6850 C.3    85  ARG85       0.2205
    117  NE        11.8830   20.3850  -11.9900 N.pl3  85  ARG85      -0.0865
    118  CZ        11.5620   19.8310  -13.1530 C.cat  85  ARG85       0.5346
    119  NH1       11.1130   18.5810  -13.2020 N.pl3  85  ARG85       0.1354
    120  NH2       11.6960   20.5160  -14.2780 N.pl3  85  ARG85       0.1354
    121  N         15.6770   13.2460   -6.8540 N.3    88  SER88      -0.1202
    122  CA        17.0810   13.6470   -6.9370 C.3    88  SER88       0.2020
    123  C         17.6330   14.1290   -5.5660 C.2    88  SER88       0.2618
    124  O         18.8500   14.3180   -5.4220 O.2    88  SER88      -0.2717
    125  CB        17.2820   14.7010   -8.0130 C.3    88  SER88       0.2103
    126  OG        16.9580   14.1940   -9.3000 O.3    88  SER88      -0.2182
    127  N         16.7370   14.2800   -4.5630 N.am   89  GLN89      -0.1979
    128  CA        17.0750   14.6710   -3.1900 C.3    89  GLN89       0.1601
    129  C         17.1860   13.4390   -2.2960 C.2    89  GLN89       0.2287
    130  O         16.6590   13.3710   -1.1800 O.2    89  GLN89      -0.2864
    131  CB        16.1130   15.7530   -2.6390 C.3    89  GLN89       0.0394
    132  CG        16.2050   17.1150   -3.3620 C.3    89  GLN89       0.0908
    133  CD        17.6140   17.6370   -3.6320 C.2    89  GLN89       0.2608
    134  OE1       18.5790   17.3550   -2.9170 O.2    89  GLN89      -0.2717
    135  NE2       17.7620   18.4170   -4.6910 N.am   89  GLN89      -0.0878
    136  N         21.6810    9.4810   -8.6050 N.3    94  HIS94      -0.1241
    137  CA        22.2900    9.4690   -9.9530 C.3    94  HIS94       0.1621
    138  C         23.4780    8.5160  -10.1780 C.2    94  HIS94       0.2264
    139  O         24.0770    8.5310  -11.2580 O.2    94  HIS94      -0.2867
    140  CB        22.6080   10.8980  -10.4270 C.3    94  HIS94       0.0745
    141  CG        21.5050   11.8690  -10.1450 C.ar   94  HIS94       0.0817
    142  ND1       21.6970   12.9400   -9.2960 N.ar   94  HIS94      -0.2268
    143  CD2       20.2150   11.8570  -10.5510 C.ar   94  HIS94       0.1154
    144  CE1       20.5230   13.5390   -9.2060 C.ar   94  HIS94       0.1986
    145  NE2       19.6090   12.9450   -9.9740 N.ar   94  HIS94      -0.2212
@<TRIPOS>BOND
     1    30    31    1
     2    31    32    1
     3    31    34    1
     4    70    69    2
     5    32    33    2
     6    69    68    1
     7    34    36    1
     8    34    35    1
     9    96    95    1
    10    67    68    1
    11    68    71    1
    12    95    97    1
    13    95    94    2
    14    11    10    1
    15    11    12    1
    16    11    14    1
    17    37    38    1
    18    22    21    2
    19    12    13    2
    20    58    59    2
    21    58    57    1
    22    71    72    1
    23    21    20    1
    24    78    79    1
    25    56    57    1
    26    94    93    1
    27    57    60    1
    28    40    39    2
    29    19    20    1
    30    14    15    1
    31    15    16    1
    32    39    38    1
    33    45    46    1
    34    38    41    1
    35    20    23    1
    36    79    80    1
    37    79    82    1
    38    81    80    2
    39    92    93    1
    40    92    91    1
    41    72    74   ar
    42    72    73   ar
    43    80    87   am
    44    17    16    1
    45    17    18    1
    46    60    61    1
    47    47    46    1
    48    47    48    2
    49    74    76   ar
    50    87    88    1
    51    43    42    1
    52    43    44    1
    53    46    49    1
    54    73    75   ar
    55    41    42    1
    56    88    91    1
    57    88    89    1
    58    83    82    1
    59    83    84    1
    60    23    24    1
    61    26    24   ar
    62    26    28   ar
    63    61    62   ar
    64    61    63   ar
    65    24    25   ar
    66    62    64   ar
    67    98    89   am
    68    98    99    1
    69    49    50    1
    70    28    29   ar
    71     4     3    2
    72    76    77   ar
    73   102    99    1
    74    86    85    1
    75    25    27   ar
    76    85    84    1
    77    89    90    2
    78     3     2    1
    79    75    77   ar
    80     1     2    1
    81    29    27   ar
    82    63    65   ar
    83    50    51    1
    84     2     5    1
    85    99   100    1
    86    64    66   ar
    87    51    52    1
    88    65    66   ar
    89     9     7   am
    90   100   101    2
    91   100   103   am
    92     5     6    1
    93    55    53    1
    94    52    53    2
    95   120   118    1
    96     7     8    2
    97     7     6    1
    98    53    54    1
    99   103   104    1
   100   119   118    1
   101   118   117    2
   102   106   105    2
   103   104   105    1
   104   104   107    1
   105   117   116    1
   106   109   107    1
   107   139   138    2
   108   107   108    1
   109   116   115    1
   110   143   141   ar
   111   143   145   ar
   112   140   141    1
   113   140   137    1
   114   115   114    1
   115   138   137    1
   116   141   142   ar
   117   145   144   ar
   118   137   136    1
   119   110   111    1
   120   126   125    1
   121   142   144   ar
   122   114   111    1
   123   111   112    1
   124   125   122    1
   125   112   113    2
   126   122   121    1
   127   122   123    1
   128   123   124    2
   129   123   127   am
   130   135   133   am
   131   127   128    1
   132   133   132    1
   133   133   134    2
   134   132   131    1
   135   128   131    1
   136   128   129    1
   137   129   130    2
