@<TRIPOS>MOLECULE
tmp/4yogA00.pdb
 186 181 0 0 0
SMALL
GASTEIGER

@<TRIPOS>ATOM
      1  N          5.3910  -31.8690  -16.4750 N.3    24  SER24      -0.1202
      2  CA         6.6220  -32.2430  -17.1660 C.3    24  SER24       0.2020
      3  C          7.1710  -31.0630  -17.9570 C.2    24  SER24       0.2618
      4  O          8.0790  -31.2120  -18.7710 O.2    24  SER24      -0.2717
      5  CB         6.3900  -33.4400  -18.0900 C.3    24  SER24       0.2103
      6  OG         5.4340  -33.1450  -19.0900 O.3    24  SER24      -0.2182
      7  N          6.6150  -29.8830  -17.7170 N.am   25  MET25      -0.1979
      8  CA         7.0970  -28.6830  -18.3810 C.3    25  MET25       0.1605
      9  C          8.0410  -27.9310  -17.4720 C.2    25  MET25       0.2287
     10  O          7.8150  -27.8090  -16.2640 O.2    25  MET25      -0.2864
     11  CB         5.9420  -27.7660  -18.7940 C.3    25  MET25       0.0413
     12  CG         5.4960  -27.8860  -20.2570 C.3    25  MET25       0.0598
     13  SD         6.8240  -27.8830  -21.4950 S.3    25  MET25      -0.1393
     14  CE         7.9020  -26.5290  -20.9960 C.3    25  MET25       0.0692
     15  N          2.2190  -20.5330  -20.5860 N.3    41  HIS41      -0.1241
     16  CA         2.1460  -21.8090  -21.3060 C.3    41  HIS41       0.1621
     17  C          2.9040  -22.9350  -20.5890 C.2    41  HIS41       0.2264
     18  O          2.8650  -24.0780  -21.0250 O.2    41  HIS41      -0.2867
     19  CB         2.5970  -21.6670  -22.7770 C.3    41  HIS41       0.0745
     20  CG         4.0580  -21.3690  -23.0060 C.ar   41  HIS41       0.0817
     21  ND1        5.0620  -22.2770  -22.7540 N.ar   41  HIS41      -0.2268
     22  CD2        4.6570  -20.3010  -23.5900 C.ar   41  HIS41       0.1154
     23  CE1        6.2280  -21.7540  -23.1040 C.ar   41  HIS41       0.1986
     24  NE2        6.0090  -20.5570  -23.6160 N.ar   41  HIS41      -0.2212
     25  N          0.3740  -25.7130  -19.7480 N.3    44  CYS44      -0.1221
     26  CA        -0.3560  -26.4130  -20.8030 C.3    44  CYS44       0.1794
     27  C          0.3230  -27.7130  -21.2310 C.2    44  CYS44       0.2443
     28  O          1.4670  -27.6970  -21.6790 O.2    44  CYS44      -0.2733
     29  CB        -0.5350  -25.5030  -22.0190 C.3    44  CYS44       0.0970
     30  SG        -1.5980  -26.2300  -23.2880 S.3    44  CYS44      -0.0800
     31  N         -0.3830  -28.8500  -21.0890 N.am   45  PRO45      -0.2718
     32  CA         0.1190  -30.1540  -21.5480 C.3    45  PRO45       0.1535
     33  C          0.2560  -30.1620  -23.0520 C.2    45  PRO45       0.2598
     34  O         -0.4860  -29.4420  -23.7160 O.2    45  PRO45      -0.2715
     35  CB        -0.9660  -31.1410  -21.1050 C.3    45  PRO45       0.0310
     36  CG        -1.7660  -30.3970  -20.0770 C.3    45  PRO45       0.0237
     37  CD        -1.7220  -28.9620  -20.4960 C.3    45  PRO45       0.0939
     38  N          1.1730  -30.9620  -23.5810 N.am   46  ALA46      -0.1978
     39  CA         1.4350  -30.9680  -25.0150 C.3    46  ALA46       0.1597
     40  C          0.1790  -31.2370  -25.8590 C.2    46  ALA46       0.2287
     41  O          0.0560  -30.7130  -26.9650 O.2    46  ALA46      -0.2864
     42  CB         2.5080  -31.9820  -25.3350 C.3    46  ALA46       0.0319
     43  N         -1.9320  -28.0100  -26.5960 N.3    49  LEU49      -0.1245
     44  CA        -1.1760  -26.8710  -27.1240 C.3    49  LEU49       0.1561
     45  C         -1.8930  -26.0900  -28.2220 C.2    49  LEU49       0.2260
     46  O         -1.6980  -24.8810  -28.3580 O.2    49  LEU49      -0.2867
     47  CB         0.1780  -27.3420  -27.6590 C.3    49  LEU49       0.0270
     48  CG         1.2410  -27.6730  -26.6180 C.3    49  LEU49       0.0019
     49  CD1        2.4330  -28.3390  -27.2840 C.3    49  LEU49       0.0001
     50  CD2        1.6630  -26.4100  -25.8980 C.3    49  LEU49       0.0001
     51  N         -5.4590  -24.2730  -25.8650 N.3    52  PRO52      -0.2116
     52  CA        -5.4630  -24.3260  -24.4030 C.3    52  PRO52       0.1372
     53  C         -6.5700  -23.4660  -23.8010 C.2    52  PRO52       0.2244
     54  O         -6.9250  -22.4070  -24.3250 O.2    52  PRO52      -0.2868
     55  CB        -4.0730  -23.7950  -24.0300 C.3    52  PRO52       0.0268
     56  CG        -3.7030  -22.8890  -25.1470 C.3    52  PRO52       0.0207
     57  CD        -4.3530  -23.4490  -26.3900 C.3    52  PRO52       0.0892
     58  N         -6.6140  -21.6310  -20.7130 N.3    54  TYR54      -0.1241
     59  CA        -5.6800  -21.2430  -19.6590 C.3    54  TYR54       0.1605
     60  C         -6.4010  -20.9690  -18.3390 C.2    54  TYR54       0.2264
     61  O         -5.8340  -21.1490  -17.2570 O.2    54  TYR54      -0.2867
     62  CB        -4.8660  -20.0210  -20.0910 C.3    54  TYR54       0.0534
     63  CG        -3.7550  -20.3420  -21.0700 C.ar   54  TYR54      -0.0201
     64  CD1       -2.6800  -21.1290  -20.6840 C.ar   54  TYR54      -0.0009
     65  CD2       -3.7830  -19.8540  -22.3770 C.ar   54  TYR54      -0.0009
     66  CE1       -1.6560  -21.4220  -21.5680 C.ar   54  TYR54       0.0417
     67  CE2       -2.7590  -20.1540  -23.2860 C.ar   54  TYR54       0.0417
     68  CZ        -1.6970  -20.9350  -22.8640 C.ar   54  TYR54       0.1957
     69  OH        -0.6610  -21.2480  -23.7150 O.3    54  TYR54      -0.2866
     70  N         17.1600  -18.6160  -29.4480 N.3   143  PHE143     -0.1227
     71  CA        16.4970  -19.3160  -28.3390 C.3   143  PHE143      0.1736
     72  C         16.2120  -20.7990  -28.6160 C.2   143  PHE143      0.2595
     73  O         16.0550  -21.1960  -29.7710 O.2   143  PHE143     -0.2718
     74  CB        15.1490  -18.6630  -28.0060 C.3   143  PHE143      0.0547
     75  CG        15.2100  -17.1950  -27.6740 C.ar  143  PHE143     -0.0202
     76  CD1       15.4690  -16.7730  -26.3830 C.ar  143  PHE143     -0.0042
     77  CD2       14.9160  -16.2420  -28.6400 C.ar  143  PHE143     -0.0042
     78  CE1       15.4820  -15.4250  -26.0650 C.ar  143  PHE143     -0.0003
     79  CE2       14.9280  -14.8950  -28.3310 C.ar  143  PHE143     -0.0003
     80  CZ        15.2080  -14.4880  -27.0330 C.ar  143  PHE143     -0.0000
     81  N         16.1020  -21.5910  -27.5420 N.am  144  LEU144     -0.1966
     82  CA        15.4920  -22.9330  -27.5810 C.3   144  LEU144      0.1728
     83  C         14.1750  -22.9350  -26.7950 C.2   144  LEU144      0.2616
     84  O         13.8540  -21.9460  -26.1430 O.2   144  LEU144     -0.2715
     85  CB        16.4390  -23.9810  -27.0090 C.3   144  LEU144      0.0311
     86  CG        17.8190  -24.0500  -27.6620 C.3   144  LEU144      0.0022
     87  CD1       18.5250  -25.3220  -27.2220 C.3   144  LEU144      0.0001
     88  CD2       17.7340  -23.9630  -29.1850 C.3   144  LEU144      0.0001
     89  N         13.4020  -24.0230  -26.8500 N.am  145  CYS145     -0.1968
     90  CA        12.1190  -24.0620  -26.1230 C.3   145  CYS145      0.1712
     91  C         12.3620  -23.8690  -24.6270 C.2   145  CYS145      0.2296
     92  O         11.5870  -23.1900  -23.9240 O.2   145  CYS145     -0.2864
     93  CB        11.3610  -25.3770  -26.3690 C.3   145  CYS145      0.0983
     94  SG         9.7150  -25.4660  -25.5530 S.3   145  CYS145     -0.0798
     95  N         12.3700  -20.2890  -23.0050 N.3   148  CYS148     -0.1235
     96  CA        11.1830  -19.5310  -22.6110 C.3   148  CYS148      0.1677
     97  C         11.3220  -19.0630  -21.1690 C.2   148  CYS148      0.2270
     98  O         11.8000  -19.8110  -20.3070 O.2   148  CYS148     -0.2867
     99  CB         9.9200  -20.3610  -22.7860 C.3   148  CYS148      0.0956
    100  SG         9.5230  -20.6610  -24.5180 S.3   148  CYS148     -0.0801
    101  N         10.6290  -13.9350  -22.8340 N.3   166  HIS166     -0.1226
    102  CA        10.4810  -14.7310  -24.0440 C.3   166  HIS166      0.1752
    103  C          9.3590  -15.7560  -23.9590 C.2   166  HIS166      0.2596
    104  O          9.2590  -16.5060  -22.9830 O.2   166  HIS166     -0.2718
    105  CB        11.7780  -15.4470  -24.3620 C.3   166  HIS166      0.0759
    106  CG        11.7190  -16.2360  -25.6250 C.ar  166  HIS166      0.0818
    107  ND1       11.5580  -15.6420  -26.8600 N.ar  166  HIS166     -0.2268
    108  CD2       11.7870  -17.5690  -25.8530 C.ar  166  HIS166      0.1154
    109  CE1       11.5390  -16.5770  -27.7920 C.ar  166  HIS166      0.1986
    110  NE2       11.6930  -17.7530  -27.2090 N.ar  166  HIS166     -0.2212
    111  N          8.5330  -15.8020  -24.9980 N.am  167  GLN167     -0.1965
    112  CA         7.3680  -16.6870  -25.0020 C.3   167  GLN167      0.1733
    113  C          7.4280  -17.7740  -26.0780 C.2   167  GLN167      0.2616
    114  O          7.1050  -18.9290  -25.8130 O.2   167  GLN167     -0.2715
    115  CB         6.0880  -15.8720  -25.1940 C.3   167  GLN167      0.0408
    116  CG         5.7530  -14.9460  -24.0330 C.3   167  GLN167      0.0908
    117  CD         4.7880  -15.5880  -23.0580 C.2   167  GLN167      0.2608
    118  OE1        4.2530  -16.6660  -23.3180 O.2   167  GLN167     -0.2717
    119  NE2        4.5640  -14.9340  -21.9360 N.am  167  GLN167     -0.0878
    120  N          7.8120  -17.4120  -27.3010 N.am  168  MET168     -0.1963
    121  CA         7.7940  -18.4020  -28.3800 C.3   168  MET168      0.1736
    122  C          8.5860  -18.0380  -29.6340 C.2   168  MET168      0.2616
    123  O          8.9340  -16.8780  -29.8580 O.2   168  MET168     -0.2715
    124  CB         6.3470  -18.6880  -28.7830 C.3   168  MET168      0.0427
    125  CG         5.5590  -17.4700  -29.1050 C.3   168  MET168      0.0599
    126  SD         3.7850  -17.8200  -29.0030 S.3   168  MET168     -0.1393
    127  CE         3.1750  -16.3390  -29.7860 C.3   168  MET168      0.0692
    128  N          8.8390  -19.0580  -30.4480 N.am  169  GLU169     -0.1963
    129  CA         9.4770  -18.8980  -31.7430 C.3   169  GLU169      0.1733
    130  C          8.4360  -19.0890  -32.8380 C.2   169  GLU169      0.2616
    131  O          7.8670  -20.1750  -32.9740 O.2   169  GLU169     -0.2715
    132  CB        10.6240  -19.8980  -31.9010 C.3   169  GLU169      0.0429
    133  CG        11.3950  -19.7440  -33.1910 C.3   169  GLU169      0.1163
    134  CD        12.5670  -20.7090  -33.2930 C.2   169  GLU169      0.3649
    135  OE1       13.5110  -20.5990  -32.4730 O.co2 169  GLU169     -0.2457
    136  OE2       12.5480  -21.5700  -34.2030 O.co2 169  GLU169     -0.2457
    137  N          8.1900  -18.0250  -33.6050 N.am  170  LEU170     -0.1977
    138  CA         7.1200  -17.9940  -34.6040 C.3   170  LEU170      0.1596
    139  C          7.5090  -18.7050  -35.8870 C.2   170  LEU170      0.2287
    140  O          6.7810  -19.5480  -36.3960 O.2   170  LEU170     -0.2864
    141  CB         6.7480  -16.5480  -34.9230 C.3   170  LEU170      0.0297
    142  CG         6.2690  -15.7490  -33.7120 C.3   170  LEU170      0.0022
    143  CD1        6.4600  -14.2530  -33.9290 C.3   170  LEU170      0.0001
    144  CD2        4.8100  -16.0770  -33.4090 C.3   170  LEU170      0.0001
    145  N         -0.3700  -17.0610  -27.5480 N.3   190  ASP190     -0.1225
    146  CA         0.3950  -18.1710  -27.0190 C.3   190  ASP190      0.1805
    147  C         -0.3690  -19.4790  -27.2300 C.2   190  ASP190      0.2598
    148  O         -0.7110  -20.1800  -26.2760 O.2   190  ASP190     -0.2718
    149  CB         0.7600  -17.9380  -25.5400 C.3   190  ASP190      0.1424
    150  CG        -0.4380  -17.5820  -24.6530 C.2   190  ASP190      0.3668
    151  OD1       -1.5460  -17.2370  -25.1480 O.co2 190  ASP190     -0.2456
    152  OD2       -0.2530  -17.6600  -23.4230 O.co2 190  ASP190     -0.2456
    153  N         -0.6280  -19.7870  -28.5040 N.am  191  LYS191     -0.1966
    154  CA        -1.2440  -21.0440  -28.9340 C.3   191  LYS191      0.1728
    155  C         -0.4250  -21.7140  -30.0340 C.2   191  LYS191      0.2616
    156  O          0.4390  -21.0800  -30.6510 O.2   191  LYS191     -0.2715
    157  CB        -2.6660  -20.8190  -29.4560 C.3   191  LYS191      0.0311
    158  CG        -3.6870  -20.5670  -28.3910 C.3   191  LYS191      0.0038
    159  CD        -5.0880  -20.8810  -28.8850 C.3   191  LYS191      0.0206
    160  CE        -5.5620  -19.8810  -29.9140 C.3   191  LYS191      0.1093
    161  NZ        -7.0300  -20.0150  -30.0950 N.3   191  LYS191     -0.1314
    162  N         -0.7080  -22.9920  -30.2850 N.am  192  GLN192     -0.1963
    163  CA        -0.1050  -23.6960  -31.4140 C.3   192  GLN192      0.1733
    164  C         -1.0170  -23.6000  -32.6240 C.2   192  GLN192      0.2617
    165  O         -1.7690  -24.5260  -32.9270 O.2   192  GLN192     -0.2715
    166  CB         0.1690  -25.1610  -31.0840 C.3   192  GLN192      0.0408
    167  CG         1.2280  -25.7820  -31.9760 C.3   192  GLN192      0.0908
    168  CD         1.5760  -27.2000  -31.5700 C.2   192  GLN192      0.2608
    169  OE1        0.7030  -28.0670  -31.4880 O.2   192  GLN192     -0.2717
    170  NE2        2.8590  -27.4430  -31.3030 N.am  192  GLN192     -0.0878
    171  N         -0.9540  -22.4560  -33.2940 N.am  193  THR193     -0.1951
    172  CA        -1.7250  -22.2110  -34.4980 C.3   193  THR193      0.1897
    173  C         -0.8450  -21.4630  -35.4830 C.2   193  THR193      0.2313
    174  O          0.1090  -20.7860  -35.0850 O.2   193  THR193     -0.2863
    175  CB        -3.0000  -21.3970  -34.2100 C.3   193  THR193      0.1794
    176  OG1       -2.6820  -20.3100  -33.3320 O.3   193  THR193     -0.2208
    177  CG2       -4.0680  -22.2720  -33.5540 C.3   193  THR193      0.0378
    178  N          0.1620  -18.5300  -37.3330 N.3   195  GLN195     -0.1245
    179  CA        -0.0800  -17.1040  -37.2110 C.3   195  GLN195      0.1566
    180  C          0.7710  -16.3750  -38.2320 C.2   195  GLN195      0.2260
    181  O          1.9240  -16.7410  -38.4630 O.2   195  GLN195     -0.2867
    182  CB         0.2220  -16.6310  -35.7930 C.3   195  GLN195      0.0367
    183  CG        -0.5470  -17.4190  -34.7520 C.3   195  GLN195      0.0905
    184  CD        -0.0760  -17.1460  -33.3450 C.2   195  GLN195      0.2608
    185  OE1       -0.0530  -16.0020  -32.9010 O.2   195  GLN195     -0.2717
    186  NE2        0.2880  -18.1990  -32.6290 N.am  195  GLN195     -0.0878
@<TRIPOS>BOND
     1   181   180    2
     2   180   179    1
     3   178   179    1
     4   179   182    1
     5   140   139    2
     6   139   138    1
     7   182   183    1
     8   173   174    2
     9   173   172    1
    10   141   138    1
    11   141   142    1
    12   183   184    1
    13   138   137    1
    14   172   175    1
    15   172   171    1
    16   175   177    1
    17   175   176    1
    18   136   134   ar
    19   143   142    1
    20   142   144    1
    21   137   130   am
    22   184   185    2
    23   184   186   am
    24   171   164   am
    25   134   133    1
    26   134   135   ar
    27   133   132    1
    28   131   130    2
    29   165   164    2
    30   130   129    1
    31   164   163    1
    32   167   168    1
    33   167   166    1
    34   132   129    1
    35   129   128    1
    36   168   169    2
    37   168   170   am
    38   163   166    1
    39   163   162    1
    40   156   155    2
    41   128   122   am
    42   162   155   am
    43   161   160    1
    44   155   154    1
    45   160   159    1
    46   123   122    2
    47   127   126    1
    48    73    72    2
    49   122   121    1
    50   157   154    1
    51   157   158    1
    52    70    71    1
    53    88    86    1
    54   125   126    1
    55   125   124    1
    56   154   153    1
    57   159   158    1
    58   124   121    1
    59    77    79   ar
    60    77    75   ar
    61    72    71    1
    62    72    81   am
    63   153   147   am
    64   121   120    1
    65    46    45    2
    66    71    74    1
    67    79    80   ar
    68    45    44    1
    69    74    75    1
    70   109   110   ar
    71   109   107   ar
    72    75    76   ar
    73    86    87    1
    74    86    85    1
    75    47    44    1
    76    47    48    1
    77    82    81    1
    78    82    85    1
    79    82    83    1
    80   145   146    1
    81   120   113   am
    82    49    48    1
    83   147   146    1
    84   147   148    2
    85   110   108   ar
    86    44    43    1
    87    80    78   ar
    88   146   149    1
    89    41    40    2
    90   107   106   ar
    91    89    83   am
    92    89    90    1
    93    83    84    2
    94    48    50    1
    95    57    51    1
    96    57    56    1
    97    76    78   ar
    98    93    90    1
    99    93    94    1
   100    90    91    1
   101   113   114    2
   102   113   112    1
   103    51    52    1
   104    40    39    1
   105   108   106   ar
   106   106   105    1
   107   149   150    1
   108    42    39    1
   109   115   112    1
   110   115   116    1
   111   151   150   ar
   112    56    55    1
   113    39    38    1
   114   112   111    1
   115   111   103   am
   116   150   152   ar
   117    91    92    2
   118   100    99    1
   119    52    55    1
   120    52    53    1
   121   105   102    1
   122    54    53    2
   123   102   103    1
   124   102   101    1
   125   116   117    1
   126   103   104    2
   127    34    33    2
   128    69    68    1
   129    24    22   ar
   130    24    23   ar
   131    22    20   ar
   132    38    33   am
   133   118   117    2
   134    30    29    1
   135    67    68   ar
   136    67    65   ar
   137    23    21   ar
   138   117   119   am
   139    33    32    1
   140    20    19    1
   141    20    21   ar
   142    95    96    1
   143    68    66   ar
   144    99    96    1
   145    19    16    1
   146    96    97    1
   147    65    63   ar
   148    29    26    1
   149    28    27    2
   150    66    64   ar
   151    32    35    1
   152    32    31    1
   153    13    14    1
   154    13    12    1
   155    16    17    1
   156    16    15    1
   157    27    31   am
   158    27    26    1
   159    97    98    2
   160    35    36    1
   161    31    37    1
   162    63    64   ar
   163    63    62    1
   164    18    17    2
   165    26    25    1
   166    58    59    1
   167    37    36    1
   168    12    11    1
   169    62    59    1
   170    59    60    1
   171     6     5    1
   172    11     8    1
   173     4     3    2
   174     8     7    1
   175     8     9    1
   176    60    61    2
   177     5     2    1
   178     3     7   am
   179     3     2    1
   180     9    10    2
   181     2     1    1
