@<TRIPOS>MOLECULE
tmp/4yojB00.pdb
 162 158 0 0 0
SMALL
GASTEIGER

@<TRIPOS>ATOM
      1  N        -47.2960   11.6920   12.7570 N.3    24  SER24      -0.1202
      2  CA       -46.0270   12.1480   13.3080 C.3    24  SER24       0.2020
      3  C        -45.4360   11.1520   14.2980 C.2    24  SER24       0.2618
      4  O        -44.4430   11.4500   14.9440 O.2    24  SER24      -0.2717
      5  CB       -46.1830   13.5170   13.9730 C.3    24  SER24       0.2103
      6  OG       -47.3380   13.5630   14.7880 O.3    24  SER24      -0.2182
      7  N        -46.0410    9.9740   14.4160 N.am   25  MET25      -0.1979
      8  CA       -45.4950    8.9280   15.2780 C.3    25  MET25       0.1605
      9  C        -44.6380    7.9730   14.4620 C.2    25  MET25       0.2287
     10  O        -45.0760    7.4460   13.4440 O.2    25  MET25      -0.2864
     11  CB       -46.6090    8.1450   15.9910 C.3    25  MET25       0.0413
     12  CG       -46.0800    7.0290   16.9180 C.3    25  MET25       0.0598
     13  SD       -44.9520    7.6340   18.2000 S.3    25  MET25      -0.1393
     14  CE       -44.5860    6.1220   19.0960 C.3    25  MET25       0.0692
     15  N        -50.6920    1.3160   18.4850 N.3    41  HIS41      -0.1241
     16  CA       -50.7620    2.6810   18.9880 C.3    41  HIS41       0.1621
     17  C        -49.9770    3.6680   18.1220 C.2    41  HIS41       0.2264
     18  O        -50.0180    4.8740   18.3630 O.2    41  HIS41      -0.2867
     19  CB       -50.3460    2.7620   20.4670 C.3    41  HIS41       0.0745
     20  CG       -48.8930    2.5090   20.7530 C.ar   41  HIS41       0.0817
     21  ND1      -47.8740    3.2850   20.2430 N.ar   41  HIS41      -0.2268
     22  CD2      -48.3010    1.5860   21.5440 C.ar   41  HIS41       0.1154
     23  CE1      -46.7150    2.8420   20.6980 C.ar   41  HIS41       0.1986
     24  NE2      -46.9460    1.8110   21.4920 N.ar   41  HIS41      -0.2212
     25  N        -52.3020    6.3690   16.9690 N.3    44  CYS44      -0.1221
     26  CA       -52.9380    7.2690   17.9290 C.3    44  CYS44       0.1794
     27  C        -52.2750    8.6460   18.0100 C.2    44  CYS44       0.2443
     28  O        -51.0770    8.7440   18.2840 O.2    44  CYS44      -0.2733
     29  CB       -52.9510    6.6280   19.3200 C.3    44  CYS44       0.0970
     30  SG       -54.1170    7.4180   20.4590 S.3    44  CYS44      -0.0800
     31  N        -53.0660    9.7150   17.7830 N.am   45  PRO45      -0.2718
     32  CA       -52.6350   11.1020   17.9650 C.3    45  PRO45       0.1535
     33  C        -52.2150   11.2760   19.4170 C.2    45  PRO45       0.2598
     34  O        -52.8180   10.6340   20.2780 O.2    45  PRO45      -0.2715
     35  CB       -53.8970   11.9230   17.6570 C.3    45  PRO45       0.0310
     36  CG       -54.7990   10.9930   16.9130 C.3    45  PRO45       0.0237
     37  CD       -54.4970    9.6260   17.4340 C.3    45  PRO45       0.0939
     38  N        -51.2200   12.1180   19.6800 N.am   46  ALA46      -0.1978
     39  CA       -50.7210   12.3370   21.0360 C.3    46  ALA46       0.1597
     40  C        -51.8240   12.6840   22.0410 C.2    46  ALA46       0.2287
     41  O        -51.7310   12.3500   23.2210 O.2    46  ALA46      -0.2864
     42  CB       -49.6670   13.4330   21.0260 C.3    46  ALA46       0.0319
     43  N        -54.1540    9.4910   23.5800 N.3    49  LEU49      -0.1245
     44  CA       -53.4250    8.3500   24.1290 C.3    49  LEU49       0.1561
     45  C        -54.0650    7.7870   25.3990 C.2    49  LEU49       0.2260
     46  O        -53.7860    6.6550   25.7930 O.2    49  LEU49      -0.2867
     47  CB       -51.9750    8.7460   24.4140 C.3    49  LEU49       0.0270
     48  CG       -51.0600    8.9790   23.2130 C.3    49  LEU49       0.0019
     49  CD1      -49.7790    9.6580   23.6510 C.3    49  LEU49       0.0001
     50  CD2      -50.7380    7.6690   22.4890 C.3    49  LEU49       0.0001
     51  N        -57.8110    5.7640   23.2920 N.3    52  PRO52      -0.2116
     52  CA       -57.8580    5.7070   21.8320 C.3    52  PRO52       0.1372
     53  C        -59.0170    4.8480   21.3630 C.2    52  PRO52       0.2244
     54  O        -59.3440    3.8510   21.9980 O.2    52  PRO52      -0.2868
     55  CB       -56.5080    5.0920   21.4560 C.3    52  PRO52       0.0268
     56  CG       -56.0470    4.3870   22.6670 C.3    52  PRO52       0.0207
     57  CD       -56.7210    4.9590   23.8650 C.3    52  PRO52       0.0892
     58  N        -59.3370    2.5850   18.7360 N.3    54  TYR54      -0.1241
     59  CA       -58.5260    1.9370   17.7170 C.3    54  TYR54       0.1605
     60  C        -59.3080    1.5030   16.4750 C.2    54  TYR54       0.2264
     61  O        -58.7660    1.4770   15.3700 O.2    54  TYR54      -0.2867
     62  CB       -57.7980    0.7470   18.3340 C.3    54  TYR54       0.0534
     63  CG       -56.6500    1.1800   19.2240 C.ar   54  TYR54      -0.0201
     64  CD1      -55.5300    1.8030   18.6800 C.ar   54  TYR54      -0.0009
     65  CD2      -56.6880    0.9760   20.5960 C.ar   54  TYR54      -0.0009
     66  CE1      -54.4730    2.2030   19.4780 C.ar   54  TYR54       0.0417
     67  CE2      -55.6230    1.3670   21.4070 C.ar   54  TYR54       0.0417
     68  CZ       -54.5210    1.9890   20.8340 C.ar   54  TYR54       0.1957
     69  OH       -53.4590    2.3830   21.6190 O.3    54  TYR54      -0.2866
     70  N        -36.0240    0.3330   27.9180 N.3   143  PHE143     -0.1227
     71  CA       -36.6860    0.7980   26.7110 C.3   143  PHE143      0.1736
     72  C        -36.9590    2.2850   26.8170 C.2   143  PHE143      0.2595
     73  O        -37.2630    2.7740   27.8980 O.2   143  PHE143     -0.2718
     74  CB       -38.0180    0.0850   26.4920 C.3   143  PHE143      0.0547
     75  CG       -37.9140   -1.3930   26.2740 C.ar  143  PHE143     -0.0202
     76  CD1      -37.6690   -1.9040   25.0090 C.ar  143  PHE143     -0.0042
     77  CD2      -38.1680   -2.2710   27.3150 C.ar  143  PHE143     -0.0042
     78  CE1      -37.6150   -3.2730   24.7960 C.ar  143  PHE143     -0.0003
     79  CE2      -38.1180   -3.6390   27.1140 C.ar  143  PHE143     -0.0003
     80  CZ       -37.8460   -4.1420   25.8580 C.ar  143  PHE143     -0.0000
     81  N        -36.8920    2.9760   25.6830 N.am  144  LEU144     -0.1966
     82  CA       -37.2660    4.3820   25.5810 C.3   144  LEU144      0.1728
     83  C        -38.5200    4.4490   24.7080 C.2   144  LEU144      0.2616
     84  O        -38.9490    3.4120   24.2040 O.2   144  LEU144     -0.2715
     85  CB       -36.1030    5.1650   24.9980 C.3   144  LEU144      0.0311
     86  CG       -34.9040    4.8310   25.8880 C.3   144  LEU144      0.0022
     87  CD1      -33.6210    4.9260   25.1000 C.3   144  LEU144      0.0001
     88  CD2      -34.8550    5.7050   27.1440 C.3   144  LEU144      0.0001
     89  N        -39.1500    5.6100   24.5340 N.am  145  CYS145     -0.1968
     90  CA       -40.4520    5.5830   23.8360 C.3   145  CYS145      0.1712
     91  C        -40.3100    5.1950   22.3660 C.2   145  CYS145      0.2296
     92  O        -41.1760    4.5120   21.7970 O.2   145  CYS145     -0.2864
     93  CB       -41.1920    6.9180   23.9220 C.3   145  CYS145      0.0983
     94  SG       -42.8610    6.8140   23.1460 S.3   145  CYS145     -0.0798
     95  N        -40.6000    1.3310   20.9760 N.3   148  CYS148     -0.1235
     96  CA       -41.8070    0.5440   20.7130 C.3   148  CYS148      0.1677
     97  C        -41.6300   -0.1860   19.3910 C.2   148  CYS148      0.2270
     98  O        -41.0620    0.3670   18.4530 O.2   148  CYS148     -0.2867
     99  CB       -43.0450    1.4410   20.6920 C.3   148  CYS148      0.0956
    100  SG       -43.3960    2.0460   22.3450 S.3   148  CYS148     -0.0801
    101  N        -42.3590   -4.9090   21.7290 N.3   166  HIS166     -0.1226
    102  CA       -42.4790   -3.9800   22.8410 C.3   166  HIS166      0.1752
    103  C        -43.6140   -2.9890   22.6190 C.2   166  HIS166      0.2596
    104  O        -43.7420   -2.4190   21.5360 O.2   166  HIS166     -0.2718
    105  CB       -41.1620   -3.2280   23.0700 C.3   166  HIS166      0.0759
    106  CG       -41.2320   -2.2890   24.2230 C.ar  166  HIS166      0.0818
    107  ND1      -41.5640   -2.7140   25.4960 N.ar  166  HIS166     -0.2268
    108  CD2      -41.0870   -0.9470   24.2980 C.ar  166  HIS166      0.1154
    109  CE1      -41.5820   -1.6740   26.3070 C.ar  166  HIS166      0.1986
    110  NE2      -41.2990   -0.5880   25.6070 N.ar  166  HIS166     -0.2212
    111  N        -44.4440   -2.8010   23.6480 N.am  167  GLN167     -0.1965
    112  CA       -45.6220   -1.9390   23.5360 C.3   167  GLN167      0.1733
    113  C        -45.5720   -0.7060   24.4230 C.2   167  GLN167      0.2616
    114  O        -45.9230    0.3860   23.9810 O.2   167  GLN167     -0.2715
    115  CB       -46.8890   -2.7340   23.8740 C.3   167  GLN167      0.0408
    116  CG       -47.2300   -3.8110   22.8450 C.3   167  GLN167      0.0908
    117  CD       -48.1450   -3.3120   21.7630 C.2   167  GLN167      0.2608
    118  OE1      -48.7280   -2.2280   21.8740 O.2   167  GLN167     -0.2717
    119  NE2      -48.3060   -4.1120   20.7070 N.am  167  GLN167     -0.0878
    120  N        -45.1660   -0.8730   25.6810 N.am  168  MET168     -0.1963
    121  CA       -45.3240    0.2240   26.6390 C.3   168  MET168      0.1736
    122  C        -44.4690    0.1170   27.8910 C.2   168  MET168      0.2616
    123  O        -44.0010   -0.9620   28.2530 O.2   168  MET168     -0.2715
    124  CB       -46.7990    0.3380   27.0530 C.3   168  MET168      0.0427
    125  CG       -47.3780   -0.8960   27.7150 C.3   168  MET168      0.0599
    126  SD       -49.1930   -0.7040   27.8810 S.3   168  MET168     -0.1393
    127  CE       -49.7390   -2.3840   27.9290 C.3   168  MET168      0.0692
    128  N        -44.2700    1.2600   28.5450 N.am  169  GLU169     -0.1977
    129  CA       -43.6720    1.2900   29.8710 C.3   169  GLU169      0.1602
    130  C        -44.7580    1.5530   30.8970 C.2   169  GLU169      0.2287
    131  O        -45.5100    2.5150   30.7550 O.2   169  GLU169     -0.2864
    132  CB       -42.5870    2.3590   29.9710 C.3   169  GLU169      0.0415
    133  CG       -41.9180    2.3930   31.3440 C.3   169  GLU169      0.1163
    134  CD       -40.5690    3.1080   31.3260 C.2   169  GLU169      0.3649
    135  OE1      -39.6520    2.6500   30.6120 O.co2 169  GLU169     -0.2457
    136  OE2      -40.4190    4.1270   32.0330 O.co2 169  GLU169     -0.2457
    137  N        -53.3860   -1.1990   25.9790 N.3   190  ASP190     -0.1225
    138  CA       -52.5310   -0.2400   25.3050 C.3   190  ASP190      0.1805
    139  C        -53.1900    1.1430   25.2810 C.2   190  ASP190      0.2598
    140  O        -53.6200    1.6460   24.2390 O.2   190  ASP190     -0.2718
    141  CB       -52.1620   -0.7220   23.8890 C.3   190  ASP190      0.1424
    142  CG       -53.3680   -1.0260   23.0110 C.2   190  ASP190      0.3668
    143  OD1      -54.4920   -1.2550   23.5270 O.co2 190  ASP190     -0.2456
    144  OD2      -53.1700   -1.0460   21.7740 O.co2 190  ASP190     -0.2456
    145  N        -53.2590    1.7400   26.4670 N.am  191  LYS191     -0.1966
    146  CA       -53.6860    3.1190   26.6170 C.3   191  LYS191      0.1728
    147  C        -52.8620    3.7750   27.7300 C.2   191  LYS191      0.2616
    148  O        -52.3160    3.0920   28.6150 O.2   191  LYS191     -0.2715
    149  CB       -55.1850    3.1910   26.9180 C.3   191  LYS191      0.0311
    150  CG       -55.5630    2.5950   28.2520 C.3   191  LYS191      0.0038
    151  CD       -57.0370    2.8180   28.5640 C.3   191  LYS191      0.0206
    152  CE       -57.9350    2.2200   27.4930 C.3   191  LYS191      0.1093
    153  NZ       -59.3750    2.3550   27.8580 N.3   191  LYS191     -0.1314
    154  N        -52.7660    5.0960   27.6720 N.am  192  GLN192     -0.1977
    155  CA       -51.9590    5.8410   28.6260 C.3   192  GLN192      0.1601
    156  C        -52.7670    6.1390   29.8760 C.2   192  GLN192      0.2287
    157  O        -53.2270    7.2630   30.0840 O.2   192  GLN192     -0.2864
    158  CB       -51.4390    7.1330   28.0040 C.3   192  GLN192      0.0394
    159  CG       -50.1450    7.6340   28.6270 C.3   192  GLN192      0.0908
    160  CD       -49.5390    8.7810   27.8450 C.2   192  GLN192      0.2608
    161  OE1      -50.1550    9.8370   27.6810 O.2   192  GLN192     -0.2717
    162  NE2      -48.3340    8.5710   27.3360 N.am  192  GLN192     -0.0878
@<TRIPOS>BOND
     1     1     2    1
     2     2     5    1
     3     2     3    1
     4    10     9    2
     5     5     6    1
     6     3     7   am
     7     3     4    2
     8     7     8    1
     9     9     8    1
    10     8    11    1
    11    61    60    2
    12    11    12    1
    13    60    59    1
    14    36    37    1
    15    36    35    1
    16    12    13    1
    17    25    26    1
    18    37    31    1
    19    35    32    1
    20    59    62    1
    21    59    58    1
    22    31    32    1
    23    31    27   am
    24    26    27    1
    25    26    29    1
    26    32    33    1
    27    27    28    2
    28    17    18    2
    29    17    16    1
    30    13    14    1
    31    62    63    1
    32    98    97    2
    33    15    16    1
    34    64    63   ar
    35    64    66   ar
    36    16    19    1
    37    63    65   ar
    38    29    30    1
    39    97    96    1
    40    33    38   am
    41    33    34    2
    42    66    68   ar
    43    38    39    1
    44    21    23   ar
    45    21    20   ar
    46    19    20    1
    47    65    67   ar
    48    99    96    1
    49    99   100    1
    50    23    24   ar
    51   119   117   am
    52    96    95    1
    53    20    22   ar
    54    68    67   ar
    55    68    69    1
    56    42    39    1
    57    39    40    1
    58    53    52    1
    59    53    54    2
    60    55    52    1
    61    55    56    1
    62    24    22   ar
    63   104   103    2
    64   101   102    1
    65   117   118    2
    66   117   116    1
    67   144   142   ar
    68    92    91    2
    69    52    51    1
    70    40    41    2
    71    91    90    1
    72    50    48    1
    73   103   102    1
    74   103   111   am
    75    56    57    1
    76   102   105    1
    77   116   115    1
    78   142   143   ar
    79   142   141    1
    80   105   106    1
    81    94    93    1
    82    48    49    1
    83    48    47    1
    84    51    57    1
    85   112   111    1
    86   112   115    1
    87   112   113    1
    88    43    44    1
    89    90    93    1
    90    90    89    1
    91   141   138    1
    92   114   113    2
    93    44    47    1
    94    44    45    1
    95    84    83    2
    96   106   108   ar
    97   106   107   ar
    98   140   139    2
    99   108   110   ar
   100   113   120   am
   101    89    83   am
   102    83    82    1
   103    78    76   ar
   104    78    80   ar
   105    85    82    1
   106    85    86    1
   107    76    75   ar
   108    87    86    1
   109   139   138    1
   110   139   145   am
   111   138   137    1
   112    45    46    2
   113   107   109   ar
   114    82    81    1
   115   110   109   ar
   116   120   121    1
   117    81    72   am
   118    80    79   ar
   119    86    88    1
   120    75    74    1
   121    75    77   ar
   122   145   146    1
   123    74    71    1
   124   146   149    1
   125   146   147    1
   126   121   124    1
   127   121   122    1
   128    71    72    1
   129    71    70    1
   130    72    73    2
   131   149   150    1
   132   124   125    1
   133    79    77   ar
   134   162   160   am
   135   152   153    1
   136   152   151    1
   137   154   147   am
   138   154   155    1
   139   161   160    2
   140   125   126    1
   141   147   148    2
   142   160   159    1
   143   126   127    1
   144   122   123    2
   145   122   128   am
   146   158   155    1
   147   158   159    1
   148   150   151    1
   149   128   129    1
   150   155   156    1
   151   129   132    1
   152   129   130    1
   153   156   157    2
   154   132   133    1
   155   135   134   ar
   156   131   130    2
   157   134   133    1
   158   134   136   ar
