@<TRIPOS>MOLECULE
tmp/4yozA00.pdb
 163 156 0 0 0
SMALL
GASTEIGER

@<TRIPOS>ATOM
      1  N          4.7140   29.7430   31.3340 N.3   276  TYR276     -0.1227
      2  CA         4.2570   30.9430   32.0520 C.3   276  TYR276      0.1736
      3  C          2.9490   30.6720   32.8000 C.2   276  TYR276      0.2595
      4  O          2.8450   30.9570   33.9990 O.2   276  TYR276     -0.2718
      5  CB         4.0960   32.1300   31.0780 C.3   276  TYR276      0.0548
      6  CG         3.5060   33.3870   31.7140 C.ar  276  TYR276     -0.0200
      7  CD1        4.2970   34.2820   32.4350 C.ar  276  TYR276     -0.0009
      8  CD2        2.1500   33.6730   31.5980 C.ar  276  TYR276     -0.0009
      9  CE1        3.7420   35.4180   33.0310 C.ar  276  TYR276      0.0417
     10  CE2        1.5930   34.7950   32.1820 C.ar  276  TYR276      0.0417
     11  CZ         2.3870   35.6640   32.8990 C.ar  276  TYR276      0.1957
     12  OH         1.8020   36.7640   33.4750 O.3   276  TYR276     -0.2866
     13  N          1.9760   30.0780   32.1090 N.am  277  ILE277     -0.1980
     14  CA         0.6540   29.8970   32.7000 C.3   277  ILE277      0.1595
     15  C          0.7270   28.9310   33.8800 C.2   277  ILE277      0.2287
     16  O          0.0100   29.0890   34.8670 O.2   277  ILE277     -0.2864
     17  CB        -0.3990   29.4000   31.6530 C.3   277  ILE277      0.0276
     18  CG1       -1.8190   29.6840   32.1540 C.3   277  ILE277      0.0022
     19  CG2       -0.2210   27.9220   31.3100 C.3   277  ILE277      0.0022
     20  CD1       -2.8960   29.3560   31.1530 C.3   277  ILE277      0.0001
     21  N          2.6570   30.7310   36.6210 N.3   280  LYS280     -0.1231
     22  CA         1.6720   31.6610   37.1590 C.3   280  LYS280      0.1693
     23  C          0.7720   30.9900   38.1930 C.2   280  LYS280      0.2591
     24  O          0.7970   31.3540   39.3680 O.2   280  LYS280     -0.2718
     25  CB         0.8300   32.2620   36.0340 C.3   280  LYS280      0.0285
     26  CG         0.3330   33.6710   36.3110 C.3   280  LYS280      0.0035
     27  CD        -0.2730   34.2770   35.0550 C.3   280  LYS280      0.0206
     28  CE        -0.6120   35.7400   35.2540 C.3   280  LYS280      0.1093
     29  NZ         0.6030   36.5530   35.5250 N.3   280  LYS280     -0.1314
     30  N         -0.0190   30.0120   37.7530 N.am  281  VAL281     -0.1980
     31  CA        -1.0290   29.3930   38.6130 C.3   281  VAL281      0.1595
     32  C         -0.4540   28.7160   39.8570 C.2   281  VAL281      0.2287
     33  O         -1.1530   28.5610   40.8600 O.2   281  VAL281     -0.2864
     34  CB        -1.8690   28.3460   37.8410 C.3   281  VAL281      0.0276
     35  CG1       -2.6700   29.0140   36.7360 C.3   281  VAL281      0.0022
     36  CG2       -0.9840   27.2390   37.2840 C.3   281  VAL281      0.0022
     37  N          8.2940   35.9250   34.7330 N.3   287  THR287     -0.1203
     38  CA         7.7510   36.7860   33.6860 C.3   287  THR287      0.1994
     39  C          7.9990   36.1690   32.3040 C.2   287  THR287      0.2618
     40  O          8.9980   35.4720   32.1050 O.2   287  THR287     -0.2717
     41  CB         8.3640   38.2070   33.7390 C.3   287  THR287      0.1784
     42  OG1        9.7210   38.1670   33.2840 O.3   287  THR287     -0.2211
     43  CG2        8.3210   38.7690   35.1600 C.3   287  THR287      0.0376
     44  N          7.0850   36.4070   31.3600 N.am  288  PHE288     -0.1961
     45  CA         7.2970   35.9750   29.9780 C.3   288  PHE288      0.1771
     46  C          8.5890   36.5650   29.4280 C.2   288  PHE288      0.2619
     47  O          9.2690   35.9450   28.6050 O.2   288  PHE288     -0.2715
     48  CB         6.1470   36.3870   29.0460 C.3   288  PHE288      0.0574
     49  CG         5.2680   35.2510   28.6040 C.ar  288  PHE288     -0.0200
     50  CD1        5.7320   34.2980   27.7080 C.ar  288  PHE288     -0.0042
     51  CD2        3.9300   35.2200   28.9690 C.ar  288  PHE288     -0.0042
     52  CE1        4.9050   33.2770   27.2770 C.ar  288  PHE288     -0.0003
     53  CE2        3.1010   34.2180   28.5250 C.ar  288  PHE288     -0.0003
     54  CZ         3.5970   33.2250   27.6720 C.ar  288  PHE288     -0.0000
     55  N          8.9120   37.7750   29.8760 N.am  289  GLN289     -0.1977
     56  CA        10.1080   38.4610   29.4120 C.3   289  GLN289      0.1601
     57  C         11.3510   37.6610   29.7790 C.2   289  GLN289      0.2287
     58  O         12.1900   37.4100   28.9170 O.2   289  GLN289     -0.2864
     59  CB        10.1770   39.8830   29.9820 C.3   289  GLN289      0.0394
     60  CG         9.2610   40.8680   29.2640 C.3   289  GLN289      0.0908
     61  CD         9.5020   42.3160   29.6650 C.2   289  GLN289      0.2608
     62  OE1       10.0020   42.6000   30.7540 O.2   289  GLN289     -0.2717
     63  NE2        9.1480   43.2390   28.7770 N.am  289  GLN289     -0.0878
     64  N         11.4740   34.3950   27.8930 N.3   292  MET292     -0.1245
     65  CA        11.9420   34.5410   26.5200 C.3   292  MET292      0.1570
     66  C         13.4370   34.8850   26.3850 C.2   292  MET292      0.2261
     67  O         14.0710   34.4650   25.4160 O.2   292  MET292     -0.2867
     68  CB        11.0950   35.5940   25.8020 C.3   292  MET292      0.0387
     69  CG         9.7360   35.0680   25.3280 C.3   292  MET292      0.0595
     70  SD         8.5320   36.3880   25.0610 S.3   292  MET292     -0.1393
     71  CE         9.6030   37.7310   24.5570 C.3   292  MET292      0.0692
     72  N          8.8770   34.3420   19.0770 N.3   306  TYR306     -0.1227
     73  CA         8.0040   35.0510   20.0190 C.3   306  TYR306      0.1736
     74  C          7.5740   36.4560   19.5760 C.2   306  TYR306      0.2595
     75  O          6.6590   37.0390   20.1570 O.2   306  TYR306     -0.2718
     76  CB         8.6890   35.1460   21.3820 C.3   306  TYR306      0.0548
     77  CG        10.1030   35.6470   21.2820 C.ar  306  TYR306     -0.0200
     78  CD1       10.3710   37.0070   21.2450 C.ar  306  TYR306     -0.0009
     79  CD2       11.1720   34.7630   21.2050 C.ar  306  TYR306     -0.0009
     80  CE1       11.6580   37.4740   21.1470 C.ar  306  TYR306      0.0417
     81  CE2       12.4670   35.2220   21.1050 C.ar  306  TYR306      0.0417
     82  CZ        12.7010   36.5810   21.0760 C.ar  306  TYR306      0.1957
     83  OH        13.9830   37.0560   20.9760 O.3   306  TYR306     -0.2866
     84  N          8.2500   37.0130   18.5760 N.am  307  ARG307     -0.1980
     85  CA         7.8670   38.3180   18.0370 C.3   307  ARG307      0.1597
     86  C          6.7970   38.2330   16.9470 C.2   307  ARG307      0.2287
     87  O          5.9090   39.0790   16.8880 O.2   307  ARG307     -0.2864
     88  CB         9.1030   39.0710   17.5340 C.3   307  ARG307      0.0334
     89  CG        10.0120   39.5230   18.6810 C.3   307  ARG307      0.0492
     90  CD        11.0690   40.5280   18.2570 C.3   307  ARG307      0.2205
     91  NE        11.7330   41.1220   19.4200 N.pl3 307  ARG307     -0.0865
     92  CZ        12.9700   40.8320   19.8180 C.cat 307  ARG307      0.5346
     93  NH1       13.7070   39.9630   19.1430 N.pl3 307  ARG307      0.1354
     94  NH2       13.4790   41.4230   20.8910 N.pl3 307  ARG307      0.1354
     95  N          3.0320   39.4790   18.6580 N.3   316  ASP316     -0.1239
     96  CA         4.0690   38.8220   19.4450 C.3   316  ASP316      0.1674
     97  C          3.4580   37.7250   20.3110 C.2   316  ASP316      0.2266
     98  O          2.2400   37.5160   20.2920 O.2   316  ASP316     -0.2867
     99  CB         4.8530   39.8350   20.2900 C.3   316  ASP316      0.1410
    100  CG         3.9800   40.6310   21.2440 C.2   316  ASP316      0.3668
    101  OD1        3.1400   40.0380   21.9500 O.co2 316  ASP316     -0.2456
    102  OD2        4.1550   41.8670   21.3040 O.co2 316  ASP316     -0.2456
    103  N          3.0180   37.3650   23.4840 N.3   318  ILE318     -0.1245
    104  CA         2.1720   37.8200   24.5810 C.3   318  ILE318      0.1561
    105  C          0.7320   38.0250   24.1200 C.2   318  ILE318      0.2260
    106  O         -0.2130   37.6610   24.8210 O.2   318  ILE318     -0.2867
    107  CB         2.7090   39.1340   25.1880 C.3   318  ILE318      0.0252
    108  CG1        4.1570   38.9470   25.6590 C.3   318  ILE318      0.0019
    109  CG2        1.8120   39.6200   26.3270 C.3   318  ILE318      0.0019
    110  CD1        4.8020   40.2210   26.1820 C.3   318  ILE318      0.0001
    111  N         -0.8310   34.6360   23.6100 N.3   321  TYR321     -0.1227
    112  CA        -1.1940   34.0700   24.9010 C.3   321  TYR321      0.1736
    113  C         -2.5320   34.6060   25.4030 C.2   321  TYR321      0.2595
    114  O         -3.4200   33.8380   25.7680 O.2   321  TYR321     -0.2718
    115  CB        -0.0930   34.3580   25.9250 C.3   321  TYR321      0.0548
    116  CG        -0.4380   33.9260   27.3280 C.ar  321  TYR321     -0.0200
    117  CD1       -0.3100   32.5990   27.7160 C.ar  321  TYR321     -0.0009
    118  CD2       -0.8890   34.8430   28.2650 C.ar  321  TYR321     -0.0009
    119  CE1       -0.6250   32.1980   28.9960 C.ar  321  TYR321      0.0417
    120  CE2       -1.2000   34.4520   29.5430 C.ar  321  TYR321      0.0417
    121  CZ        -1.0720   33.1280   29.9030 C.ar  321  TYR321      0.1957
    122  OH        -1.3860   32.7340   31.1800 O.3   321  TYR321     -0.2866
    123  N         -2.6750   35.9270   25.4030 N.am  322  ASN322     -0.1974
    124  CA        -3.8730   36.5710   25.9300 C.3   322  ASN322      0.1688
    125  C         -5.1370   36.2720   25.1230 C.2   322  ASN322      0.2292
    126  O         -6.1530   35.8680   25.6830 O.2   322  ASN322     -0.2864
    127  CB        -3.6660   38.0880   26.0070 C.3   322  ASN322      0.1181
    128  CG        -2.7710   38.5000   27.1620 C.2   322  ASN322      0.2629
    129  OD1       -2.9350   38.0290   28.2870 O.2   322  ASN322     -0.2716
    130  ND2       -1.8180   39.3860   26.8880 N.am  322  ASN322     -0.0877
    131  N         -4.9380   31.4750   26.5200 N.3   326  VAL326     -0.1231
    132  CA        -5.5940   31.4650   27.8270 C.3   326  VAL326      0.1692
    133  C         -6.9870   30.8590   27.7430 C.2   326  VAL326      0.2592
    134  O         -7.3140   29.9440   28.4930 O.2   326  VAL326     -0.2718
    135  CB        -5.7080   32.8760   28.4300 C.3   326  VAL326      0.0266
    136  CG1       -6.5160   32.8350   29.7190 C.3   326  VAL326      0.0020
    137  CG2       -4.3350   33.4460   28.7010 C.3   326  VAL326      0.0020
    138  N         -7.7940   31.3590   26.8150 N.am  327  GLY327     -0.1957
    139  CA        -9.1540   30.8800   26.6510 C.3   327  GLY327      0.1869
    140  C         -9.2480   29.3710   26.5120 C.2   327  GLY327      0.2309
    141  O        -10.1470   28.7440   27.0700 O.2   327  GLY327     -0.2863
    142  N         -7.1470   27.5810   30.0100 N.3   330  LYS330     -0.1245
    143  CA        -7.3130   28.0850   31.3780 C.3   330  LYS330      0.1561
    144  C         -8.0910   27.1100   32.2580 C.2   330  LYS330      0.2260
    145  O         -7.8560   27.0370   33.4620 O.2   330  LYS330     -0.2867
    146  CB        -7.9960   29.4590   31.3870 C.3   330  LYS330      0.0271
    147  CG        -9.5080   29.4430   31.5310 C.3   330  LYS330      0.0035
    148  CD       -10.1130   30.7690   31.0900 C.3   330  LYS330      0.0206
    149  CE       -11.4760   31.0050   31.7260 C.3   330  LYS330      0.1093
    150  NZ       -11.4380   30.9020   33.2160 N.3   330  LYS330     -0.1314
    151  N         -5.5220   24.5560   33.2460 N.3   333  ALA333     -0.1231
    152  CA        -4.5440   25.1970   34.1170 C.3   333  ALA333      0.1694
    153  C         -5.1260   25.4610   35.5020 C.2   333  ALA333      0.2591
    154  O         -4.6250   24.9500   36.5040 O.2   333  ALA333     -0.2718
    155  CB        -4.0460   26.4920   33.4930 C.3   333  ALA333      0.0304
    156  N         -6.1850   26.2610   35.5500 N.am  334  LEU334     -0.1980
    157  CA        -6.8360   26.5950   36.8120 C.3   334  LEU334      0.1596
    158  C         -7.0310   25.3560   37.6780 C.2   334  LEU334      0.2287
    159  O         -7.4180   25.4550   38.8420 O.2   334  LEU334     -0.2864
    160  CB        -8.1830   27.2750   36.5560 C.3   334  LEU334      0.0297
    161  CG        -8.1350   28.7630   36.2030 C.3   334  LEU334      0.0022
    162  CD1       -9.5390   29.3440   36.1330 C.3   334  LEU334      0.0001
    163  CD2       -7.2830   29.5270   37.2050 C.3   334  LEU334      0.0001
@<TRIPOS>BOND
     1    87    86    2
     2    86    85    1
     3    88    85    1
     4    88    89    1
     5    85    84    1
     6    90    89    1
     7    90    91    1
     8    84    74   am
     9    95    96    1
    10    72    73    1
    11    93    92    1
    12    91    92    2
    13    96    99    1
    14    96    97    1
    15    74    73    1
    16    74    75    2
    17    92    94    1
    18    73    76    1
    19    99   100    1
    20    98    97    2
    21    83    82    1
    22    82    81   ar
    23    82    80   ar
    24    81    79   ar
    25    80    78   ar
    26    79    77   ar
    27   100   102   ar
    28   100   101   ar
    29    78    77   ar
    30    77    76    1
    31   103   104    1
    32   111   112    1
    33   105   104    1
    34   105   106    2
    35    71    70    1
    36   104   107    1
    37   112   113    1
    38   112   115    1
    39    70    69    1
    40   125   126    2
    41   125   124    1
    42   107   108    1
    43   107   109    1
    44    69    68    1
    45   113   123   am
    46   113   114    2
    47   123   124    1
    48    67    66    2
    49   108   110    1
    50    68    65    1
    51   115   116    1
    52   124   127    1
    53   127   128    1
    54    66    65    1
    55   140   139    1
    56   140   141    2
    57   131   132    1
    58    65    64    1
    59   139   138    1
    60   138   133   am
    61   130   128   am
    62   128   129    2
    63    52    54   ar
    64    52    50   ar
    65   116   117   ar
    66   116   118   ar
    67    54    53   ar
    68    50    49   ar
    69   117   119   ar
    70   133   132    1
    71   133   134    2
    72   132   135    1
    73   118   120   ar
    74   135   137    1
    75   135   136    1
    76    53    51   ar
    77    49    51   ar
    78    49    48    1
    79    47    46    2
    80    63    61   am
    81    58    57    2
    82   119   121   ar
    83    48    45    1
    84    60    61    1
    85    60    59    1
    86    56    57    1
    87    56    55    1
    88    56    59    1
    89    46    55   am
    90    46    45    1
    91   120   121   ar
    92    61    62    2
    93   121   122    1
    94    45    44    1
    95   142   143    1
    96     5     6    1
    97     5     2    1
    98   148   147    1
    99   148   149    1
   100    20    18    1
   101    19    17    1
   102     1     2    1
   103    44    39   am
   104   143   146    1
   105   143   144    1
   106   146   147    1
   107     8     6   ar
   108     8    10   ar
   109    17    18    1
   110    17    14    1
   111     6     7   ar
   112   149   150    1
   113     2     3    1
   114    40    39    2
   115    13    14    1
   116    13     3   am
   117    10    11   ar
   118   144   145    2
   119    39    38    1
   120     7     9   ar
   121    14    15    1
   122     3     4    2
   123    11     9   ar
   124    11    12    1
   125   151   152    1
   126    42    41    1
   127   155   152    1
   128    38    41    1
   129    38    37    1
   130    41    43    1
   131    15    16    2
   132   152   153    1
   133    27    28    1
   134    27    26    1
   135    28    29    1
   136   153   156   am
   137   153   154    2
   138   156   157    1
   139    25    26    1
   140    25    22    1
   141   162   161    1
   142   161   160    1
   143   161   163    1
   144   160   157    1
   145    21    22    1
   146    35    34    1
   147   157   158    1
   148    22    23    1
   149    36    34    1
   150   158   159    2
   151    30    23   am
   152    30    31    1
   153    34    31    1
   154    23    24    2
   155    31    32    1
   156    32    33    2
