@<TRIPOS>MOLECULE
tmp/4yp0A01.pdb
 104 102 0 0 0
SMALL
GASTEIGER

@<TRIPOS>ATOM
      1  N         70.6550   13.2570   16.5820 N.3    60  ILE60      -0.1245
      2  CA        70.5010   12.7280   17.9340 C.3    60  ILE60       0.1561
      3  C         70.7550   13.7910   19.0150 C.2    60  ILE60       0.2260
      4  O         70.1050   13.7820   20.0660 O.2    60  ILE60      -0.2867
      5  CB        71.4330   11.5060   18.1270 C.3    60  ILE60       0.0252
      6  CG1       70.9730   10.6380   19.2870 C.3    60  ILE60       0.0019
      7  CG2       72.8830   11.9290   18.3330 C.3    60  ILE60       0.0019
      8  CD1       71.6330    9.2870   19.2760 C.3    60  ILE60       0.0001
      9  N         69.3960   10.8070   24.9510 N.3    79  PRO79      -0.2116
     10  CA        68.9590   10.4870   23.6000 C.3    79  PRO79       0.1372
     11  C         69.4960    9.1500   23.0910 C.2    79  PRO79       0.2244
     12  O         69.0170    8.6600   22.0770 O.2    79  PRO79      -0.2868
     13  CB        69.5250   11.6350   22.7680 C.3    79  PRO79       0.0268
     14  CG        70.7450   12.0680   23.5020 C.3    79  PRO79       0.0207
     15  CD        70.5070   11.7740   24.9610 C.3    79  PRO79       0.0892
     16  N         65.1410    5.6250   25.6840 N.3   108  CYS108     -0.1221
     17  CA        65.8840    6.7840   25.2410 C.3   108  CYS108      0.1808
     18  C         64.8740    7.8100   24.7510 C.2   108  CYS108      0.2601
     19  O         63.7600    7.4490   24.3770 O.2   108  CYS108     -0.2717
     20  CB        66.8930    6.3920   24.1660 C.3   108  CYS108      0.0970
     21  SG        68.2540    5.3760   24.8180 S.3   108  CYS108     -0.0800
     22  N         65.2800    9.0780   24.7510 N.am  109  TRP109     -0.1962
     23  CA        64.3640   10.2100   24.6320 C.3   109  TRP109      0.1771
     24  C         64.7690   11.2440   23.5700 C.2   109  TRP109      0.2619
     25  O         65.9440   11.4190   23.2660 O.2   109  TRP109     -0.2715
     26  CB        64.2590   10.9070   25.9840 C.3   109  TRP109      0.0590
     27  CG        63.5120   10.0780   26.9680 C.ar  109  TRP109      0.0006
     28  CD1       64.0210    9.1000   27.7580 C.ar  109  TRP109      0.0946
     29  CD2       62.1160   10.1420   27.2510 C.ar  109  TRP109      0.0152
     30  NE1       63.0310    8.5430   28.5220 N.ar  109  TRP109     -0.2442
     31  CE2       61.8460    9.1630   28.2320 C.ar  109  TRP109      0.0810
     32  CE3       61.0640   10.9260   26.7710 C.ar  109  TRP109      0.0012
     33  CZ2       60.5680    8.9540   28.7460 C.ar  109  TRP109      0.0191
     34  CZ3       59.7960   10.7180   27.2790 C.ar  109  TRP109      0.0001
     35  CH2       59.5550    9.7430   28.2610 C.ar  109  TRP109      0.0015
     36  N         63.7720   11.8920   22.9880 N.am  110  ARG110     -0.1977
     37  CA        64.0150   12.9960   22.0620 C.3   110  ARG110      0.1597
     38  C         62.8960   14.0080   22.1660 C.2   110  ARG110      0.2287
     39  O         61.8030   13.6970   22.6370 O.2   110  ARG110     -0.2864
     40  CB        64.1460   12.5030   20.6130 C.3   110  ARG110      0.0334
     41  CG        62.8370   12.1100   19.9480 C.3   110  ARG110      0.0492
     42  CD        63.0650   11.5720   18.5460 C.3   110  ARG110      0.2205
     43  NE        61.8080   11.3760   17.8230 N.pl3 110  ARG110     -0.0865
     44  CZ        61.6680   10.6840   16.6870 C.cat 110  ARG110      0.5346
     45  NH1       60.4680   10.5820   16.1170 N.pl3 110  ARG110      0.1354
     46  NH2       62.7110   10.0910   16.1130 N.pl3 110  ARG110      0.1354
     47  N         57.1500   10.0970   17.8270 N.3   114  ARG114     -0.1231
     48  CA        57.3790    9.5630   19.1690 C.3   114  ARG114      0.1694
     49  C         58.5160   10.3150   19.8440 C.2   114  ARG114      0.2592
     50  O         59.5170   10.6340   19.2000 O.2   114  ARG114     -0.2718
     51  CB        57.7510    8.0780   19.1210 C.3   114  ARG114      0.0321
     52  CG        56.6330    7.1580   18.6780 C.3   114  ARG114      0.0489
     53  CD        56.9950    5.7010   18.9480 C.3   114  ARG114      0.2205
     54  NE        56.1320    4.7870   18.1990 N.pl3 114  ARG114     -0.0865
     55  CZ        54.8750    4.4780   18.5230 C.cat 114  ARG114      0.5346
     56  NH1       54.2920    5.0010   19.5990 N.pl3 114  ARG114      0.1354
     57  NH2       54.1880    3.6410   17.7550 N.pl3 114  ARG114      0.1354
     58  N         58.3760   10.5650   21.1440 N.am  115  ARG115     -0.1966
     59  CA        59.4460   11.1680   21.9360 C.3   115  ARG115      0.1729
     60  C         60.2190   10.1790   22.8120 C.2   115  ARG115      0.2616
     61  O         61.2160   10.5520   23.4290 O.2   115  ARG115     -0.2715
     62  CB        58.8820   12.2970   22.7700 C.3   115  ARG115      0.0348
     63  CG        58.5130   13.4840   21.8960 C.3   115  ARG115      0.0492
     64  CD        57.9180   14.6160   22.6890 C.3   115  ARG115      0.2205
     65  NE        57.9110   15.8380   21.8960 N.pl3 115  ARG115     -0.0865
     66  CZ        57.2960   16.9580   22.2420 C.cat 115  ARG115      0.5346
     67  NH1       56.6180   17.0290   23.3800 N.pl3 115  ARG115      0.1354
     68  NH2       57.3610   18.0150   21.4430 N.pl3 115  ARG115      0.1354
     69  N         59.7690    8.9260   22.8680 N.am  116  GLU116     -0.1963
     70  CA        60.5390    7.8890   23.5480 C.3   116  GLU116      0.1733
     71  C         60.5200    6.5740   22.7880 C.2   116  GLU116      0.2616
     72  O         59.6070    6.2830   22.0040 O.2   116  GLU116     -0.2715
     73  CB        60.0930    7.6980   25.0090 C.3   116  GLU116      0.0429
     74  CG        58.6330    7.3520   25.2400 C.3   116  GLU116      0.1163
     75  CD        58.2600    5.9400   24.8370 C.2   116  GLU116      0.3649
     76  OE1       57.0670    5.7290   24.5450 O.co2 116  GLU116     -0.2457
     77  OE2       59.1400    5.0470   24.8050 O.co2 116  GLU116     -0.2457
     78  N         61.5710    5.7990   23.0090 N.am  117  HIS117     -0.1973
     79  CA        61.6050    4.4250   22.5640 C.3   117  HIS117      0.1656
     80  C         62.5850    3.6610   23.4240 C.2   117  HIS117      0.2291
     81  O         63.4780    4.2400   24.0540 O.2   117  HIS117     -0.2864
     82  CB        61.9860    4.3180   21.0780 C.3   117  HIS117      0.0771
     83  CG        63.4260    4.6120   20.7900 C.ar  117  HIS117      0.0820
     84  ND1       64.1020    4.0370   19.7370 N.ar  117  HIS117     -0.2267
     85  CD2       64.3190    5.4210   21.4110 C.ar  117  HIS117      0.1154
     86  CE1       65.3460    4.4880   19.7150 C.ar  117  HIS117      0.1986
     87  NE2       65.5020    5.3330   20.7180 N.ar  117  HIS117     -0.2212
     88  N         62.0470    1.7980    7.9440 N.3   283  ARG283     -0.1245
     89  CA        63.3380    2.3900    8.2920 C.3   283  ARG283      0.1563
     90  C         64.2480    1.3370    8.9210 C.2   283  ARG283      0.2260
     91  O         63.8160    0.2190    9.1810 O.2   283  ARG283     -0.2867
     92  CB        63.1400    3.5240    9.2860 C.3   283  ARG283      0.0307
     93  CG        62.3870    4.7240    8.7380 C.3   283  ARG283      0.0489
     94  CD        61.4820    5.3070    9.8150 C.3   283  ARG283      0.2205
     95  NE        62.1430    5.2740   11.1260 N.pl3 283  ARG283     -0.0865
     96  CZ        61.5230    5.2030   12.3040 C.cat 283  ARG283      0.5346
     97  NH1       62.2490    5.1790   13.4190 N.pl3 283  ARG283      0.1354
     98  NH2       60.1920    5.1610   12.3840 N.pl3 283  ARG283      0.1354
     99  N         60.4510   -0.0790   18.1490 N.3   314  CYS314     -0.1235
    100  CA        59.2940    0.3740   17.3710 C.3   314  CYS314      0.1677
    101  C         59.2480   -0.1950   15.9410 C.2   314  CYS314      0.2270
    102  O         58.2920   -0.8690   15.5780 O.2   314  CYS314     -0.2867
    103  CB        59.2160    1.8980   17.3970 C.3   314  CYS314      0.0956
    104  SG        58.8650    2.5540   19.0630 S.3   314  CYS314     -0.0801
@<TRIPOS>BOND
     1    88    89    1
     2    89    90    1
     3    89    92    1
     4    93    92    1
     5    93    94    1
     6    90    91    2
     7    94    95    1
     8    95    96    2
     9    96    98    1
    10    96    97    1
    11   102   101    2
    12   101   100    1
    13    46    44    1
    14    45    44    1
    15     1     2    1
    16    44    43    2
    17   100   103    1
    18   100    99    1
    19   103   104    1
    20    57    55    1
    21    43    42    1
    22    47    48    1
    23     2     5    1
    24     2     3    1
    25     5     7    1
    26     5     6    1
    27    54    55    2
    28    54    53    1
    29    55    56    1
    30    42    41    1
    31    52    53    1
    32    52    51    1
    33     3     4    2
    34    51    48    1
    35    48    49    1
    36    50    49    2
    37     8     6    1
    38    86    84   ar
    39    86    87   ar
    40    84    83   ar
    41    49    58   am
    42    41    40    1
    43    40    37    1
    44    87    85   ar
    45    83    82    1
    46    83    85   ar
    47    82    79    1
    48    58    59    1
    49    68    66    1
    50    63    64    1
    51    63    62    1
    52    65    66    2
    53    65    64    1
    54    59    62    1
    55    59    60    1
    56    72    71    2
    57    37    38    1
    58    37    36    1
    59    12    11    2
    60    38    39    2
    61    66    67    1
    62    79    78    1
    63    79    80    1
    64    13    14    1
    65    13    10    1
    66    71    78   am
    67    71    70    1
    68    60    69   am
    69    60    61    2
    70    69    70    1
    71    36    24   am
    72    11    10    1
    73    25    24    2
    74    80    81    2
    75    14    15    1
    76    70    73    1
    77    24    23    1
    78    10     9    1
    79    20    21    1
    80    20    17    1
    81    19    18    2
    82    76    75   ar
    83    23    22    1
    84    23    26    1
    85    22    18   am
    86    18    17    1
    87    77    75   ar
    88    75    74    1
    89     9    15    1
    90    73    74    1
    91    17    16    1
    92    26    27    1
    93    32    29   ar
    94    32    34   ar
    95    27    29   ar
    96    27    28   ar
    97    29    31   ar
    98    34    35   ar
    99    28    30   ar
   100    31    30   ar
   101    31    33   ar
   102    35    33   ar
