@<TRIPOS>MOLECULE
tmp/4yp1A00.pdb
 119 115 0 0 0
SMALL
GASTEIGER

@<TRIPOS>ATOM
      1  N        -13.5390   -0.8450  -18.6710 N.3     9  SER9       -0.1202
      2  CA       -13.7460    0.2040  -19.6550 C.3     9  SER9        0.2020
      3  C        -14.6380    1.2840  -19.0680 C.2     9  SER9        0.2618
      4  O        -14.3530    2.4880  -19.1800 O.2     9  SER9       -0.2717
      5  CB       -14.4070   -0.3870  -20.9000 C.3     9  SER9        0.2103
      6  OG       -14.4220    0.5350  -21.9660 O.3     9  SER9       -0.2182
      7  N        -15.7180    0.8420  -18.4340 N.am   10  TYR10      -0.1975
      8  CA       -16.6820    1.7610  -17.8410 C.3    10  TYR10       0.1639
      9  C        -16.0450    2.5660  -16.7270 C.2    10  TYR10       0.2290
     10  O        -16.2410    3.7890  -16.6320 O.2    10  TYR10      -0.2864
     11  CB       -17.9030    1.0070  -17.2890 C.3    10  TYR10       0.0560
     12  CG       -19.1270    1.8760  -17.1130 C.ar   10  TYR10      -0.0198
     13  CD1      -19.7040    2.5360  -18.2050 C.ar   10  TYR10      -0.0009
     14  CD2      -19.7120    2.0440  -15.8670 C.ar   10  TYR10      -0.0009
     15  CE1      -20.8330    3.3340  -18.0510 C.ar   10  TYR10       0.0417
     16  CE2      -20.8500    2.8410  -15.7070 C.ar   10  TYR10       0.0417
     17  CZ       -21.4030    3.4780  -16.7980 C.ar   10  TYR10       0.1957
     18  OH       -22.5220    4.2670  -16.6350 O.3    10  TYR10      -0.2866
     19  N        -12.5500    4.5470  -18.4750 N.3    13  GLY13      -0.1210
     20  CA       -12.8060    5.4670  -19.5610 C.3    13  GLY13       0.1956
     21  C        -13.9750    6.3750  -19.2430 C.2    13  GLY13       0.2611
     22  O        -14.4070    7.1570  -20.0950 O.2    13  GLY13      -0.2717
     23  N        -14.4870    6.2910  -18.0170 N.am   14  TYR14      -0.1976
     24  CA       -15.6820    7.0590  -17.6910 C.3    14  TYR14       0.1639
     25  C        -15.8810    7.4070  -16.2200 C.2    14  TYR14       0.2290
     26  O        -15.8180    8.5820  -15.8520 O.2    14  TYR14      -0.2864
     27  CB       -16.9240    6.3690  -18.2430 C.3    14  TYR14       0.0560
     28  CG       -18.1780    7.1930  -18.0940 C.ar   14  TYR14      -0.0198
     29  CD1      -18.2160    8.5280  -18.4940 C.ar   14  TYR14      -0.0009
     30  CD2      -19.3270    6.6330  -17.5550 C.ar   14  TYR14      -0.0009
     31  CE1      -19.3600    9.2740  -18.3480 C.ar   14  TYR14       0.0417
     32  CE2      -20.4660    7.3600  -17.4120 C.ar   14  TYR14       0.0417
     33  CZ       -20.4840    8.6720  -17.8000 C.ar   14  TYR14       0.1957
     34  OH       -21.6580    9.3500  -17.6450 O.3    14  TYR14      -0.2866
     35  N         -8.4730   14.0370  -24.2040 N.3    79  ARG79      -0.1245
     36  CA        -8.4800   12.5890  -24.1040 C.3    79  ARG79       0.1563
     37  C         -7.8760   11.9530  -25.3440 C.2    79  ARG79       0.2260
     38  O         -8.3700   12.1580  -26.4450 O.2    79  ARG79      -0.2867
     39  CB        -9.9040   12.0860  -23.8880 C.3    79  ARG79       0.0307
     40  CG       -10.5150   12.5170  -22.5590 C.3    79  ARG79       0.0489
     41  CD        -9.9970   11.6650  -21.4130 C.3    79  ARG79       0.2205
     42  NE       -10.5530   10.3080  -21.4570 N.pl3  79  ARG79      -0.0865
     43  CZ        -9.8420    9.1780  -21.3920 C.cat  79  ARG79       0.5346
     44  NH1       -8.5180    9.2150  -21.2720 N.pl3  79  ARG79       0.1354
     45  NH2      -10.4620    8.0030  -21.4400 N.pl3  79  ARG79       0.1354
     46  N         -7.9350   13.6040  -28.6160 N.3    82  ILE82      -0.1245
     47  CA        -9.1480   14.3950  -28.7910 C.3    82  ILE82       0.1561
     48  C         -9.1730   15.5490  -27.7910 C.2    82  ILE82       0.2260
     49  O         -9.3080   15.3490  -26.5800 O.2    82  ILE82      -0.2867
     50  CB       -10.4380   13.5520  -28.6180 C.3    82  ILE82       0.0252
     51  CG1      -10.4700   12.4000  -29.6150 C.3    82  ILE82       0.0019
     52  CG2      -11.6860   14.4310  -28.7850 C.3    82  ILE82       0.0019
     53  CD1      -11.5630   11.3650  -29.3060 C.3    82  ILE82       0.0001
     54  N        -12.6240   16.5360  -25.1750 N.3    85  ARG85      -0.1231
     55  CA       -13.6320   15.4890  -25.2190 C.3    85  ARG85       0.1694
     56  C        -14.6630   15.8840  -24.1860 C.2    85  ARG85       0.2592
     57  O        -14.3140   16.2970  -23.0710 O.2    85  ARG85      -0.2718
     58  CB       -13.0530   14.1030  -24.9430 C.3    85  ARG85       0.0321
     59  CG       -14.1090   12.9990  -25.0560 C.3    85  ARG85       0.0489
     60  CD       -13.5080   11.5800  -25.1080 C.3    85  ARG85       0.2205
     61  NE       -14.4920   10.5820  -24.7030 N.pl3  85  ARG85      -0.0865
     62  CZ       -14.3360    9.2690  -24.8170 C.cat  85  ARG85       0.5346
     63  NH1      -13.2340    8.7540  -25.3470 N.pl3  85  ARG85       0.1354
     64  NH2      -15.2990    8.4640  -24.4030 N.pl3  85  ARG85       0.1354
     65  N        -15.9310   15.8200  -24.5870 N.am   86  VAL86      -0.1966
     66  CA       -17.0400   16.3410  -23.7820 C.3    86  VAL86       0.1727
     67  C        -17.7020   15.2320  -22.9940 C.2    86  VAL86       0.2616
     68  O        -18.0760   14.1950  -23.5550 O.2    86  VAL86      -0.2715
     69  CB       -18.1260   17.0050  -24.6780 C.3    86  VAL86       0.0290
     70  CG1      -19.1970   17.6700  -23.8290 C.3    86  VAL86       0.0023
     71  CG2      -17.5110   18.0000  -25.6480 C.3    86  VAL86       0.0023
     72  N        -17.8650   15.4460  -21.6960 N.am   87  TYR87      -0.1960
     73  CA       -18.5960   14.4840  -20.8800 C.3    87  TYR87       0.1771
     74  C        -19.8360   15.1480  -20.2940 C.2    87  TYR87       0.2620
     75  O        -19.7370   16.0910  -19.5060 O.2    87  TYR87      -0.2715
     76  CB       -17.6960   13.8820  -19.7980 C.3    87  TYR87       0.0574
     77  CG       -16.5510   13.0310  -20.3500 C.ar   87  TYR87      -0.0198
     78  CD1      -16.6330   11.6460  -20.3520 C.ar   87  TYR87      -0.0009
     79  CD2      -15.4000   13.6140  -20.8820 C.ar   87  TYR87      -0.0009
     80  CE1      -15.6100   10.8650  -20.8480 C.ar   87  TYR87       0.0417
     81  CE2      -14.3740   12.8380  -21.3950 C.ar   87  TYR87       0.0417
     82  CZ       -14.4830   11.4610  -21.3670 C.ar   87  TYR87       0.1957
     83  OH       -13.4830   10.6510  -21.8580 O.3    87  TYR87      -0.2866
     84  N        -21.0030   14.6380  -20.6850 N.am   88  SER88      -0.1950
     85  CA       -22.2780   15.2980  -20.4120 C.3    88  SER88       0.1924
     86  C        -23.3080   14.4010  -19.7020 C.2    88  SER88       0.2314
     87  O        -23.5160   13.2550  -20.0820 O.2    88  SER88      -0.2863
     88  CB       -22.8610   15.8160  -21.7360 C.3    88  SER88       0.2116
     89  OG       -23.9390   16.7060  -21.5160 O.3    88  SER88      -0.2180
     90  N        -29.0750    7.7180  -16.3750 N.3   107  GLU107     -0.1245
     91  CA       -28.6380    7.1730  -17.6530 C.3   107  GLU107      0.1567
     92  C        -28.5500    5.6740  -17.5190 C.2   107  GLU107      0.2260
     93  O        -28.6520    5.1380  -16.4090 O.2   107  GLU107     -0.2867
     94  CB       -27.2660    7.6990  -18.0170 C.3   107  GLU107      0.0388
     95  CG       -26.2290    7.3990  -16.9740 C.3   107  GLU107      0.1160
     96  CD       -24.9170    8.0760  -17.2750 C.2   107  GLU107      0.3649
     97  OE1      -24.8870    9.3190  -17.2410 O.co2 107  GLU107     -0.2457
     98  OE2      -23.9220    7.3630  -17.5500 O.co2 107  GLU107     -0.2457
     99  N        -24.1580    2.3020  -20.8370 N.3   110  THR110     -0.1204
    100  CA       -23.9530    2.1430  -22.2700 C.3   110  THR110      0.1979
    101  C        -23.3650    0.8030  -22.7450 C.2   110  THR110      0.2459
    102  O        -23.9010    0.2290  -23.6860 O.2   110  THR110     -0.2732
    103  CB       -23.1390    3.3330  -22.8480 C.3   110  THR110      0.1783
    104  OG1      -23.5750    4.5440  -22.2190 O.3   110  THR110     -0.2211
    105  CG2      -23.3090    3.4420  -24.3860 C.3   110  THR110      0.0376
    106  N        -22.2820    0.2920  -22.1140 N.am  111  PRO111     -0.2728
    107  CA       -21.6610   -0.8920  -22.7430 C.3   111  PRO111      0.1401
    108  C        -22.5540   -2.1640  -22.8250 C.2   111  PRO111      0.2269
    109  O        -22.1420   -3.1770  -23.4000 O.2   111  PRO111     -0.2865
    110  CB       -20.4220   -1.1440  -21.8750 C.3   111  PRO111      0.0296
    111  CG       -20.1190    0.1760  -21.2500 C.3   111  PRO111      0.0237
    112  CD       -21.4790    0.7780  -20.9760 C.3   111  PRO111      0.0939
    113  N        -23.2690   -2.8220  -26.3210 N.3   114  THR114     -0.1218
    114  CA       -22.1440   -3.5540  -26.8960 C.3   114  THR114      0.1862
    115  C        -22.2580   -5.0540  -26.6110 C.2   114  THR114      0.2287
    116  O        -21.9580   -5.8800  -27.4690 O.2   114  THR114     -0.2866
    117  CB       -20.7860   -3.0200  -26.3710 C.3   114  THR114      0.1770
    118  OG1      -20.6810   -1.6190  -26.6520 O.3   114  THR114     -0.2211
    119  CG2      -19.5900   -3.7720  -27.0070 C.3   114  THR114      0.0375
@<TRIPOS>BOND
     1    51    53    1
     2    51    50    1
     3    47    50    1
     4    47    46    1
     5    47    48    1
     6    52    50    1
     7    48    49    2
     8   116   115    2
     9   119   117    1
    10   114   115    1
    11   114   117    1
    12   114   113    1
    13   118   117    1
    14    38    37    2
    15    71    69    1
    16    63    62    1
    17    37    36    1
    18    55    54    1
    19    55    58    1
    20    55    56    1
    21    60    59    1
    22    60    61    1
    23    59    58    1
    24    62    61    2
    25    62    64    1
    26    69    70    1
    27    69    66    1
    28    65    56   am
    29    65    66    1
    30   105   103    1
    31    35    36    1
    32    56    57    2
    33    36    39    1
    34    39    40    1
    35    66    67    1
    36   102   101    2
    37    68    67    2
    38   109   108    2
    39    67    72   am
    40   103   100    1
    41   103   104    1
    42   108   107    1
    43   101   100    1
    44   101   106   am
    45   107   106    1
    46   107   110    1
    47    40    41    1
    48   100    99    1
    49   106   112    1
    50     6     5    1
    51   110   111    1
    52    83    82    1
    53    88    89    1
    54    88    85    1
    55    72    73    1
    56    42    41    1
    57    42    43    2
    58    45    43    1
    59    81    82   ar
    60    81    79   ar
    61    43    44    1
    62    82    80   ar
    63   111   112    1
    64     5     2    1
    65    79    77   ar
    66    73    74    1
    67    73    76    1
    68    80    78   ar
    69    84    85    1
    70    84    74   am
    71    85    86    1
    72    78    77   ar
    73    77    76    1
    74    74    75    2
    75    22    21    2
    76    87    86    2
    77     2     3    1
    78     2     1    1
    79    20    21    1
    80    20    19    1
    81    21    23   am
    82     4     3    2
    83     3     7   am
    84    29    31   ar
    85    29    28   ar
    86     7     8    1
    87    31    33   ar
    88    27    28    1
    89    27    24    1
    90    13    15   ar
    91    13    12   ar
    92    28    30   ar
    93    15    17   ar
    94    23    24    1
    95    94    91    1
    96    94    95    1
    97     8    11    1
    98     8     9    1
    99    33    34    1
   100    33    32   ar
   101    24    25    1
   102    91    92    1
   103    91    90    1
   104    30    32   ar
   105    98    96   ar
   106    92    93    2
   107    11    12    1
   108    96    97   ar
   109    96    95    1
   110    12    14   ar
   111    17    18    1
   112    17    16   ar
   113     9    10    2
   114    25    26    2
   115    14    16   ar
