@<TRIPOS>MOLECULE
tmp/4yp2A01.pdb
 104 100 0 0 0
SMALL
GASTEIGER

@<TRIPOS>ATOM
      1  N        -21.6480   19.5370   18.1570 N.3    69  VAL69      -0.1231
      2  CA       -21.3250   18.2060   18.7010 C.3    69  VAL69       0.1692
      3  C        -19.9090   17.7650   18.3060 C.2    69  VAL69       0.2592
      4  O        -19.5990   16.5880   18.3750 O.2    69  VAL69      -0.2718
      5  CB       -22.3730   17.1090   18.3310 C.3    69  VAL69       0.0266
      6  CG1      -22.4540   16.0870   19.4470 C.3    69  VAL69       0.0020
      7  CG2      -23.7640   17.7150   18.0970 C.3    69  VAL69       0.0020
      8  N        -19.0340   18.6980   17.9330 N.am   70  TYR70      -0.1962
      9  CA       -17.6440   18.3410   17.6600 C.3    70  TYR70       0.1771
     10  C        -16.8170   18.2690   18.9330 C.2    70  TYR70       0.2619
     11  O        -16.8620   19.1640   19.7830 O.2    70  TYR70      -0.2715
     12  CB       -16.9790   19.3190   16.6900 C.3    70  TYR70       0.0574
     13  CG       -17.2370   18.9980   15.2420 C.ar   70  TYR70      -0.0198
     14  CD1      -18.5240   19.0150   14.7270 C.ar   70  TYR70      -0.0009
     15  CD2      -16.1930   18.6720   14.3860 C.ar   70  TYR70      -0.0009
     16  CE1      -18.7570   18.7180   13.4070 C.ar   70  TYR70       0.0417
     17  CE2      -16.4180   18.3730   13.0600 C.ar   70  TYR70       0.0417
     18  CZ       -17.6990   18.4020   12.5700 C.ar   70  TYR70       0.1957
     19  OH       -17.9270   18.1040   11.2350 O.3    70  TYR70      -0.2866
     20  N        -16.0530   17.1870   19.0430 N.am   71  ILE71      -0.1977
     21  CA       -15.0550   17.0340   20.0890 C.3    71  ILE71       0.1596
     22  C        -13.8870   17.9690   19.8130 C.2    71  ILE71       0.2287
     23  O        -13.3400   17.9910   18.7140 O.2    71  ILE71      -0.2864
     24  CB       -14.5790   15.5820   20.1640 C.3    71  ILE71       0.0276
     25  CG1      -15.7220   14.7030   20.6500 C.3    71  ILE71       0.0022
     26  CG2      -13.3780   15.4520   21.1030 C.3    71  ILE71       0.0022
     27  CD1      -15.4540   13.2200   20.5340 C.3    71  ILE71       0.0001
     28  N         -7.2910   19.1640   19.3010 N.3    83  PHE83      -0.1241
     29  CA        -7.0570   19.1600   17.8680 C.3    83  PHE83       0.1605
     30  C         -6.3220   20.4130   17.4360 C.2    83  PHE83       0.2264
     31  O         -6.4220   21.4630   18.0750 O.2    83  PHE83      -0.2867
     32  CB        -8.3790   19.0350   17.1110 C.3    83  PHE83       0.0534
     33  CG        -8.9830   17.6570   17.1800 C.ar   83  PHE83      -0.0203
     34  CD1       -8.3250   16.5760   16.6300 C.ar   83  PHE83      -0.0042
     35  CD2      -10.2220   17.4440   17.7630 C.ar   83  PHE83      -0.0042
     36  CE1       -8.8740   15.3110   16.6830 C.ar   83  PHE83      -0.0003
     37  CE2      -10.7750   16.1740   17.8200 C.ar   83  PHE83      -0.0003
     38  CZ       -10.1020   15.1090   17.2740 C.ar   83  PHE83      -0.0000
     39  N         -9.5590   18.0540   13.6920 N.3   109  GLY109     -0.1210
     40  CA       -10.5780   17.1020   14.0880 C.3   109  GLY109      0.1956
     41  C        -11.6690   16.9180   13.0560 C.2   109  GLY109      0.2612
     42  O        -12.8620   17.1240   13.3580 O.2   109  GLY109     -0.2717
     43  N        -11.2690   16.6140   11.8240 N.am  110  ASN110     -0.1960
     44  CA       -12.2040   16.1520   10.8080 C.3   110  ASN110      0.1819
     45  C        -11.8080   14.7680   10.3030 C.2   110  ASN110      0.2621
     46  O        -10.6680   14.3180   10.4710 O.2   110  ASN110     -0.2715
     47  CB       -12.2970   17.1410    9.6520 C.3   110  ASN110      0.1195
     48  CG       -10.9820   17.3620    8.9700 C.2   110  ASN110      0.2630
     49  OD1      -10.4780   16.4810    8.2830 O.2   110  ASN110     -0.2716
     50  ND2      -10.4190   18.5470    9.1430 N.am  110  ASN110     -0.0877
     51  N        -12.7520   14.0800    9.6820 N.am  111  TYR111     -0.1974
     52  CA       -12.4950   12.7180    9.2410 C.3   111  TYR111      0.1639
     53  C        -11.3620   12.6060    8.2280 C.2   111  TYR111      0.2290
     54  O        -10.5740   11.6640    8.2980 O.2   111  TYR111     -0.2864
     55  CB       -13.7590   12.1160    8.6420 C.3   111  TYR111      0.0560
     56  CG       -14.8320   11.7730    9.6410 C.ar  111  TYR111     -0.0198
     57  CD1      -14.5200   11.1520   10.8430 C.ar  111  TYR111     -0.0009
     58  CD2      -16.1620   12.0230    9.3680 C.ar  111  TYR111     -0.0009
     59  CE1      -15.5000   10.8020   11.7490 C.ar  111  TYR111      0.0417
     60  CE2      -17.1560   11.6950   10.2860 C.ar  111  TYR111      0.0417
     61  CZ       -16.8130   11.0800   11.4700 C.ar  111  TYR111      0.1957
     62  OH       -17.7710   10.7000   12.3850 O.3   111  TYR111     -0.2866
     63  N        -15.5370    9.4960   18.1680 N.3   155  ILE155     -0.1245
     64  CA       -16.4470   10.4280   17.5070 C.3   155  ILE155      0.1561
     65  C        -17.7000    9.7030   17.0570 C.2   155  ILE155      0.2260
     66  O        -18.8210   10.2010   17.2470 O.2   155  ILE155     -0.2867
     67  CB       -15.7660   11.0870   16.2990 C.3   155  ILE155      0.0252
     68  CG1      -14.6820   12.0650   16.7710 C.3   155  ILE155      0.0019
     69  CG2      -16.7950   11.8260   15.4300 C.3   155  ILE155      0.0019
     70  CD1      -13.6340   12.4170   15.7120 C.3   155  ILE155      0.0001
     71  N        -20.6480   11.4600   19.3900 N.3   159  ALA159     -0.1231
     72  CA       -21.2710   12.5120   18.5810 C.3   159  ALA159      0.1694
     73  C        -22.1720   11.9890   17.4650 C.2   159  ALA159      0.2591
     74  O        -23.3000   12.4520   17.3170 O.2   159  ALA159     -0.2718
     75  CB       -20.1910   13.4230   17.9890 C.3   159  ALA159      0.0304
     76  N        -21.7170   11.0360   16.6590 N.am  160  GLU160     -0.1979
     77  CA       -22.5580   10.5750   15.5470 C.3   160  GLU160      0.1602
     78  C        -23.7860    9.7960   16.0240 C.2   160  GLU160      0.2287
     79  O        -24.8690    9.9200   15.4410 O.2   160  GLU160     -0.2864
     80  CB       -21.7690    9.7450   14.5330 C.3   160  GLU160      0.0415
     81  CG       -20.5710   10.4540   13.9040 C.3   160  GLU160      0.1163
     82  CD       -20.9290   11.5660   12.9150 C.2   160  GLU160      0.3649
     83  OE1      -22.1050   11.9980   12.8480 O.co2 160  GLU160     -0.2457
     84  OE2      -20.0070   12.0220   12.1950 O.co2 160  GLU160     -0.2457
     85  N        -26.2960   12.2870   17.0590 N.3   163  ARG163     -0.1245
     86  CA       -26.9430   12.9020   15.8940 C.3   163  ARG163      0.1563
     87  C        -27.9790   12.0140   15.2090 C.2   163  ARG163      0.2260
     88  O        -28.9720   12.5270   14.6660 O.2   163  ARG163     -0.2867
     89  CB       -25.8940   13.3180   14.8650 C.3   163  ARG163      0.0307
     90  CG       -24.9860   14.4510   15.2960 C.3   163  ARG163      0.0489
     91  CD       -23.7860   14.5260   14.3940 C.3   163  ARG163      0.2205
     92  NE       -22.8420   15.5750   14.7900 N.pl3 163  ARG163     -0.0865
     93  CZ       -21.5690   15.5900   14.4320 C.cat 163  ARG163      0.5346
     94  NH1      -21.0790   14.6000   13.6950 N.pl3 163  ARG163      0.1354
     95  NH2      -20.7830   16.5740   14.8400 N.pl3 163  ARG163      0.1354
     96  N        -23.2170   10.1250    8.4480 N.3   189  GLU189     -0.1245
     97  CA       -22.1330   10.9710    8.9440 C.3   189  GLU189      0.1567
     98  C        -21.7220   12.0130    7.9070 C.2   189  GLU189      0.2260
     99  O        -21.5600   13.1850    8.2260 O.2   189  GLU189     -0.2867
    100  CB       -20.9080   10.1250    9.2850 C.3   189  GLU189      0.0388
    101  CG       -21.1190    9.1340   10.4280 C.3   189  GLU189      0.1160
    102  CD       -19.9840    8.1440   10.5880 C.2   189  GLU189      0.3649
    103  OE1      -19.0520    8.1410    9.7560 O.co2 189  GLU189     -0.2457
    104  OE2      -20.0180    7.3650   11.5680 O.co2 189  GLU189     -0.2457
@<TRIPOS>BOND
     1    98    99    2
     2    98    97    1
     3    53    54    2
     4    53    52    1
     5    49    48    2
     6    96    97    1
     7    55    52    1
     8    55    56    1
     9    97   100    1
    10    48    50   am
    11    48    47    1
    12    52    51    1
    13   100   101    1
    14    58    56   ar
    15    58    60   ar
    16    56    57   ar
    17    47    44    1
    18    51    45   am
    19   103   102   ar
    20    60    61   ar
    21    45    46    2
    22    45    44    1
    23   101   102    1
    24   102   104   ar
    25    44    43    1
    26    57    59   ar
    27    19    18    1
    28    61    59   ar
    29    61    62    1
    30    43    41   am
    31    84    82   ar
    32    18    17   ar
    33    18    16   ar
    34    83    82   ar
    35    82    81    1
    36    41    42    2
    37    41    40    1
    38    17    15   ar
    39    16    14   ar
    40    39    40    1
    41    94    93    1
    42    81    80    1
    43    15    13   ar
    44    91    92    1
    45    91    90    1
    46    93    92    2
    47    93    95    1
    48    80    77    1
    49    88    87    2
    50    14    13   ar
    51    89    90    1
    52    89    86    1
    53    87    86    1
    54    13    12    1
    55    69    67    1
    56    79    78    2
    57    77    78    1
    58    77    76    1
    59    70    68    1
    60    86    85    1
    61    67    68    1
    62    67    64    1
    63    34    36   ar
    64    34    33   ar
    65    76    73   am
    66    36    38   ar
    67    12     9    1
    68    65    66    2
    69    65    64    1
    70    32    33    1
    71    32    29    1
    72    33    35   ar
    73    38    37   ar
    74    74    73    2
    75    30    29    1
    76    30    31    2
    77    73    72    1
    78    64    63    1
    79     9     8    1
    80     9    10    1
    81    35    37   ar
    82    29    28    1
    83     8     3   am
    84    75    72    1
    85     7     5    1
    86     1     2    1
    87     3     4    2
    88     3     2    1
    89     5     2    1
    90     5     6    1
    91    72    71    1
    92    23    22    2
    93    10    20   am
    94    10    11    2
    95    20    21    1
    96    22    21    1
    97    21    24    1
    98    24    25    1
    99    24    26    1
   100    27    25    1
