@<TRIPOS>MOLECULE
tmp/4yp8D00.pdb
 202 192 0 0 0
SMALL
GASTEIGER

@<TRIPOS>ATOM
      1  N         39.5830    7.6400   27.1170 N.3    22  ILE22      -0.1245
      2  CA        39.4180    6.1830   27.2220 C.3    22  ILE22       0.1561
      3  C         39.9540    5.4560   25.9710 C.2    22  ILE22       0.2260
      4  O         40.5760    4.3890   26.0980 O.2    22  ILE22      -0.2867
      5  CB        37.9930    5.7270   27.6320 C.3    22  ILE22       0.0252
      6  CG1       36.8910    6.2290   26.6660 C.3    22  ILE22       0.0019
      7  CG2       37.6990    6.0830   29.0790 C.3    22  ILE22       0.0019
      8  CD1       35.6950    5.2730   26.5310 C.3    22  ILE22       0.0001
      9  N         36.1770   10.7700   30.0150 N.3    29  MET29      -0.1230
     10  CA        35.0340   10.5690   29.1270 C.3    29  MET29       0.1702
     11  C         34.4550   11.8730   28.5320 C.2    29  MET29       0.2593
     12  O         33.9770   11.8650   27.3890 O.2    29  MET29      -0.2718
     13  CB        33.9630    9.6780   29.7810 C.3    29  MET29       0.0401
     14  CG        34.4330    8.2800   29.9700 C.3    29  MET29       0.0596
     15  SD        33.1790    7.0190   30.2890 S.3    29  MET29      -0.1393
     16  CE        32.3590    7.6630   31.7230 C.3    29  MET29       0.0692
     17  N         34.5340   12.9940   29.2870 N.am   30  GLY30      -0.1942
     18  CA        34.0530   14.2950   28.8370 C.3    30  GLY30       0.2014
     19  C         33.9280   15.3380   29.9390 C.2    30  GLY30       0.2639
     20  O         33.6650   14.9980   31.0980 O.2    30  GLY30      -0.2714
     21  N         34.1450   16.6200   29.5610 N.am   31  GLU31      -0.1963
     22  CA        34.0020   17.7980   30.4220 C.3    31  GLU31       0.1733
     23  C         32.5370   18.2350   30.2920 C.2    31  GLU31       0.2616
     24  O         32.0320   18.3260   29.1720 O.2    31  GLU31      -0.2715
     25  CB        34.9420   18.9310   29.9650 C.3    31  GLU31       0.0429
     26  CG        36.4050   18.7120   30.3090 C.3    31  GLU31       0.1163
     27  CD        37.3920   19.6090   29.5820 C.2    31  GLU31       0.3649
     28  OE1       37.3260   19.6710   28.3320 O.co2  31  GLU31      -0.2457
     29  OE2       38.2690   20.2040   30.2500 O.co2  31  GLU31      -0.2457
     30  N         31.8400   18.4600   31.4240 N.am   32  GLY32      -0.1955
     31  CA        30.4220   18.8130   31.3990 C.3    32  GLY32       0.1869
     32  C         29.9800   20.0080   32.2290 C.2    32  GLY32       0.2309
     33  O         29.0650   19.8580   33.0570 O.2    32  GLY32      -0.2863
     34  N         33.6180   13.8810   33.6960 N.3    37  VAL37      -0.1245
     35  CA        33.1300   12.4970   33.8560 C.3    37  VAL37       0.1561
     36  C         34.2510   11.5260   33.4330 C.2    37  VAL37       0.2260
     37  O         34.8350   11.6950   32.3630 O.2    37  VAL37      -0.2867
     38  CB        31.7920   12.2270   33.0990 C.3    37  VAL37       0.0252
     39  CG1       31.2220   10.8590   33.4580 C.3    37  VAL37       0.0019
     40  CG2       30.7670   13.3270   33.3870 C.3    37  VAL37       0.0019
     41  N         30.6250    5.4200   36.2210 N.3    48  ALA48      -0.1245
     42  CA        30.9440    6.7450   35.7270 C.3    48  ALA48       0.1562
     43  C         31.1390    7.6090   36.9650 C.2    48  ALA48       0.2260
     44  O         30.2810    7.6260   37.8440 O.2    48  ALA48      -0.2867
     45  CB        29.8260    7.2750   34.8730 C.3    48  ALA48       0.0290
     46  N         31.8040   11.3640   38.1720 N.3    50  LYS50      -0.1245
     47  CA        31.7810   12.7980   37.8770 C.3    50  LYS50       0.1561
     48  C         32.5430   13.5590   38.9860 C.2    50  LYS50       0.2260
     49  O         32.1200   13.5480   40.1420 O.2    50  LYS50      -0.2867
     50  CB        30.3310   13.2850   37.7780 C.3    50  LYS50       0.0271
     51  CG        30.1710   14.6190   37.0550 C.3    50  LYS50       0.0035
     52  CD        28.8980   15.3390   37.4870 C.3    50  LYS50       0.0206
     53  CE        27.6370   14.7180   36.9430 C.3    50  LYS50       0.1093
     54  NZ        26.4260   15.1950   37.6690 N.3    50  LYS50      -0.1314
     55  N         18.9450    8.4530   35.1490 N.3    79  VAL79      -0.1245
     56  CA        20.2310    7.8240   35.4540 C.3    79  VAL79       0.1561
     57  C         20.2090    7.3060   36.9180 C.2    79  VAL79       0.2260
     58  O         19.4890    7.8630   37.7360 O.2    79  VAL79      -0.2867
     59  CB        21.4360    8.7790   35.1590 C.3    79  VAL79       0.0252
     60  CG1       21.6670    9.7860   36.2830 C.3    79  VAL79       0.0019
     61  CG2       22.7050    7.9890   34.8600 C.3    79  VAL79       0.0019
     62  N         27.9120    6.8200   39.2910 N.3    95  TYR95      -0.1227
     63  CA        26.7280    6.3590   38.5890 C.3    95  TYR95       0.1736
     64  C         26.9630    5.0420   37.8690 C.2    95  TYR95       0.2595
     65  O         28.1140    4.6780   37.5660 O.2    95  TYR95      -0.2718
     66  CB        26.3440    7.3720   37.4990 C.3    95  TYR95       0.0548
     67  CG        26.1290    8.7920   37.9510 C.ar   95  TYR95      -0.0200
     68  CD1       27.1950    9.6900   38.0190 C.ar   95  TYR95      -0.0009
     69  CD2       24.8500    9.2710   38.2180 C.ar   95  TYR95      -0.0009
     70  CE1       27.0010   11.0110   38.4090 C.ar   95  TYR95       0.0417
     71  CE2       24.6440   10.5940   38.5900 C.ar   95  TYR95       0.0417
     72  CZ        25.7280   11.4520   38.7080 C.ar   95  TYR95       0.1957
     73  OH        25.5500   12.7480   39.0980 O.3    95  TYR95      -0.2866
     74  N         25.8450    4.3820   37.4900 N.am   96  VAL96      -0.1966
     75  CA        25.8550    3.2010   36.6430 C.3    96  VAL96       0.1727
     76  C         26.3980    3.7360   35.2970 C.2    96  VAL96       0.2616
     77  O         25.9570    4.7850   34.8280 O.2    96  VAL96      -0.2715
     78  CB        24.4180    2.5800   36.4870 C.3    96  VAL96       0.0290
     79  CG1       24.4000    1.4920   35.4220 C.3    96  VAL96       0.0023
     80  CG2       23.8920    2.0300   37.8150 C.3    96  VAL96       0.0023
     81  N         27.3770    3.0450   34.7290 N.am   97  TYR97      -0.1960
     82  CA        28.0060    3.3790   33.4630 C.3    97  TYR97       0.1771
     83  C         26.9750    3.3790   32.3360 C.2    97  TYR97       0.2619
     84  O         26.1350    2.4810   32.2620 O.2    97  TYR97      -0.2715
     85  CB        29.1410    2.3810   33.1970 C.3    97  TYR97       0.0574
     86  CG        29.9090    2.5900   31.9120 C.ar   97  TYR97      -0.0198
     87  CD1       30.6940    3.7320   31.7160 C.ar   97  TYR97      -0.0009
     88  CD2       29.9240    1.6090   30.9240 C.ar   97  TYR97      -0.0009
     89  CE1       31.4170    3.9130   30.5370 C.ar   97  TYR97       0.0417
     90  CE2       30.6610    1.7750   29.7550 C.ar   97  TYR97       0.0417
     91  CZ        31.4030    2.9280   29.5660 C.ar   97  TYR97       0.1957
     92  OH        32.1650    3.0490   28.4400 O.3    97  TYR97      -0.2866
     93  N         27.0330    4.4140   31.4760 N.am   98  MET98      -0.1964
     94  CA        26.1570    4.5600   30.3200 C.3    98  MET98       0.1722
     95  C         27.0320    4.3390   29.0880 C.2    98  MET98       0.2458
     96  O         27.6850    5.2740   28.6370 O.2    98  MET98      -0.2730
     97  CB        25.4590    5.9480   30.3090 C.3    98  MET98       0.0427
     98  CG        24.4570    6.1410   31.4370 C.3    98  MET98       0.0599
     99  SD        23.0030    5.0740   31.2870 S.3    98  MET98      -0.1393
    100  CE        23.1000    4.2360   32.8390 C.3    98  MET98       0.0692
    101  N         27.0660    3.0890   28.5500 N.am   99  PRO99      -0.2716
    102  CA        27.9500    2.7340   27.4140 C.3    99  PRO99       0.1536
    103  C         27.8910    3.6220   26.1720 C.2    99  PRO99       0.2599
    104  O         28.8860    3.7030   25.4530 O.2    99  PRO99      -0.2715
    105  CB        27.5640    1.2840   27.0980 C.3    99  PRO99       0.0310
    106  CG        27.0950    0.7530   28.3760 C.3    99  PRO99       0.0237
    107  CD        26.3080    1.9000   28.9900 C.3    99  PRO99       0.0939
    108  N         26.7410    4.2490   25.8910 N.am  100  ASN100     -0.1959
    109  CA        26.6470    5.1160   24.7420 C.3   100  ASN100      0.1819
    110  C         26.7640    6.5880   25.1100 C.2   100  ASN100      0.2622
    111  O         26.6850    7.4370   24.2250 O.2   100  ASN100     -0.2715
    112  CB        25.4110    4.8180   23.9250 C.3   100  ASN100      0.1195
    113  CG        25.4980    3.4930   23.2130 C.2   100  ASN100      0.2630
    114  OD1       26.3370    3.2920   22.3250 O.2   100  ASN100     -0.2716
    115  ND2       24.5740    2.5820   23.5230 N.am  100  ASN100     -0.0877
    116  N         27.0260    6.8980   26.4010 N.am  101  GLY101     -0.1940
    117  CA        27.1780    8.2720   26.9070 C.3   101  GLY101      0.2014
    118  C         26.0090    9.2610   26.6810 C.2   101  GLY101      0.2639
    119  O         24.8710    8.9730   27.0140 O.2   101  GLY101     -0.2714
    120  N         26.3050   10.4590   26.1890 N.am  102  SER102     -0.1949
    121  CA        25.2740   11.4810   26.0290 C.3   102  SER102      0.1924
    122  C         24.7800   11.6110   24.6260 C.2   102  SER102      0.2314
    123  O         25.5090   11.3190   23.6710 O.2   102  SER102     -0.2863
    124  CB        25.7520   12.8270   26.5710 C.3   102  SER102      0.2116
    125  OG        26.5370   13.5460   25.6380 O.3   102  SER102     -0.2180
    126  N         24.1310   14.3940   23.0210 N.3   104  LEU104     -0.1231
    127  CA        24.9440   15.4190   22.3710 C.3   104  LEU104      0.1693
    128  C         26.0890   14.7550   21.5800 C.2   104  LEU104      0.2592
    129  O         26.2080   14.9640   20.3680 O.2   104  LEU104     -0.2718
    130  CB        25.5210   16.3840   23.4290 C.3   104  LEU104      0.0284
    131  CG        26.3460   17.5980   22.9360 C.3   104  LEU104      0.0019
    132  CD1       25.4280   18.7090   22.3800 C.3   104  LEU104      0.0001
    133  CD2       27.1990   18.1720   24.0740 C.3   104  LEU104      0.0001
    134  N         26.8850   13.9090   22.2660 N.am  105  ASP105     -0.1960
    135  CA        28.0350   13.2330   21.6980 C.3   105  ASP105      0.1840
    136  C         27.6630   12.2830   20.5780 C.2   105  ASP105      0.2621
    137  O         28.3720   12.2310   19.5670 O.2   105  ASP105     -0.2715
    138  CB        28.8150   12.5290   22.7980 C.3   105  ASP105      0.1450
    139  CG        29.4250   13.4590   23.8210 C.2   105  ASP105      0.3671
    140  OD1       29.5560   14.6800   23.5180 O.co2 105  ASP105     -0.2456
    141  OD2       29.8470   12.9600   24.9020 O.co2 105  ASP105     -0.2456
    142  N         26.5290   11.5640   20.7400 N.am  106  ARG106     -0.1977
    143  CA        26.0350   10.6360   19.7490 C.3   106  ARG106      0.1597
    144  C         25.4890   11.3480   18.5290 C.2   106  ARG106      0.2287
    145  O         25.6060   10.8170   17.4290 O.2   106  ARG106     -0.2864
    146  CB        25.0080    9.6800   20.3790 C.3   106  ARG106      0.0334
    147  CG        25.5830    8.7850   21.4900 C.3   106  ARG106      0.0492
    148  CD        26.6140    7.7200   21.0520 C.3   106  ARG106      0.2205
    149  NE        27.9270    8.2890   20.6890 N.pl3 106  ARG106     -0.0865
    150  CZ        28.8210    8.7460   21.5680 C.cat 106  ARG106      0.5346
    151  NH1       28.5750    8.6880   22.8680 N.pl3 106  ARG106      0.1354
    152  NH2       29.9630    9.2630   21.1490 N.pl3 106  ARG106      0.1354
    153  N         34.0210   10.4840   18.7850 N.3   111  ASP111     -0.1239
    154  CA        34.8520    9.2810   18.8400 C.3   111  ASP111      0.1674
    155  C         34.5980    8.2450   17.7580 C.2   111  ASP111      0.2266
    156  O         35.0560    7.1070   17.8610 O.2   111  ASP111     -0.2867
    157  CB        34.9570    8.7020   20.2600 C.3   111  ASP111      0.1410
    158  CG        35.6320    9.6720   21.2130 C.2   111  ASP111      0.3668
    159  OD1       36.6480   10.2940   20.8120 O.co2 111  ASP111     -0.2456
    160  OD2       35.1280    9.8330   22.3530 O.co2 111  ASP111     -0.2456
    161  N         31.5760    7.1330   16.6540 N.3   113  THR113     -0.1218
    162  CA        30.3900    6.2950   16.8290 C.3   113  THR113      0.1862
    163  C         29.4850    6.4660   15.5760 C.2   113  THR113      0.2287
    164  O         29.5370    7.5260   14.9470 O.2   113  THR113     -0.2866
    165  CB        29.6910    6.5860   18.1720 C.3   113  THR113      0.1770
    166  OG1       29.2300    7.9450   18.2180 O.3   113  THR113     -0.2211
    167  CG2       30.5620    6.2650   19.3670 C.3   113  THR113      0.0375
    168  N         23.2710   17.1170   26.4300 N.3   148  ALA148     -0.1231
    169  CA        24.4300   16.6560   27.2090 C.3   148  ALA148      0.1694
    170  C         23.9920   15.9480   28.5210 C.2   148  ALA148      0.2592
    171  O         24.7430   15.1450   29.0510 O.2   148  ALA148     -0.2718
    172  CB        25.3580   17.8200   27.5000 C.3   148  ALA148      0.0304
    173  N         22.7640   16.2060   28.9960 N.am  149  ASN149     -0.1974
    174  CA        22.1450   15.6190   30.1890 C.3   149  ASN149      0.1688
    175  C         21.1540   14.4720   29.8910 C.2   149  ASN149      0.2292
    176  O         20.4510   14.0370   30.7920 O.2   149  ASN149     -0.2864
    177  CB        21.4480   16.7110   31.0240 C.3   149  ASN149      0.1181
    178  CG        22.4010   17.6630   31.6960 C.2   149  ASN149      0.2629
    179  OD1       23.6140   17.4610   31.7060 O.2   149  ASN149     -0.2716
    180  ND2       21.8800   18.7320   32.2630 N.am  149  ASN149     -0.0877
    181  N         21.4300   10.8060   28.7350 N.3   151  LEU151     -0.1245
    182  CA        22.4070    9.7390   28.5710 C.3   151  LEU151      0.1561
    183  C         21.7850    8.5200   27.9060 C.2   151  LEU151      0.2260
    184  O         20.5490    8.3570   27.9210 O.2   151  LEU151     -0.2867
    185  CB        23.0760    9.3820   29.8980 C.3   151  LEU151      0.0270
    186  CG        23.6250   10.5410   30.7270 C.3   151  LEU151      0.0019
    187  CD1       24.2260   10.0180   31.9600 C.3   151  LEU151      0.0001
    188  CD2       24.6750   11.3520   29.9790 C.3   151  LEU151      0.0001
    189  N         19.8760   12.9030   33.3400 N.3   161  SER161     -0.1202
    190  CA        20.8830   13.0400   34.3960 C.3   161  SER161      0.2020
    191  C         20.9980   14.4910   34.8370 C.2   161  SER161      0.2618
    192  O         20.3050   15.3370   34.2850 O.2   161  SER161     -0.2717
    193  CB        22.2330   12.4990   33.9320 C.3   161  SER161      0.2103
    194  OG        22.8370   13.3510   32.9770 O.3   161  SER161     -0.2182
    195  N         21.8800   14.7680   35.8300 N.am  162  ASP162     -0.1973
    196  CA        22.2260   16.0860   36.3900 C.3   162  ASP162      0.1709
    197  C         21.0730   16.8220   37.0410 C.2   162  ASP162      0.2293
    198  O         20.4930   17.7400   36.4570 O.2   162  ASP162     -0.2864
    199  CB        22.9880   16.9510   35.3710 C.3   162  ASP162      0.1436
    200  CG        24.4530   16.5840   35.2240 C.2   162  ASP162      0.3671
    201  OD1       25.3100   17.3590   35.7200 O.co2 162  ASP162     -0.2456
    202  OD2       24.7500   15.5270   34.5900 O.co2 162  ASP162     -0.2456
@<TRIPOS>BOND
     1   164   163    2
     2   163   162    1
     3   161   162    1
     4   162   165    1
     5   145   144    2
     6   155   156    2
     7   155   154    1
     8   165   166    1
     9   165   167    1
    10   144   143    1
    11   153   154    1
    12   154   157    1
    13   137   136    2
    14   143   146    1
    15   143   142    1
    16   157   158    1
    17   129   128    2
    18   146   147    1
    19   136   142   am
    20   136   135    1
    21   149   148    1
    22   149   150    2
    23   159   158   ar
    24   148   147    1
    25   152   150    1
    26   158   160   ar
    27   150   151    1
    28   128   134   am
    29   128   127    1
    30   135   134    1
    31   135   138    1
    32   114   113    2
    33   127   126    1
    34   127   130    1
    35   132   131    1
    36   138   139    1
    37   131   130    1
    38   131   133    1
    39   113   115   am
    40   113   112    1
    41   140   139   ar
    42   123   122    2
    43   139   141   ar
    44   112   109    1
    45   111   110    2
    46   122   121    1
    47   109   110    1
    48   109   108    1
    49   110   116   am
    50   104   103    2
    51   125   124    1
    52   108   103   am
    53     3     4    2
    54     3     2    1
    55   121   120    1
    56   121   124    1
    57   103   102    1
    58   120   118   am
    59   116   117    1
    60   168   169    1
    61     8     6    1
    62     6     5    1
    63   118   117    1
    64   118   119    2
    65   105   102    1
    66   105   106    1
    67     1     2    1
    68   169   172    1
    69   169   170    1
    70     2     5    1
    71    12    11    2
    72   102   101    1
    73     5     7    1
    74   183   184    2
    75   183   182    1
    76    28    27   ar
    77   106   107    1
    78    92    91    1
    79   170   173   am
    80   170   171    2
    81    11    10    1
    82    11    17   am
    83   101   107    1
    84   101    95   am
    85   182   181    1
    86   182   185    1
    87    96    95    2
    88    18    17    1
    89    18    19    1
    90   173   174    1
    91    95    94    1
    92    10    13    1
    93    10     9    1
    94    24    23    2
    95    21    19   am
    96    21    22    1
    97    91    90   ar
    98    91    89   ar
    99    27    29   ar
   100    27    26    1
   101    90    88   ar
   102    13    14    1
   103   175   174    1
   104   175   176    2
   105   185   186    1
   106    19    20    2
   107    25    26    1
   108    25    22    1
   109    14    15    1
   110   188   186    1
   111   174   177    1
   112    15    16    1
   113    23    22    1
   114    23    30   am
   115    97    94    1
   116    97    98    1
   117    94    93    1
   118    89    87   ar
   119   186   187    1
   120    88    86   ar
   121   177   178    1
   122    99    98    1
   123    99   100    1
   124    31    30    1
   125    31    32    1
   126    93    83   am
   127   178   179    2
   128   178   180   am
   129    87    86   ar
   130    86    85    1
   131    32    33    2
   132    84    83    2
   133    83    82    1
   134    37    36    2
   135   194   193    1
   136    38    40    1
   137    38    39    1
   138    38    35    1
   139    85    82    1
   140   189   190    1
   141    36    35    1
   142    82    81    1
   143    34    35    1
   144   193   190    1
   145   192   191    2
   146   190   191    1
   147   202   200   ar
   148    81    76   am
   149    77    76    2
   150   191   195   am
   151    61    59    1
   152    45    42    1
   153    55    56    1
   154    59    56    1
   155    59    60    1
   156   200   199    1
   157   200   201   ar
   158    76    75    1
   159   199   196    1
   160    79    78    1
   161    56    57    1
   162    42    41    1
   163    42    43    1
   164   195   196    1
   165   196   197    1
   166   198   197    2
   167    78    75    1
   168    78    80    1
   169    75    74    1
   170    57    58    2
   171    53    52    1
   172    53    54    1
   173    43    44    2
   174    51    52    1
   175    51    50    1
   176    74    64   am
   177    66    67    1
   178    66    63    1
   179    65    64    2
   180    50    47    1
   181    64    63    1
   182    47    46    1
   183    47    48    1
   184    67    68   ar
   185    67    69   ar
   186    68    70   ar
   187    69    71   ar
   188    70    72   ar
   189    63    62    1
   190    71    72   ar
   191    72    73    1
   192    48    49    2
