@<TRIPOS>MOLECULE
tmp/4yp9B00.pdb
 132 128 0 0 0
SMALL
GASTEIGER

@<TRIPOS>ATOM
      1  N         11.3760   32.7430    2.8510 N.3    52  PRO52      -0.2116
      2  CA        11.7710   31.8060    1.8010 C.3    52  PRO52       0.1372
      3  C         11.1820   32.3040    0.5030 C.2    52  PRO52       0.2244
      4  O         10.0930   32.8820    0.5290 O.2    52  PRO52      -0.2868
      5  CB        11.1060   30.4990    2.2240 C.3    52  PRO52       0.0268
      6  CG         9.9100   30.9200    2.9760 C.3    52  PRO52       0.0207
      7  CD        10.2940   32.1950    3.6890 C.3    52  PRO52       0.0892
      8  N          8.3860   29.9500   -4.5660 N.3    55  GLN55      -0.1245
      9  CA         7.3780   28.9190   -4.4000 C.3    55  GLN55       0.1566
     10  C          6.0300   29.3160   -4.9910 C.2    55  GLN55       0.2260
     11  O          5.7240   30.5020   -5.1550 O.2    55  GLN55      -0.2867
     12  CB         7.2450   28.4840   -2.9330 C.3    55  GLN55       0.0367
     13  CG         7.1180   29.5830   -1.9040 C.3    55  GLN55       0.0905
     14  CD         7.0290   29.0210   -0.4780 C.2    55  GLN55       0.2608
     15  OE1        6.1270   29.3620    0.2860 O.2    55  GLN55      -0.2717
     16  NE2        7.9650   28.1520   -0.1250 N.am   55  GLN55      -0.0878
     17  N          3.1730   28.7030   -3.6390 N.3    57  SER57      -0.1217
     18  CA         2.4430   29.3070   -2.5290 C.3    57  SER57       0.1889
     19  C          2.6510   30.8160   -2.5120 C.2    57  SER57       0.2288
     20  O          3.7800   31.3000   -2.5280 O.2    57  SER57      -0.2866
     21  CB         2.9130   28.7220   -1.1980 C.3    57  SER57       0.2089
     22  OG         2.2420   29.3300   -0.1100 O.3    57  SER57      -0.2183
     23  N          1.6780   32.7930   -0.0680 N.3    59  TYR59      -0.1227
     24  CA         1.4510   33.2580    1.2940 C.3    59  TYR59       0.1736
     25  C          2.3830   34.4140    1.6540 C.2    59  TYR59       0.2595
     26  O          1.9330   35.4600    2.1150 O.2    59  TYR59      -0.2718
     27  CB         1.6350   32.1090    2.2870 C.3    59  TYR59       0.0548
     28  CG         1.4930   32.5210    3.7270 C.ar   59  TYR59      -0.0200
     29  CD1        2.5920   32.9620    4.4500 C.ar   59  TYR59      -0.0009
     30  CD2        0.2740   32.4630    4.3650 C.ar   59  TYR59      -0.0009
     31  CE1        2.4760   33.3390    5.7690 C.ar   59  TYR59       0.0417
     32  CE2        0.1440   32.8330    5.6840 C.ar   59  TYR59       0.0417
     33  CZ         1.2530   33.2720    6.3830 C.ar   59  TYR59       0.1957
     34  OH         1.1440   33.6550    7.6970 O.3    59  TYR59      -0.2866
     35  N          3.6780   34.2150    1.4340 N.am   60  TRP60      -0.1976
     36  CA         4.6780   35.2100    1.7880 C.3    60  TRP60       0.1640
     37  C          4.4930   36.5120    0.9970 C.2    60  TRP60       0.2290
     38  O          4.3820   37.5940    1.5880 O.2    60  TRP60      -0.2864
     39  CB         6.0800   34.6280    1.5930 C.3    60  TRP60       0.0576
     40  CG         6.2490   33.3200    2.3080 C.ar   60  TRP60       0.0006
     41  CD1        6.2700   32.0850    1.7480 C.ar   60  TRP60       0.0946
     42  CD2        6.3960   33.1210    3.7200 C.ar   60  TRP60       0.0152
     43  NE1        6.4300   31.1210    2.7160 N.ar   60  TRP60      -0.2442
     44  CE2        6.5070   31.7330    3.9360 C.ar   60  TRP60       0.0810
     45  CE3        6.4480   33.9800    4.8210 C.ar   60  TRP60       0.0012
     46  CZ2        6.6620   31.1850    5.2060 C.ar   60  TRP60       0.0191
     47  CZ3        6.6070   33.4330    6.0820 C.ar   60  TRP60       0.0001
     48  CH2        6.7100   32.0500    6.2640 C.ar   60  TRP60       0.0015
     49  N          4.5530   32.4190   10.8160 N.3   137  ASN137     -0.1240
     50  CA         4.2170   31.0270   10.5200 C.3   137  ASN137      0.1653
     51  C          4.5810   30.0830   11.6680 C.2   137  ASN137      0.2266
     52  O          5.1250   28.9960   11.4730 O.2   137  ASN137     -0.2867
     53  CB         4.8990   30.5920    9.2180 C.3   137  ASN137      0.1155
     54  CG         4.1130   29.5340    8.4670 C.2   137  ASN137      0.2627
     55  OD1        2.8900   29.6100    8.3580 O.2   137  ASN137     -0.2716
     56  ND2        4.8160   28.5420    7.9410 N.am  137  ASN137     -0.0877
     57  N          6.3390   18.2820    4.4920 N.3   184  PHE184     -0.1241
     58  CA         7.1480   19.3940    4.0610 C.3   184  PHE184      0.1605
     59  C          8.6010   18.9020    4.1330 C.2   184  PHE184      0.2264
     60  O          8.8550   17.7000    4.1840 O.2   184  PHE184     -0.2867
     61  CB         6.8870   20.5670    5.0050 C.3   184  PHE184      0.0534
     62  CG         7.3190   21.8860    4.4750 C.ar  184  PHE184     -0.0203
     63  CD1        6.6980   22.4400    3.3690 C.ar  184  PHE184     -0.0042
     64  CD2        8.3390   22.5920    5.0960 C.ar  184  PHE184     -0.0042
     65  CE1        7.0920   23.6640    2.8790 C.ar  184  PHE184     -0.0003
     66  CE2        8.7400   23.8210    4.6120 C.ar  184  PHE184     -0.0003
     67  CZ         8.1100   24.3600    3.5040 C.ar  184  PHE184     -0.0000
     68  N          7.0880   22.3790   10.9240 N.3   189  ILE189     -0.1245
     69  CA         5.8940   22.3770   10.0710 C.3   189  ILE189      0.1561
     70  C          5.4680   20.9570    9.7840 C.2   189  ILE189      0.2260
     71  O          4.3080   20.5930    9.9730 O.2   189  ILE189     -0.2867
     72  CB         6.1410   23.0250    8.6880 C.3   189  ILE189      0.0252
     73  CG1        6.6690   24.4640    8.8210 C.3   189  ILE189      0.0019
     74  CG2        4.8580   22.9540    7.8210 C.3   189  ILE189      0.0019
     75  CD1        5.6390   25.5540    8.6910 C.3   189  ILE189      0.0001
     76  N          1.9640   19.8000   11.1800 N.3   193  ARG193     -0.1245
     77  CA         1.0120   19.5790   10.0980 C.3   193  ARG193      0.1563
     78  C          0.7850   18.1040    9.8050 C.2   193  ARG193      0.2260
     79  O         -0.3550   17.6550    9.7090 O.2   193  ARG193     -0.2867
     80  CB         1.4470   20.2750    8.8110 C.3   193  ARG193      0.0307
     81  CG         1.1460   21.7510    8.7860 C.3   193  ARG193      0.0489
     82  CD         1.1710   22.2880    7.3750 C.3   193  ARG193      0.2205
     83  NE         1.1380   23.7390    7.3890 N.pl3 193  ARG193     -0.0865
     84  CZ         1.3830   24.5110    6.3410 C.cat 193  ARG193      0.5346
     85  NH1        1.6800   23.9640    5.1660 N.pl3 193  ARG193      0.1354
     86  NH2        1.3350   25.8320    6.4680 N.pl3 193  ARG193      0.1354
     87  N          1.7850   20.7560    2.4000 N.3   243  SER243     -0.1202
     88  CA         1.9140   22.1270    1.9060 C.3   243  SER243      0.2020
     89  C          1.4540   22.3120    0.4620 C.2   243  SER243      0.2619
     90  O          1.3710   21.3600   -0.3210 O.2   243  SER243     -0.2717
     91  CB         3.3520   22.6200    2.0430 C.3   243  SER243      0.2103
     92  OG         4.1980   22.0690    1.0510 O.3   243  SER243     -0.2182
     93  N          1.1700   23.5690    0.1350 N.am  244  THR244     -0.1938
     94  CA         0.7340   23.9980   -1.1870 C.3   244  THR244      0.2028
     95  C          1.5800   23.4540   -2.3360 C.2   244  THR244      0.2642
     96  O          1.0690   22.7750   -3.2360 O.2   244  THR244     -0.2714
     97  CB         0.7600   25.5280   -1.2580 C.3   244  THR244      0.1808
     98  OG1       -0.0530   26.0590   -0.2060 O.3   244  THR244     -0.2208
     99  CG2        0.2450   26.0320   -2.6050 C.3   244  THR244      0.0379
    100  N          2.8680   23.7660   -2.3270 N.am  245  ASP245     -0.1971
    101  CA         3.7390   23.2990   -3.4040 C.3   245  ASP245      0.1709
    102  C          3.7380   21.7600   -3.4870 C.2   245  ASP245      0.2293
    103  O          3.5630   21.1760   -4.5590 O.2   245  ASP245     -0.2864
    104  CB         5.1610   23.8450   -3.2230 C.3   245  ASP245      0.1436
    105  CG         5.2400   25.3620   -3.4050 C.2   245  ASP245      0.3671
    106  OD1        4.4670   26.0920   -2.7470 O.co2 245  ASP245     -0.2456
    107  OD2        6.0750   25.8270   -4.2150 O.co2 245  ASP245     -0.2456
    108  N         -3.0890   23.0390    1.4670 N.3   267  TRP267     -0.1241
    109  CA        -2.8990   23.4790    2.8380 C.3   267  TRP267      0.1605
    110  C         -2.4990   24.9420    2.7930 C.2   267  TRP267      0.2264
    111  O         -1.3170   25.2630    2.6450 O.2   267  TRP267     -0.2867
    112  CB        -1.7960   22.6590    3.5180 C.3   267  TRP267      0.0550
    113  CG        -1.9790   22.5020    4.9940 C.ar  267  TRP267      0.0003
    114  CD1       -2.1380   21.3340    5.6630 C.ar  267  TRP267      0.0946
    115  CD2       -2.0250   23.5430    5.9840 C.ar  267  TRP267      0.0152
    116  NE1       -2.2760   21.5680    7.0030 N.ar  267  TRP267     -0.2442
    117  CE2       -2.2220   22.9150    7.2310 C.ar  267  TRP267      0.0810
    118  CE3       -1.9240   24.9410    5.9370 C.ar  267  TRP267      0.0012
    119  CZ2       -2.3220   23.6310    8.4280 C.ar  267  TRP267      0.0191
    120  CZ3       -2.0240   25.6510    7.1190 C.ar  267  TRP267      0.0001
    121  CH2       -2.2170   24.9920    8.3560 C.ar  267  TRP267      0.0015
    122  N         -6.7970   29.8920    4.7100 N.3   288  ARG288     -0.1245
    123  CA        -6.6420   30.8790    5.7680 C.3   288  ARG288      0.1563
    124  C         -7.0000   32.2860    5.2910 C.2   288  ARG288      0.2260
    125  O         -6.8700   32.6070    4.1100 O.2   288  ARG288     -0.2867
    126  CB        -5.2460   30.8170    6.3770 C.3   288  ARG288      0.0307
    127  CG        -4.1220   31.0330    5.4410 C.3   288  ARG288      0.0489
    128  CD        -2.8870   30.1910    5.7910 C.3   288  ARG288      0.2205
    129  NE        -2.1290   30.0100    4.5590 N.pl3 288  ARG288     -0.0865
    130  CZ        -1.0340   29.2860    4.4330 C.cat 288  ARG288      0.5346
    131  NH1       -0.5230   28.6660    5.4850 N.pl3 288  ARG288      0.1354
    132  NH2       -0.4500   29.2000    3.2460 N.pl3 288  ARG288      0.1354
@<TRIPOS>BOND
     1    11    10    2
     2    10     9    1
     3     8     9    1
     4   103   102    2
     5     9    12    1
     6   107   105   ar
     7    17    18    1
     8   102   101    1
     9   105   104    1
    10   105   106   ar
    11   101   104    1
    12   101   100    1
    13    96    95    2
    14    12    13    1
    15    99    97    1
    16    18    19    1
    17    18    21    1
    18    20    19    2
    19    95   100   am
    20    95    94    1
    21    13    14    1
    22    97    94    1
    23    97    98    1
    24    21    22    1
    25    94    93    1
    26    14    16   am
    27    14    15    2
    28    90    89    2
    29    23    24    1
    30    93    89   am
    31    89    88    1
    32     3     4    2
    33     3     2    1
    34    37    38    2
    35    37    36    1
    36    92    91    1
    37    24    25    1
    38    24    27    1
    39    35    25   am
    40    35    36    1
    41   108   109    1
    42    39    36    1
    43    39    40    1
    44    25    26    2
    45    41    40   ar
    46    41    43   ar
    47     2     5    1
    48     2     1    1
    49    88    91    1
    50    88    87    1
    51     5     6    1
    52    27    28    1
    53    40    42   ar
    54   111   110    2
    55    43    44   ar
    56   110   109    1
    57   109   112    1
    58     1     7    1
    59    65    63   ar
    60    65    67   ar
    61     6     7    1
    62   132   130    1
    63    63    62   ar
    64    67    66   ar
    65   112   113    1
    66    42    44   ar
    67    42    45   ar
    68    28    30   ar
    69    28    29   ar
    70    44    46   ar
    71    58    59    1
    72    58    57    1
    73    58    61    1
    74   125   124    2
    75    59    60    2
    76    30    32   ar
    77   130   129    2
    78   130   131    1
    79    29    31   ar
    80    62    61    1
    81    62    64   ar
    82   129   128    1
    83    66    64   ar
    84   122   123    1
    85    45    47   ar
    86   113   114   ar
    87   113   115   ar
    88    85    84    1
    89    46    48   ar
    90   124   123    1
    91   127   128    1
    92   127   126    1
    93   114   116   ar
    94    32    33   ar
    95   123   126    1
    96    31    33   ar
    97   118   115   ar
    98   118   120   ar
    99   115   117   ar
   100    47    48   ar
   101    84    86    1
   102    84    83    2
   103    33    34    1
   104   116   117   ar
   105   120   121   ar
   106   117   119   ar
   107    82    83    1
   108    82    81    1
   109    74    72    1
   110    56    54   am
   111   121   119   ar
   112    55    54    2
   113    54    53    1
   114    72    73    1
   115    72    69    1
   116    75    73    1
   117    81    80    1
   118    80    77    1
   119    53    50    1
   120    79    78    2
   121    70    71    2
   122    70    69    1
   123    78    77    1
   124    69    68    1
   125    77    76    1
   126    50    49    1
   127    50    51    1
   128    52    51    2
