@<TRIPOS>MOLECULE
tmp/4ypdA00.pdb
 84 77 0 0 0
SMALL
GASTEIGER

@<TRIPOS>ATOM
      1  N         29.1210   -0.9820   13.4070 N.3    18  LEU18      -0.1245
      2  CA        28.5120    0.2050   14.0150 C.3    18  LEU18       0.1561
      3  C         27.0980   -0.0520   14.5240 C.2    18  LEU18       0.2260
      4  O         26.6380    0.5730   15.4930 O.2    18  LEU18      -0.2867
      5  CB        28.5170    1.3550   13.0060 C.3    18  LEU18       0.0270
      6  CG        29.8960    1.6630   12.4060 C.3    18  LEU18       0.0019
      7  CD1       29.7890    2.6330   11.2360 C.3    18  LEU18       0.0001
      8  CD2       30.8590    2.1680   13.4810 C.3    18  LEU18       0.0001
      9  N         25.5900   -2.9830   10.1360 N.3    26  VAL26      -0.1245
     10  CA        26.2800   -1.8260    9.5780 C.3    26  VAL26       0.1561
     11  C         27.7500   -1.9090    9.9430 C.2    26  VAL26       0.2260
     12  O         28.0870   -2.0870   11.1000 O.2    26  VAL26      -0.2867
     13  CB        25.6820   -0.5060   10.0910 C.3    26  VAL26       0.0252
     14  CG1       26.4020    0.6880    9.4530 C.3    26  VAL26       0.0019
     15  CG2       24.1930   -0.4630    9.7850 C.3    26  VAL26       0.0019
     16  N         29.4630    4.1920    5.9170 N.3    39  ALA39      -0.1245
     17  CA        28.8500    3.1330    6.6990 C.3    39  ALA39       0.1562
     18  C         28.1340    2.2070    5.7340 C.2    39  ALA39       0.2260
     19  O         27.2480    2.6520    5.0110 O.2    39  ALA39      -0.2867
     20  CB        27.8690    3.7200    7.6900 C.3    39  ALA39       0.0290
     21  N         20.9210   11.4750    6.5770 N.3    76  ILE76      -0.1245
     22  CA        22.0910   10.8980    5.8760 C.3    76  ILE76       0.1561
     23  C         22.0220   10.9450    4.3310 C.2    76  ILE76       0.2260
     24  O         20.9390   11.0200    3.7240 O.2    76  ILE76      -0.2867
     25  CB        22.4110    9.4660    6.3220 C.3    76  ILE76       0.0252
     26  CG1       21.1310    8.6380    6.3970 C.3    76  ILE76       0.0019
     27  CG2       23.1400    9.4940    7.6620 C.3    76  ILE76       0.0019
     28  CD1       21.3650    7.1500    6.5410 C.3    76  ILE76       0.0001
     29  N         26.3640    4.2230    2.8750 N.3    92  LEU92      -0.1231
     30  CA        25.7540    5.4340    3.4250 C.3    92  LEU92       0.1693
     31  C         26.7720    6.3610    4.0380 C.2    92  LEU92       0.2592
     32  O         27.8510    5.9370    4.4250 O.2    92  LEU92      -0.2718
     33  CB        24.7520    5.0470    4.5400 C.3    92  LEU92       0.0284
     34  CG        23.5960    4.1740    4.0800 C.3    92  LEU92       0.0019
     35  CD1       22.9240    3.4630    5.2350 C.3    92  LEU92       0.0001
     36  CD2       22.5780    5.0040    3.3300 C.3    92  LEU92       0.0001
     37  N         26.4020    7.6320    4.1640 N.am   93  GLU93      -0.1966
     38  CA        27.2390    8.5870    4.8680 C.3    93  GLU93       0.1733
     39  C         27.5800    8.0710    6.2600 C.2    93  GLU93       0.2616
     40  O         26.6970    7.6280    7.0060 O.2    93  GLU93      -0.2715
     41  CB        26.4730    9.9180    4.9600 C.3    93  GLU93       0.0429
     42  CG        27.1890   11.0170    5.7030 C.3    93  GLU93       0.1163
     43  CD        26.4400   12.3320    5.6170 C.2    93  GLU93       0.3649
     44  OE1       25.2140   12.3090    5.4110 O.co2  93  GLU93      -0.2457
     45  OE2       27.0870   13.3750    5.7370 O.co2  93  GLU93      -0.2457
     46  N         28.8470    8.1820    6.6290 N.am   94  LEU94      -0.1963
     47  CA        29.3070    7.8070    7.9850 C.3    94  LEU94       0.1728
     48  C         29.0000    8.9270    8.9650 C.2    94  LEU94       0.2616
     49  O         29.3040   10.0830    8.6880 O.2    94  LEU94      -0.2715
     50  CB        30.7950    7.5620    7.9850 C.3    94  LEU94       0.0311
     51  CG        31.4120    7.1790    9.3300 C.3    94  LEU94       0.0022
     52  CD1       30.8020    5.8840    9.8480 C.3    94  LEU94       0.0001
     53  CD2       32.9120    7.0510    9.2150 C.3    94  LEU94       0.0001
     54  N         28.3340    8.5940   10.0640 N.am   95  VAL95      -0.1977
     55  CA        28.0610    9.5670   11.1170 C.3    95  VAL95       0.1596
     56  C         28.8160    9.0170   12.3440 C.2    95  VAL95       0.2287
     57  O         28.3030    8.1750   13.0570 O.2    95  VAL95      -0.2864
     58  CB        26.5550    9.7570   11.3470 C.3    95  VAL95       0.0276
     59  CG1       26.3020   10.9900   12.2020 C.3    95  VAL95       0.0022
     60  CG2       25.8450    9.9160   10.0080 C.3    95  VAL95       0.0022
     61  N         21.9660   10.1140   14.8880 N.3   145  MET145     -0.1245
     62  CA        23.3890    9.9960   15.1500 C.3   145  MET145      0.1570
     63  C         24.0540   11.3400   15.1370 C.2   145  MET145      0.2261
     64  O         23.6570   12.2440   14.4110 O.2   145  MET145     -0.2867
     65  CB        24.0560    9.0780   14.1610 C.3   145  MET145      0.0387
     66  CG        23.4380    7.6990   14.1720 C.3   145  MET145      0.0595
     67  SD        24.4400    6.5890   13.1890 S.3   145  MET145     -0.1393
     68  CE        25.7470    6.2570   14.3440 C.3   145  MET145      0.0692
     69  N         18.8310    8.8050   10.7650 N.3   159  ILE159     -0.1231
     70  CA        19.2040    7.6070   10.0270 C.3   159  ILE159      0.1692
     71  C         18.0330    6.6100    9.9900 C.2   159  ILE159      0.2592
     72  O         16.9630    6.8640   10.5470 O.2   159  ILE159     -0.2718
     73  CB        20.4430    6.9150   10.6300 C.3   159  ILE159      0.0266
     74  CG1       20.1460    6.3110   12.0050 C.3   159  ILE159      0.0019
     75  CG2       21.6110    7.8950   10.6740 C.3   159  ILE159      0.0020
     76  CD1       21.0620    5.1720   12.3660 C.3   159  ILE159      0.0001
     77  N         18.2590    5.4850    9.3300 N.am  160  ASP160     -0.1974
     78  CA        17.3760    4.3250    9.3170 C.3   160  ASP160      0.1709
     79  C         16.0150    4.5950    8.7000 C.2   160  ASP160      0.2293
     80  O         15.0010    4.7520    9.3790 O.2   160  ASP160     -0.2864
     81  CB        17.2240    3.6800   10.6840 C.3   160  ASP160      0.1436
     82  CG        16.6470    2.2980   10.5850 C.2   160  ASP160      0.3671
     83  OD1       16.1950    1.9330    9.4640 O.co2 160  ASP160     -0.2456
     84  OD2       16.6550    1.5850   11.6170 O.co2 160  ASP160     -0.2456
@<TRIPOS>BOND
     1    29    30    1
     2    36    34    1
     3    30    31    1
     4    30    33    1
     5    24    23    2
     6    31    37   am
     7    31    32    2
     8    34    33    1
     9    34    35    1
    10    37    38    1
    11    23    22    1
    12    38    41    1
    13    38    39    1
    14    41    42    1
    15    19    18    2
    16    44    43   ar
    17    43    42    1
    18    43    45   ar
    19    18    17    1
    20    22    25    1
    21    22    21    1
    22    16    17    1
    23    39    46   am
    24    39    40    2
    25    25    26    1
    26    25    27    1
    27    26    28    1
    28    46    47    1
    29    17    20    1
    30    47    50    1
    31    47    48    1
    32    50    51    1
    33    49    48    2
    34    79    78    1
    35    79    80    2
    36    48    54   am
    37    53    51    1
    38    78    77    1
    39    78    81    1
    40    51    52    1
    41    77    71   am
    42    14    13    1
    43    83    82   ar
    44    10    11    1
    45    10    13    1
    46    10     9    1
    47    15    13    1
    48    11    12    2
    49    71    70    1
    50    71    72    2
    51    60    58    1
    52    70    73    1
    53    70    69    1
    54    54    55    1
    55    82    81    1
    56    82    84   ar
    57    73    75    1
    58    73    74    1
    59    55    58    1
    60    55    56    1
    61     7     6    1
    62    58    59    1
    63    74    76    1
    64    56    57    2
    65     6     5    1
    66     6     8    1
    67     5     2    1
    68    67    66    1
    69    67    68    1
    70     1     2    1
    71     2     3    1
    72    65    66    1
    73    65    62    1
    74    64    63    2
    75     3     4    2
    76    61    62    1
    77    63    62    1
