@<TRIPOS>MOLECULE
tmp/4ypfA01.pdb
 107 104 0 0 0
SMALL
GASTEIGER

@<TRIPOS>ATOM
      1  N         70.6540   13.3400   16.5130 N.3    59  ILE59      -0.1245
      2  CA        70.4500   12.8300   17.8680 C.3    59  ILE59       0.1561
      3  C         70.7150   13.8770   18.9580 C.2    59  ILE59       0.2260
      4  O         70.1270   13.8050   20.0440 O.2    59  ILE59      -0.2867
      5  CB        71.3320   11.5820   18.0950 C.3    59  ILE59       0.0252
      6  CG1       70.8510   10.7820   19.2880 C.3    59  ILE59       0.0019
      7  CG2       72.7990   11.9500   18.2850 C.3    59  ILE59       0.0019
      8  CD1       71.4190    9.3860   19.2900 C.3    59  ILE59       0.0001
      9  N         69.3700   10.8410   24.8990 N.3    78  PRO78      -0.2116
     10  CA        68.9650   10.5220   23.5240 C.3    78  PRO78       0.1372
     11  C         69.4950    9.1730   23.0270 C.2    78  PRO78       0.2244
     12  O         68.9460    8.6100   22.0900 O.2    78  PRO78      -0.2868
     13  CB        69.5790   11.6630   22.7010 C.3    78  PRO78       0.0268
     14  CG        70.7470   12.1140   23.4910 C.3    78  PRO78       0.0207
     15  CD        70.3270   11.9660   24.9300 C.3    78  PRO78       0.0892
     16  N         65.2870    9.1750   24.7230 N.3   108  TRP108     -0.1227
     17  CA        64.3670   10.2850   24.5700 C.3   108  TRP108      0.1737
     18  C         64.7400   11.2690   23.4830 C.2   108  TRP108      0.2595
     19  O         65.8770   11.3110   23.0280 O.2   108  TRP108     -0.2718
     20  CB        64.2680   11.0200   25.8960 C.3   108  TRP108      0.0564
     21  CG        63.5870   10.2200   26.9200 C.ar  108  TRP108      0.0003
     22  CD1       64.1410    9.2550   27.6870 C.ar  108  TRP108      0.0946
     23  CD2       62.2080   10.2930   27.2940 C.ar  108  TRP108      0.0152
     24  NE1       63.2060    8.7240   28.5230 N.ar  108  TRP108     -0.2442
     25  CE2       62.0060    9.3410   28.3090 C.ar  108  TRP108      0.0810
     26  CE3       61.1260   11.0700   26.8750 C.ar  108  TRP108      0.0012
     27  CZ2       60.7640    9.1400   28.9140 C.ar  108  TRP108      0.0191
     28  CZ3       59.8870   10.8740   27.4800 C.ar  108  TRP108      0.0001
     29  CH2       59.7180    9.9170   28.4870 C.ar  108  TRP108      0.0015
     30  N         63.7480   12.0520   23.0750 N.am  109  ARG109     -0.1980
     31  CA        63.9430   13.1740   22.1580 C.3   109  ARG109      0.1597
     32  C         62.7890   14.1820   22.2710 C.2   109  ARG109      0.2287
     33  O         61.6980   13.8470   22.7240 O.2   109  ARG109     -0.2864
     34  CB        64.0770   12.6750   20.7110 C.3   109  ARG109      0.0334
     35  CG        62.7740   12.2140   20.0770 C.3   109  ARG109      0.0492
     36  CD        62.9970   11.6020   18.7030 C.3   109  ARG109      0.2205
     37  NE        61.7530   11.0570   18.1500 N.pl3 109  ARG109     -0.0865
     38  CZ        61.6390   10.4270   16.9770 C.cat 109  ARG109      0.5346
     39  NH1       60.4490    9.9780   16.5790 N.pl3 109  ARG109      0.1354
     40  NH2       62.7010   10.2440   16.1960 N.pl3 109  ARG109      0.1354
     41  N         56.7430   10.1940   18.0740 N.3   113  ARG113     -0.1231
     42  CA        57.1220    9.6470   19.3820 C.3   113  ARG113      0.1694
     43  C         58.3070   10.4100   19.9890 C.2   113  ARG113      0.2592
     44  O         59.2310   10.7800   19.2750 O.2   113  ARG113     -0.2718
     45  CB        57.4840    8.1540   19.2650 C.3   113  ARG113      0.0321
     46  CG        56.3000    7.2110   19.4310 C.3   113  ARG113      0.0489
     47  CD        56.5730    5.7870   18.9430 C.3   113  ARG113      0.2205
     48  NE        57.7380    5.1390   19.5590 N.pl3 113  ARG113     -0.0865
     49  CZ        57.9380    3.8150   19.6060 C.cat 113  ARG113      0.5346
     50  NH1       59.0340    3.3210   20.1810 N.pl3 113  ARG113      0.1354
     51  NH2       57.0420    2.9660   19.0950 N.pl3 113  ARG113      0.1354
     52  N         58.2770   10.6230   21.3040 N.am  114  ARG114     -0.1966
     53  CA        59.3870   11.2460   22.0220 C.3   114  ARG114      0.1729
     54  C         60.2150   10.2570   22.8400 C.2   114  ARG114      0.2616
     55  O         61.2370   10.6390   23.4070 O.2   114  ARG114     -0.2715
     56  CB        58.8670   12.3620   22.9220 C.3   114  ARG114      0.0348
     57  CG        58.4150   13.5850   22.1380 C.3   114  ARG114      0.0492
     58  CD        58.0280   14.7280   23.0540 C.3   114  ARG114      0.2205
     59  NE        57.3900   15.8110   22.3140 N.pl3 114  ARG114     -0.0865
     60  CZ        56.9160   16.9260   22.8620 C.cat 114  ARG114      0.5346
     61  NH1       57.0030   17.1250   24.1740 N.pl3 114  ARG114      0.1354
     62  NH2       56.3450   17.8460   22.0960 N.pl3 114  ARG114      0.1354
     63  N         59.7820    8.9950   22.9010 N.am  115  GLU115     -0.1963
     64  CA        60.5420    7.9650   23.5920 C.3   115  GLU115      0.1733
     65  C         60.5090    6.6180   22.8750 C.2   115  GLU115      0.2616
     66  O         59.5750    6.2980   22.1300 O.2   115  GLU115     -0.2715
     67  CB        60.0840    7.7950   25.0640 C.3   115  GLU115      0.0429
     68  CG        58.6110    7.4920   25.2980 C.3   115  GLU115      0.1163
     69  CD        58.2200    6.0630   24.9840 C.2   115  GLU115      0.3649
     70  OE1       57.0260    5.8180   24.7220 O.co2 115  GLU115     -0.2457
     71  OE2       59.0970    5.1870   24.9950 O.co2 115  GLU115     -0.2457
     72  N         61.5520    5.8400   23.1150 N.am  116  HIS116     -0.1973
     73  CA        61.5920    4.4550   22.6750 C.3   116  HIS116      0.1656
     74  C         62.5490    3.6860   23.5530 C.2   116  HIS116      0.2291
     75  O         63.4160    4.2660   24.1980 O.2   116  HIS116     -0.2864
     76  CB        61.9850    4.3490   21.1840 C.3   116  HIS116      0.0771
     77  CG        63.4200    4.6690   20.8800 C.ar  116  HIS116      0.0820
     78  ND1       64.0670    4.1560   19.7750 N.ar  116  HIS116     -0.2267
     79  CD2       64.3240    5.4610   21.5070 C.ar  116  HIS116      0.1154
     80  CE1       65.3050    4.6190   19.7320 C.ar  116  HIS116      0.1986
     81  NE2       65.4880    5.4120   20.7710 N.ar  116  HIS116     -0.2212
     82  N         65.5590    0.8500   23.4740 N.3   118  GLN118     -0.1245
     83  CA        66.6050    0.5270   22.5430 C.3   118  GLN118      0.1566
     84  C         67.5540   -0.4560   23.1660 C.2   118  GLN118      0.2260
     85  O         68.2910   -0.1410   24.1020 O.2   118  GLN118     -0.2867
     86  CB        67.3740    1.7860   22.1350 C.3   118  GLN118      0.0367
     87  CG        68.4050    1.5220   21.0350 C.3   118  GLN118      0.0905
     88  CD        69.3000    2.7190   20.7480 C.2   118  GLN118      0.2608
     89  OE1       70.0530    3.1740   21.6150 O.2   118  GLN118     -0.2717
     90  NE2       69.2640    3.1920   19.5190 N.am  118  GLN118     -0.0878
     91  N         61.9610    1.9790    7.9960 N.3   274  ARG274     -0.1245
     92  CA        63.2590    2.5300    8.3670 C.3   274  ARG274      0.1563
     93  C         64.1570    1.4470    8.9680 C.2   274  ARG274      0.2260
     94  O         63.7450    0.2930    9.1250 O.2   274  ARG274     -0.2867
     95  CB        63.0680    3.6770    9.3640 C.3   274  ARG274      0.0307
     96  CG        62.3110    4.8110    8.6850 C.3   274  ARG274      0.0489
     97  CD        62.3120    6.1220    9.5150 C.3   274  ARG274      0.2205
     98  NE        61.8970    5.9470   10.8970 N.pl3 274  ARG274     -0.0865
     99  CZ        60.6480    6.0070   11.2790 C.cat 274  ARG274      0.5346
    100  NH1       59.6930    6.2640   10.4150 N.pl3 274  ARG274      0.1354
    101  NH2       60.3480    5.6880   12.5160 N.pl3 274  ARG274      0.1354
    102  N         60.3200   -0.1320   18.0330 N.3   305  CYS305     -0.1235
    103  CA        59.1570    0.2550   17.2320 C.3   305  CYS305      0.1677
    104  C         59.1430   -0.3620   15.8400 C.2   305  CYS305      0.2270
    105  O         58.1810   -1.0330   15.4630 O.2   305  CYS305     -0.2867
    106  CB        59.1040    1.7630   17.0780 C.3   305  CYS305      0.0956
    107  SG        57.5520    2.3380   16.3550 S.3   305  CYS305     -0.0801
@<TRIPOS>BOND
     1    91    92    1
     2    92    93    1
     3    92    95    1
     4    96    95    1
     5    96    97    1
     6    93    94    2
     7    97    98    1
     8   100    99    1
     9    98    99    2
    10    99   101    1
    11   105   104    2
    12   104   103    1
    13    40    38    1
    14   107   106    1
    15     1     2    1
    16    39    38    1
    17    38    37    2
    18   106   103    1
    19   103   102    1
    20     2     5    1
    21     2     3    1
    22    41    42    1
    23     5     7    1
    24     5     6    1
    25    37    36    1
    26    36    35    1
    27    47    46    1
    28    47    48    1
    29     3     4    2
    30    51    49    1
    31    45    42    1
    32    45    46    1
    33    44    43    2
    34     6     8    1
    35    42    43    1
    36    90    88   am
    37    48    49    2
    38    49    50    1
    39    80    78   ar
    40    80    81   ar
    41    78    77   ar
    42    43    52   am
    43    35    34    1
    44    34    31    1
    45    88    87    1
    46    88    89    2
    47    81    79   ar
    48    77    76    1
    49    77    79   ar
    50    87    86    1
    51    76    73    1
    52    52    53    1
    53    53    54    1
    54    53    56    1
    55    12    11    2
    56    62    60    1
    57    66    65    2
    58    86    83    1
    59    57    56    1
    60    57    58    1
    61    31    32    1
    62    31    30    1
    63    32    33    2
    64    59    60    2
    65    59    58    1
    66    83    84    1
    67    83    82    1
    68    73    72    1
    69    73    74    1
    70    13    14    1
    71    13    10    1
    72    54    63   am
    73    54    55    2
    74    60    61    1
    75    65    72   am
    76    65    64    1
    77    63    64    1
    78    11    10    1
    79    19    18    2
    80    30    18   am
    81    84    85    2
    82    18    17    1
    83    14    15    1
    84    10     9    1
    85    74    75    2
    86    64    67    1
    87    17    16    1
    88    17    20    1
    89    70    69   ar
    90     9    15    1
    91    69    71   ar
    92    69    68    1
    93    67    68    1
    94    20    21    1
    95    26    23   ar
    96    26    28   ar
    97    21    23   ar
    98    21    22   ar
    99    23    25   ar
   100    28    29   ar
   101    22    24   ar
   102    25    24   ar
   103    25    27   ar
   104    29    27   ar
