@<TRIPOS>MOLECULE
tmp/4yplD01.pdb
 158 152 0 0 0
SMALL
GASTEIGER

@<TRIPOS>ATOM
      1  N         35.0430   46.0690   56.9990 N.3   232  GLN232     -0.1245
      2  CA        36.3310   45.3790   56.8620 C.3   232  GLN232      0.1566
      3  C         36.9930   45.5880   55.5010 C.2   232  GLN232      0.2260
      4  O         38.1960   45.3900   55.3730 O.2   232  GLN232     -0.2867
      5  CB        36.1920   43.8780   57.1670 C.3   232  GLN232      0.0367
      6  CG        35.0030   43.1990   56.4980 C.3   232  GLN232      0.0905
      7  CD        35.2630   41.7480   56.1670 C.2   232  GLN232      0.2608
      8  OE1       35.6330   40.9590   57.0410 O.2   232  GLN232     -0.2717
      9  NE2       35.0670   41.3810   54.9030 N.am  232  GLN232     -0.0878
     10  N         24.8530   26.5550   64.7600 N.3   356  GLY356     -0.1210
     11  CA        25.8830   27.5670   64.5580 C.3   356  GLY356      0.1956
     12  C         25.3630   28.7480   63.7860 C.2   356  GLY356      0.2612
     13  O         24.3460   28.6590   63.0930 O.2   356  GLY356     -0.2717
     14  N         26.0810   29.8540   63.9250 N.am  357  LEU357     -0.1965
     15  CA        25.7020   31.1230   63.3290 C.3   357  LEU357      0.1728
     16  C         26.8000   31.5480   62.3980 C.2   357  LEU357      0.2616
     17  O         27.9570   31.1860   62.6090 O.2   357  LEU357     -0.2715
     18  CB        25.5430   32.1950   64.3990 C.3   357  LEU357      0.0311
     19  CG        24.7280   31.8310   65.6350 C.3   357  LEU357      0.0022
     20  CD1       25.0500   32.7620   66.7860 C.3   357  LEU357      0.0001
     21  CD2       23.2440   31.8570   65.3080 C.3   357  LEU357      0.0001
     22  N         26.4390   32.3280   61.3850 N.am  358  ALA358     -0.1963
     23  CA        27.3990   32.8250   60.3980 C.3   358  ALA358      0.1728
     24  C         26.8450   34.0850   59.8200 C.2   358  ALA358      0.2616
     25  O         25.6590   34.3660   59.9820 O.2   358  ALA358     -0.2715
     26  CB        27.6130   31.8140   59.2880 C.3   358  ALA358      0.0334
     27  N         27.6950   34.8480   59.1460 N.am  359  TRP359     -0.1960
     28  CA        27.2500   36.1000   58.5700 C.3   359  TRP359      0.1771
     29  C         27.9700   36.5090   57.2870 C.2   359  TRP359      0.2620
     30  O         28.9300   35.9000   56.8490 O.2   359  TRP359     -0.2715
     31  CB        27.3040   37.2050   59.6400 C.3   359  TRP359      0.0590
     32  CG        28.6320   37.8630   59.8340 C.ar  359  TRP359      0.0006
     33  CD1       29.7640   37.3250   60.3990 C.ar  359  TRP359      0.0946
     34  CD2       28.9520   39.2080   59.5050 C.ar  359  TRP359      0.0152
     35  NE1       30.7800   38.2590   60.4150 N.ar  359  TRP359     -0.2442
     36  CE2       30.3080   39.4240   59.8680 C.ar  359  TRP359      0.0810
     37  CE3       28.2340   40.2510   58.9240 C.ar  359  TRP359      0.0012
     38  CZ2       30.9510   40.6470   59.6680 C.ar  359  TRP359      0.0191
     39  CZ3       28.8690   41.4600   58.7280 C.ar  359  TRP359      0.0001
     40  CH2       30.2180   41.6520   59.0990 C.ar  359  TRP359      0.0015
     41  N         27.4330   37.5500   56.6850 N.am  360  THR360     -0.1951
     42  CA        27.8940   38.0940   55.4280 C.3   360  THR360      0.1897
     43  C         27.5860   39.5690   55.5720 C.2   360  THR360      0.2313
     44  O         26.8510   39.9520   56.4830 O.2   360  THR360     -0.2863
     45  CB        27.0710   37.5060   54.2680 C.3   360  THR360      0.1794
     46  OG1       25.8000   37.0730   54.7710 O.3   360  THR360     -0.2208
     47  CG2       27.7690   36.3130   53.6690 C.3   360  THR360      0.0378
     48  N         22.9110   34.4250   59.4530 N.3   365  THR365     -0.1218
     49  CA        22.1460   33.1970   59.2170 C.3   365  THR365      0.1862
     50  C         22.3700   32.2130   60.3600 C.2   365  THR365      0.2287
     51  O         23.5070   32.0110   60.8070 O.2   365  THR365     -0.2866
     52  CB        22.5710   32.4850   57.9090 C.3   365  THR365      0.1770
     53  OG1       22.7730   33.4440   56.8680 O.3   365  THR365     -0.2211
     54  CG2       21.5180   31.5020   57.4650 C.3   365  THR365      0.0375
     55  N         22.6280   28.3740   61.1920 N.3   367  LEU367     -0.1245
     56  CA        23.1270   27.2730   60.3590 C.3   367  LEU367      0.1561
     57  C         23.4370   26.0700   61.2010 C.2   367  LEU367      0.2260
     58  O         24.0670   26.1790   62.2480 O.2   367  LEU367     -0.2867
     59  CB        24.3870   27.6630   59.5980 C.3   367  LEU367      0.0270
     60  CG        24.1680   28.4480   58.3040 C.3   367  LEU367      0.0019
     61  CD1       25.2830   29.4610   58.1380 C.3   367  LEU367      0.0001
     62  CD2       24.0770   27.5320   57.0950 C.3   367  LEU367      0.0001
     63  N         25.0880   22.4220   61.8700 N.3   369  ILE369     -0.1245
     64  CA        26.2460   21.6170   61.5240 C.3   369  ILE369      0.1561
     65  C         25.9760   20.1840   61.9150 C.2   369  ILE369      0.2260
     66  O         25.5150   19.9290   63.0220 O.2   369  ILE369     -0.2867
     67  CB        27.4940   22.1160   62.2490 C.3   369  ILE369      0.0252
     68  CG1       27.8610   23.5040   61.7210 C.3   369  ILE369      0.0019
     69  CG2       28.6440   21.1330   62.0720 C.3   369  ILE369      0.0019
     70  CD1       28.7090   24.3280   62.6640 C.3   369  ILE369      0.0001
     71  N         40.0540   27.4270   55.9640 N.3   389  VAL389     -0.1231
     72  CA        40.1950   27.7960   57.3730 C.3   389  VAL389      0.1692
     73  C         39.1430   27.1080   58.2270 C.2   389  VAL389      0.2591
     74  O         39.3660   26.8550   59.4050 O.2   389  VAL389     -0.2718
     75  CB        40.1040   29.3210   57.5830 C.3   389  VAL389      0.0266
     76  CG1       40.2840   29.6850   59.0550 C.3   389  VAL389      0.0020
     77  CG2       41.1590   30.0380   56.7550 C.3   389  VAL389      0.0020
     78  N         37.9940   26.8130   57.6310 N.am  390  MET390     -0.1979
     79  CA        36.9300   26.1160   58.3420 C.3   390  MET390      0.1605
     80  C         37.3130   24.6730   58.5700 C.2   390  MET390      0.2287
     81  O         37.0810   24.1420   59.6510 O.2   390  MET390     -0.2864
     82  CB        35.6030   26.1700   57.5740 C.3   390  MET390      0.0413
     83  CG        34.3990   25.6260   58.3420 C.3   390  MET390      0.0598
     84  SD        32.8900   26.5100   57.8860 S.3   390  MET390     -0.1393
     85  CE        31.6340   25.6490   58.8150 C.3   390  MET390      0.0692
     86  N         27.7520   20.9110   56.4050 N.3   424  VAL424     -0.1245
     87  CA        27.0260   22.1280   56.7050 C.3   424  VAL424      0.1561
     88  C         26.1410   22.5260   55.5090 C.2   424  VAL424      0.2260
     89  O         26.5290   23.3240   54.6720 O.2   424  VAL424     -0.2867
     90  CB        28.0000   23.2470   57.1190 C.3   424  VAL424      0.0252
     91  CG1       27.2440   24.5000   57.5410 C.3   424  VAL424      0.0019
     92  CG2       28.8690   22.7750   58.2710 C.3   424  VAL424      0.0019
     93  N         26.3650   26.6350   48.8070 N.3   429  THR429     -0.1204
     94  CA        26.7810   27.9670   49.2440 C.3   429  THR429      0.1979
     95  C         28.1610   27.9280   49.8910 C.2   429  THR429      0.2460
     96  O         28.3720   27.1920   50.8460 O.2   429  THR429     -0.2732
     97  CB        25.7790   28.5460   50.2540 C.3   429  THR429      0.1783
     98  OG1       24.5060   28.6940   49.6130 O.3   429  THR429     -0.2211
     99  CG2       26.2310   29.8980   50.7700 C.3   429  THR429      0.0376
    100  N         29.1070   28.7390   49.3870 N.am  430  PRO430     -0.2717
    101  CA        30.4250   28.7130   50.0090 C.3   430  PRO430      0.1535
    102  C         30.3610   29.2270   51.4330 C.2   430  PRO430      0.2598
    103  O         29.7960   30.3040   51.6880 O.2   430  PRO430     -0.2715
    104  CB        31.2680   29.6410   49.1270 C.3   430  PRO430      0.0310
    105  CG        30.4860   29.8090   47.8680 C.3   430  PRO430      0.0237
    106  CD        29.0480   29.7000   48.2770 C.3   430  PRO430      0.0939
    107  N         30.9210   28.4300   52.3400 N.am  431  LYS431     -0.1964
    108  CA        31.0220   28.7620   53.7580 C.3   431  LYS431      0.1728
    109  C         32.4690   28.6840   54.1880 C.2   431  LYS431      0.2616
    110  O         33.2210   27.9070   53.6360 O.2   431  LYS431     -0.2715
    111  CB        30.2250   27.7560   54.5700 C.3   431  LYS431      0.0311
    112  CG        28.7350   27.8010   54.2760 C.3   431  LYS431      0.0038
    113  CD        27.9870   26.7280   55.0310 C.3   431  LYS431      0.0206
    114  CE        28.2900   25.3760   54.4500 C.3   431  LYS431      0.1093
    115  NZ        27.6200   25.1730   53.1320 N.3   431  LYS431     -0.1314
    116  N         32.8590   29.4640   55.1800 N.am  432  ASP432     -0.1957
    117  CA        34.2480   29.4730   55.6140 C.3   432  ASP432      0.1840
    118  C         34.3910   30.2650   56.8980 C.2   432  ASP432      0.2623
    119  O         33.6370   31.1790   57.1190 O.2   432  ASP432     -0.2715
    120  CB        35.1160   30.0980   54.5160 C.3   432  ASP432      0.1450
    121  CG        36.5650   30.2740   54.9290 C.2   432  ASP432      0.3671
    122  OD1       36.9980   29.6170   55.8950 O.co2 432  ASP432     -0.2456
    123  OD2       37.2710   31.0710   54.2760 O.co2 432  ASP432     -0.2456
    124  N         35.3570   29.9070   57.7370 N.am  433  GLY433     -0.1940
    125  CA        35.6790   30.6730   58.9490 C.3   433  GLY433      0.1998
    126  C         35.9300   29.8310   60.2070 C.2   433  GLY433      0.2481
    127  O         35.4000   28.7230   60.3260 O.2   433  GLY433     -0.2729
    128  N         36.7250   30.3630   61.1730 N.am  434  PRO434     -0.2715
    129  CA        37.0690   29.6900   62.4410 C.3   434  PRO434      0.1536
    130  C         36.1060   29.8420   63.6290 C.2   434  PRO434      0.2599
    131  O         36.3530   29.2590   64.6800 O.2   434  PRO434     -0.2715
    132  CB        38.3820   30.3720   62.8220 C.3   434  PRO434      0.0310
    133  CG        38.1820   31.7660   62.3500 C.3   434  PRO434      0.0237
    134  CD        37.5290   31.5890   61.0060 C.3   434  PRO434      0.0939
    135  N         35.0430   30.6230   63.4910 N.am  435  SER435     -0.1936
    136  CA        34.1990   30.9530   64.6470 C.3   435  SER435      0.2055
    137  C         33.1960   29.8640   64.9480 C.2   435  SER435      0.2642
    138  O         32.3110   30.0340   65.7900 O.2   435  SER435     -0.2714
    139  CB        33.4840   32.2860   64.4360 C.3   435  SER435      0.2130
    140  OG        32.7180   32.3100   63.2480 O.3   435  SER435     -0.2179
    141  N         33.3550   28.7380   64.2650 N.am  436  ALA436     -0.1977
    142  CA        32.4650   27.6000   64.4270 C.3   436  ALA436      0.1597
    143  C         33.2010   26.4480   65.0590 C.2   436  ALA436      0.2287
    144  O         32.7620   25.3170   64.9650 O.2   436  ALA436     -0.2864
    145  CB        31.9290   27.1640   63.0770 C.3   436  ALA436      0.0319
    146  N         34.0940   37.4790   65.6580 N.3   473  GLY473     -0.1225
    147  CA        33.6200   38.5890   64.8410 C.3   473  GLY473      0.1811
    148  C         32.1240   38.6020   64.6230 C.2   473  GLY473      0.2280
    149  O         31.4460   37.6270   64.9020 O.2   473  GLY473     -0.2866
    150  N         25.0770   38.0630   63.9900 N.3   478  LYS478     -0.1245
    151  CA        24.7310   36.6590   64.2200 C.3   478  LYS478      0.1561
    152  C         23.6690   36.4890   65.2920 C.2   478  LYS478      0.2260
    153  O         22.8570   35.5720   65.2130 O.2   478  LYS478     -0.2867
    154  CB        25.9440   35.8620   64.6490 C.3   478  LYS478      0.0271
    155  CG        27.0510   35.7570   63.6220 C.3   478  LYS478      0.0035
    156  CD        28.2250   34.9970   64.2210 C.3   478  LYS478      0.0206
    157  CE        29.4530   35.0270   63.3360 C.3   478  LYS478      0.1093
    158  NZ        30.6690   34.7750   64.1550 N.3   478  LYS478     -0.1314
@<TRIPOS>BOND
     1   105   106    1
     2   105   104    1
     3   106   100    1
     4    93    94    1
     5   104   101    1
     6    94    95    1
     7    94    97    1
     8   100    95   am
     9   100   101    1
    10    98    97    1
    11    95    96    2
    12   101   102    1
    13    97    99    1
    14   102   103    2
    15   102   107   am
    16   107   108    1
    17   115   114    1
    18   110   109    2
    19    47    45    1
    20   108   109    1
    21   108   111    1
    22   109   116   am
    23    45    46    1
    24    45    42    1
    25   112   111    1
    26   112   113    1
    27   123   121   ar
    28   114   113    1
    29   120   121    1
    30   120   117    1
    31    89    88    2
    32     9     7   am
    33   121   122   ar
    34   116   117    1
    35     4     3    2
    36    42    43    1
    37    42    41    1
    38     3     2    1
    39    88    87    1
    40    43    44    2
    41   117   118    1
    42    71    72    1
    43     7     6    1
    44     7     8    2
    45    86    87    1
    46     6     5    1
    47    41    29   am
    48    87    90    1
    49    77    75    1
    50    30    29    2
    51     2     1    1
    52     2     5    1
    53    53    52    1
    54   118   119    2
    55   118   124   am
    56    62    60    1
    57    90    91    1
    58    90    92    1
    59    29    28    1
    60    72    75    1
    61    72    73    1
    62    54    52    1
    63    82    83    1
    64    82    79    1
    65    75    76    1
    66    78    73   am
    67    78    79    1
    68   124   125    1
    69    84    83    1
    70    84    85    1
    71    52    49    1
    72    61    60    1
    73    73    74    2
    74    60    59    1
    75    79    80    1
    76    80    81    2
    77    28    27    1
    78    28    31    1
    79    39    37   ar
    80    39    40   ar
    81    37    34   ar
    82   125   126    1
    83    40    38   ar
    84    27    24   am
    85    49    48    1
    86    49    50    1
    87    26    23    1
    88    34    32   ar
    89    34    36   ar
    90    59    56    1
    91    31    32    1
    92    38    36   ar
    93    24    25    2
    94    24    23    1
    95    32    33   ar
    96    36    35   ar
    97   126   127    2
    98   126   128   am
    99    56    55    1
   100    56    57    1
   101    50    51    2
   102    23    22    1
   103    33    35   ar
   104   134   128    1
   105   134   133    1
   106   128   129    1
   107    57    58    2
   108    22    16   am
   109    64    63    1
   110    64    65    1
   111    64    67    1
   112    68    67    1
   113    68    70    1
   114    65    66    2
   115    69    67    1
   116   133   132    1
   117    16    17    2
   118    16    15    1
   119   129   132    1
   120   129   130    1
   121   145   142    1
   122    13    12    2
   123   140   139    1
   124    15    14    1
   125    15    18    1
   126   157   158    1
   127   157   156    1
   128   135   130   am
   129   135   136    1
   130   155   156    1
   131   155   154    1
   132   130   131    2
   133    12    14   am
   134    12    11    1
   135   150   151    1
   136   151   154    1
   137   151   152    1
   138   141   142    1
   139   141   137   am
   140    18    19    1
   141   142   143    1
   142   139   136    1
   143    11    10    1
   144   148   147    1
   145   148   149    2
   146   136   137    1
   147   147   146    1
   148   137   138    2
   149   144   143    2
   150   153   152    2
   151    21    19    1
   152    19    20    1
