@<TRIPOS>MOLECULE
tmp/4yplD00.pdb
 169 164 0 0 0
SMALL
GASTEIGER

@<TRIPOS>ATOM
      1  N         10.1260   59.9840   59.5410 N.3    75  ASP75      -0.1225
      2  CA        10.5880   59.1760   58.3990 C.3    75  ASP75       0.1805
      3  C         11.0970   57.7800   58.7490 C.2    75  ASP75       0.2598
      4  O         11.4370   57.0260   57.8400 O.2    75  ASP75      -0.2718
      5  CB        11.6880   59.9130   57.6420 C.3    75  ASP75       0.1424
      6  CG        11.2410   61.2580   57.1550 C.2    75  ASP75       0.3668
      7  OD1       10.2680   61.8050   57.7180 O.co2  75  ASP75      -0.2456
      8  OD2       11.8680   61.7750   56.2100 O.co2  75  ASP75      -0.2456
      9  N         11.1860   57.4440   60.0380 N.am   76  HIS76      -0.1961
     10  CA        11.6290   56.1140   60.4640 C.3    76  HIS76       0.1787
     11  C         11.0880   55.7680   61.8410 C.2    76  HIS76       0.2620
     12  O         10.9130   56.6500   62.6780 O.2    76  HIS76      -0.2715
     13  CB        13.1570   56.0410   60.4840 C.3    76  HIS76       0.0785
     14  CG        13.7980   56.5380   59.2250 C.ar   76  HIS76       0.0821
     15  ND1       13.9580   57.8810   58.9600 N.ar   76  HIS76      -0.2267
     16  CD2       14.2870   55.8820   58.1450 C.ar   76  HIS76       0.1154
     17  CE1       14.5290   58.0290   57.7770 C.ar   76  HIS76       0.1986
     18  NE2       14.7380   56.8320   57.2610 N.ar   76  HIS76      -0.2212
     19  N         10.8140   54.4860   62.0650 N.am   77  TYR77      -0.1974
     20  CA        10.4110   53.9960   63.3880 C.3    77  TYR77       0.1639
     21  C         11.5990   53.3660   64.0730 C.2    77  TYR77       0.2290
     22  O         12.2890   52.5640   63.4650 O.2    77  TYR77      -0.2864
     23  CB         9.2970   52.9640   63.2860 C.3    77  TYR77       0.0560
     24  CG         9.1090   52.1330   64.5450 C.ar   77  TYR77      -0.0198
     25  CD1        9.9380   51.0610   64.8140 C.ar   77  TYR77      -0.0009
     26  CD2        8.1000   52.4170   65.4680 C.ar   77  TYR77      -0.0009
     27  CE1        9.7750   50.2900   65.9580 C.ar   77  TYR77       0.0417
     28  CE2        7.9290   51.6450   66.6170 C.ar   77  TYR77       0.0417
     29  CZ         8.7730   50.5780   66.8540 C.ar   77  TYR77       0.1957
     30  OH         8.6410   49.7900   67.9730 O.3    77  TYR77      -0.2866
     31  N         15.3120   53.1630   65.9910 N.3    79  LEU79      -0.1245
     32  CA        16.6080   53.7790   65.7690 C.3    79  LEU79       0.1561
     33  C         16.7770   54.8850   66.7910 C.2    79  LEU79       0.2260
     34  O         17.1390   56.0020   66.4470 O.2    79  LEU79      -0.2867
     35  CB        16.6970   54.3290   64.3390 C.3    79  LEU79       0.0270
     36  CG        16.1750   53.3590   63.2830 C.3    79  LEU79       0.0019
     37  CD1       15.9960   54.0380   61.9450 C.3    79  LEU79       0.0001
     38  CD2       17.1300   52.1930   63.1570 C.3    79  LEU79       0.0001
     39  N         21.5880   45.1520   53.6170 N.3   114  PRO114     -0.2102
     40  CA        20.6960   45.8650   52.7200 C.3   114  PRO114      0.1504
     41  C         19.2500   45.8290   53.1790 C.2   114  PRO114      0.2576
     42  O         18.7560   44.7840   53.6080 O.2   114  PRO114     -0.2718
     43  CB        20.8390   45.1120   51.3960 C.3   114  PRO114      0.0282
     44  CG        22.1150   44.3600   51.5120 C.3   114  PRO114      0.0208
     45  CD        22.2170   44.0010   52.9550 C.3   114  PRO114      0.0893
     46  N         18.5760   46.9740   53.0640 N.am  115  GLY115     -0.1943
     47  CA        17.1850   47.1230   53.4920 C.3   115  GLY115      0.2014
     48  C         16.9720   47.8690   54.8050 C.2   115  GLY115      0.2639
     49  O         15.8630   48.2780   55.0930 O.2   115  GLY115     -0.2714
     50  N         18.0170   48.0490   55.6080 N.am  116  VAL116     -0.1963
     51  CA        17.8810   48.7450   56.9070 C.3   116  VAL116      0.1727
     52  C         17.7000   50.2600   56.8070 C.2   116  VAL116      0.2617
     53  O         17.6080   50.9490   57.8200 O.2   116  VAL116     -0.2715
     54  CB        19.0640   48.4550   57.8650 C.3   116  VAL116      0.0290
     55  CG1       19.0150   47.0130   58.3310 C.3   116  VAL116      0.0023
     56  CG2       20.4180   48.7920   57.2310 C.3   116  VAL116      0.0023
     57  N         17.6600   50.7820   55.5880 N.am  117  GLY117     -0.1940
     58  CA        17.3240   52.1820   55.3890 C.3   117  GLY117      0.2014
     59  C         18.4450   53.1240   55.7340 C.2   117  GLY117      0.2639
     60  O         18.2150   54.1340   56.3650 O.2   117  GLY117     -0.2714
     61  N         19.6590   52.7780   55.3330 N.am  118  LYS118     -0.1963
     62  CA        20.7730   53.7120   55.3780 C.3   118  LYS118      0.1728
     63  C         20.4940   54.7720   54.3270 C.2   118  LYS118      0.2617
     64  O         20.3590   55.9580   54.6200 O.2   118  LYS118     -0.2715
     65  CB        22.1000   53.0120   55.0410 C.3   118  LYS118      0.0311
     66  CG        22.4620   51.8270   55.9200 C.3   118  LYS118      0.0038
     67  CD        23.7750   51.1880   55.4850 C.3   118  LYS118      0.0206
     68  CE        23.6810   50.4190   54.1670 C.3   118  LYS118      0.1093
     69  NZ        22.7720   49.2410   54.1720 N.3   118  LYS118     -0.1314
     70  N         20.3620   54.2920   53.0940 N.am  119  THR119     -0.1937
     71  CA        20.1690   55.1030   51.8980 C.3   119  THR119      0.2028
     72  C         19.0760   56.1550   52.0110 C.2   119  THR119      0.2642
     73  O         19.1180   57.1400   51.2840 O.2   119  THR119     -0.2714
     74  CB        19.8520   54.1890   50.6870 C.3   119  THR119      0.1808
     75  OG1       20.8940   53.2050   50.5470 O.3   119  THR119     -0.2208
     76  CG2       19.7310   54.9890   49.3860 C.3   119  THR119      0.0379
     77  N         18.1000   55.9390   52.8930 N.am  120  SER120     -0.1949
     78  CA        17.0200   56.9030   53.0930 C.3   120  SER120      0.1924
     79  C         17.1910   57.8010   54.3240 C.2   120  SER120      0.2314
     80  O         16.5680   58.8560   54.4060 O.2   120  SER120     -0.2863
     81  CB        15.6640   56.1860   53.1430 C.3   120  SER120      0.2116
     82  OG        15.5080   55.4250   54.3230 O.3   120  SER120     -0.2180
     83  N         18.7080   60.7420   53.0320 N.3   123  ARG123     -0.1245
     84  CA        17.6750   61.4040   52.2450 C.3   123  ARG123      0.1563
     85  C         16.8930   62.3600   53.1340 C.2   123  ARG123      0.2260
     86  O         16.6570   63.5120   52.7720 O.2   123  ARG123     -0.2867
     87  CB        16.7310   60.3730   51.6210 C.3   123  ARG123      0.0307
     88  CG        15.8400   60.9320   50.5170 C.3   123  ARG123      0.0489
     89  CD        14.8260   59.9070   50.0310 C.3   123  ARG123      0.2205
     90  NE        15.3710   59.0380   48.9860 N.pl3 123  ARG123     -0.0865
     91  CZ        15.0430   57.7590   48.8070 C.cat 123  ARG123      0.5346
     92  NH1       14.1740   57.1500   49.6160 N.pl3 123  ARG123      0.1354
     93  NH2       15.6060   57.0700   47.8180 N.pl3 123  ARG123      0.1354
     94  N         16.5070   44.5300   62.1740 N.3   250  TYR250     -0.1241
     95  CA        15.3010   44.6690   62.9880 C.3   250  TYR250      0.1605
     96  C         14.7610   43.3340   63.4760 C.2   250  TYR250      0.2264
     97  O         14.7620   42.3510   62.7300 O.2   250  TYR250     -0.2867
     98  CB        14.2120   45.3340   62.1670 C.3   250  TYR250      0.0534
     99  CG        14.5790   46.7100   61.7230 C.ar  250  TYR250     -0.0201
    100  CD1       14.3760   47.8040   62.5510 C.ar  250  TYR250     -0.0009
    101  CD2       15.1290   46.9230   60.4740 C.ar  250  TYR250     -0.0009
    102  CE1       14.7150   49.0750   62.1360 C.ar  250  TYR250      0.0417
    103  CE2       15.4760   48.1820   60.0580 C.ar  250  TYR250      0.0417
    104  CZ        15.2690   49.2500   60.8900 C.ar  250  TYR250      0.1957
    105  OH        15.6250   50.4930   60.4520 O.3   250  TYR250     -0.2866
    106  N          7.4520   49.2180   61.7420 N.3   258  ILE258     -0.1245
    107  CA         7.8810   49.8350   60.4860 C.3   258  ILE258      0.1561
    108  C          6.8390   49.5530   59.4100 C.2   258  ILE258      0.2260
    109  O          6.5180   50.4140   58.6070 O.2   258  ILE258     -0.2867
    110  CB         9.2470   49.2900   59.9970 C.3   258  ILE258      0.0252
    111  CG1       10.3980   49.7830   60.8890 C.3   258  ILE258      0.0019
    112  CG2        9.5310   49.7010   58.5550 C.3   258  ILE258      0.0019
    113  CD1       10.8550   48.7950   61.9370 C.3   258  ILE258      0.0001
    114  N          4.7370   52.6290   58.4800 N.3   262  TYR262     -0.1227
    115  CA         5.4510   53.1660   57.3050 C.3   262  TYR262      0.1736
    116  C          5.2850   52.4750   55.9490 C.2   262  TYR262      0.2595
    117  O          4.9910   53.1400   54.9620 O.2   262  TYR262     -0.2718
    118  CB         6.9290   53.2910   57.6210 C.3   262  TYR262      0.0548
    119  CG         7.1290   54.3550   58.6280 C.ar  262  TYR262     -0.0200
    120  CD1        7.2220   55.6700   58.2380 C.ar  262  TYR262     -0.0009
    121  CD2        7.1610   54.0620   59.9800 C.ar  262  TYR262     -0.0009
    122  CE1        7.3740   56.6680   59.1680 C.ar  262  TYR262      0.0417
    123  CE2        7.3130   55.0540   60.9250 C.ar  262  TYR262      0.0417
    124  CZ         7.4270   56.3580   60.5160 C.ar  262  TYR262      0.1957
    125  OH         7.5870   57.3390   61.4630 O.3   262  TYR262     -0.2866
    126  N          5.4830   51.1640   55.8810 N.am  263  LEU263     -0.1980
    127  CA         5.5540   50.4780   54.5790 C.3   263  LEU263      0.1596
    128  C          4.2300   49.9980   54.0030 C.2   263  LEU263      0.2287
    129  O          4.1070   49.8350   52.7900 O.2   263  LEU263     -0.2864
    130  CB         6.5010   49.2860   54.6520 C.3   263  LEU263      0.0297
    131  CG         7.9460   49.5750   55.0520 C.3   263  LEU263      0.0022
    132  CD1        8.6930   48.2580   55.1110 C.3   263  LEU263      0.0001
    133  CD2        8.6030   50.5740   54.1090 C.3   263  LEU263      0.0001
    134  N          2.4590   53.3350   52.7190 N.3   266  LYS266     -0.1245
    135  CA         3.2240   53.9830   51.6600 C.3   266  LYS266      0.1561
    136  C          2.8150   53.3400   50.3430 C.2   266  LYS266      0.2260
    137  O          2.3760   54.0160   49.4190 O.2   266  LYS266     -0.2867
    138  CB         4.7450   53.8760   51.8730 C.3   266  LYS266      0.0271
    139  CG         5.5600   54.2840   50.6440 C.3   266  LYS266      0.0035
    140  CD         7.0420   54.5220   50.9400 C.3   266  LYS266      0.0206
    141  CE         7.8240   54.8320   49.6610 C.3   266  LYS266      0.1093
    142  NZ         9.2800   55.0670   49.9010 N.3   266  LYS266     -0.1314
    143  N         14.2670   45.4890   55.6890 N.3   297  VAL297     -0.1231
    144  CA        12.8620   45.5100   55.2770 C.3   297  VAL297      0.1692
    145  C         12.5770   45.5930   53.7650 C.2   297  VAL297      0.2591
    146  O         11.4130   45.6330   53.3600 O.2   297  VAL297     -0.2718
    147  CB        12.1340   46.6520   55.9840 C.3   297  VAL297      0.0266
    148  CG1       12.2960   46.5160   57.4920 C.3   297  VAL297      0.0020
    149  CG2       12.6480   48.0050   55.5040 C.3   297  VAL297      0.0020
    150  N         13.6170   45.6000   52.9350 N.am  298  ARG298     -0.1980
    151  CA        13.4360   45.6780   51.4770 C.3   298  ARG298      0.1597
    152  C         12.5820   44.5170   50.9830 C.2   298  ARG298      0.2287
    153  O         11.7490   44.6680   50.0910 O.2   298  ARG298     -0.2864
    154  CB        14.7920   45.6540   50.7670 C.3   298  ARG298      0.0334
    155  CG        14.9590   46.6950   49.6630 C.3   298  ARG298      0.0492
    156  CD        16.4310   47.1060   49.5300 C.3   298  ARG298      0.2205
    157  NE        16.5990   48.3200   48.7310 N.pl3 298  ARG298     -0.0865
    158  CZ        17.7360   49.0060   48.6160 C.cat 298  ARG298      0.5346
    159  NH1       18.8370   48.6140   49.2560 N.pl3 298  ARG298      0.1354
    160  NH2       17.7670   50.1040   47.8620 N.pl3 298  ARG298      0.1354
    161  N          9.0120   45.3620   52.1190 N.3   301  GLU301     -0.1245
    162  CA         8.5140   46.4220   51.2410 C.3   301  GLU301      0.1567
    163  C          8.0640   45.8460   49.9130 C.2   301  GLU301      0.2260
    164  O          7.0280   46.2380   49.3780 O.2   301  GLU301     -0.2867
    165  CB         9.5810   47.4830   50.9790 C.3   301  GLU301      0.0388
    166  CG         9.0570   48.8830   51.1930 C.3   301  GLU301      0.1160
    167  CD         9.7170   49.9440   50.3390 C.2   301  GLU301      0.3649
    168  OE1       10.9210   49.8170   49.9770 O.co2 301  GLU301     -0.2457
    169  OE2        8.9990   50.9250   50.0440 O.co2 301  GLU301     -0.2457
@<TRIPOS>BOND
     1    93    91    1
     2   160   158    1
     3   158   157    2
     4   158   159    1
     5   157   156    1
     6    91    90    2
     7    91    92    1
     8    90    89    1
     9   164   163    2
    10    76    74    1
    11   137   136    2
    12   156   155    1
    13   141   142    1
    14   141   140    1
    15   155   154    1
    16   163   162    1
    17   168   167   ar
    18    89    88    1
    19   169   167   ar
    20   153   152    2
    21   167   166    1
    22   136   135    1
    23    88    87    1
    24    75    74    1
    25   139   140    1
    26   139   138    1
    27    74    71    1
    28   154   151    1
    29   165   166    1
    30   165   162    1
    31   152   151    1
    32   162   161    1
    33    73    72    2
    34    43    44    1
    35    43    40    1
    36   151   150    1
    37    44    45    1
    38    87    84    1
    39   135   138    1
    40   135   134    1
    41    71    72    1
    42    71    70    1
    43    72    77   am
    44    84    83    1
    45    84    85    1
    46    40    41    1
    47    40    39    1
    48    86    85    2
    49   129   128    2
    50    77    78    1
    51   150   145   am
    52    45    39    1
    53    46    41   am
    54    46    47    1
    55    78    81    1
    56    78    79    1
    57    70    63   am
    58    81    82    1
    59    41    42    2
    60   146   145    2
    61    47    48    1
    62   145   144    1
    63   128   127    1
    64   133   131    1
    65    68    69    1
    66    68    67    1
    67    79    80    2
    68    63    64    2
    69    63    62    1
    70   127   130    1
    71   127   126    1
    72   130   131    1
    73    48    49    2
    74    48    50   am
    75   117   116    2
    76    65    62    1
    77    65    66    1
    78   131   132    1
    79   144   143    1
    80   144   147    1
    81    61    62    1
    82    61    59   am
    83    58    57    1
    84    58    59    1
    85    67    66    1
    86   149   147    1
    87    57    52   am
    88    50    51    1
    89    59    60    2
    90   126   116   am
    91   116   115    1
    92   147   148    1
    93     8     6   ar
    94    52    51    1
    95    52    53    2
    96    51    54    1
    97     6     5    1
    98     6     7   ar
    99    56    54    1
   100    18    17   ar
   101    18    16   ar
   102   115   118    1
   103   115   114    1
   104   118   119    1
   105     5     2    1
   106    17    15   ar
   107     4     3    2
   108    54    55    1
   109    16    14   ar
   110   120   119   ar
   111   120   122   ar
   112     2     3    1
   113     2     1    1
   114   112   110    1
   115   109   108    2
   116   119   121   ar
   117     3     9   am
   118    15    14   ar
   119   122   124   ar
   120    14    13    1
   121   108   107    1
   122   121   123   ar
   123   110   107    1
   124   110   111    1
   125     9    10    1
   126   103   101   ar
   127   103   104   ar
   128   105   104    1
   129    10    13    1
   130    10    11    1
   131   101    99   ar
   132   107   106    1
   133   124   123   ar
   134   124   125    1
   135   111   113    1
   136   104   102   ar
   137    99    98    1
   138    99   100   ar
   139    11    19   am
   140    11    12    2
   141    37    36    1
   142    19    20    1
   143   102   100   ar
   144    98    95    1
   145    94    95    1
   146    97    96    2
   147    95    96    1
   148    38    36    1
   149    36    35    1
   150    23    20    1
   151    23    24    1
   152    20    21    1
   153    22    21    2
   154    35    32    1
   155    24    25   ar
   156    24    26   ar
   157    25    27   ar
   158    26    28   ar
   159    32    31    1
   160    32    33    1
   161    27    29   ar
   162    34    33    2
   163    28    29   ar
   164    29    30    1
