@<TRIPOS>MOLECULE
tmp/4ypmA00.pdb
 149 144 0 0 0
SMALL
GASTEIGER

@<TRIPOS>ATOM
      1  N         -6.6000  180.3390   34.1100 N.3   109  GLY109     -0.1210
      2  CA        -5.5090  180.6440   35.0180 C.3   109  GLY109      0.1956
      3  C         -5.8910  180.2570   36.4390 C.2   109  GLY109      0.2612
      4  O         -7.0170  179.8250   36.7050 O.2   109  GLY109     -0.2717
      5  N         -4.9430  180.4250   37.3520 N.am  110  LEU110     -0.1965
      6  CA        -5.0790  179.9620   38.7280 C.3   110  LEU110      0.1728
      7  C         -4.4450  181.0120   39.6430 C.2   110  LEU110      0.2616
      8  O         -3.3220  181.4420   39.4120 O.2   110  LEU110     -0.2715
      9  CB        -4.3630  178.6160   38.9230 C.3   110  LEU110      0.0311
     10  CG        -4.8120  177.4210   38.0690 C.3   110  LEU110      0.0022
     11  CD1       -3.7400  176.3500   38.0290 C.3   110  LEU110      0.0001
     12  CD2       -6.1450  176.8980   38.5710 C.3   110  LEU110      0.0001
     13  N         -5.1840  181.4120   40.6710 N.am  111  ALA111     -0.1963
     14  CA        -4.7020  182.4150   41.6140 C.3   111  ALA111      0.1728
     15  C         -4.7500  181.8540   43.0240 C.2   111  ALA111      0.2616
     16  O         -5.4090  180.8370   43.2880 O.2   111  ALA111     -0.2715
     17  CB        -5.5360  183.6750   41.5230 C.3   111  ALA111      0.0334
     18  N         -4.0610  182.5130   43.9380 N.am  112  TRP112     -0.1960
     19  CA        -4.1940  182.1180   45.3270 C.3   112  TRP112      0.1771
     20  C         -4.1820  183.2420   46.3090 C.2   112  TRP112      0.2620
     21  O         -3.8190  184.3720   45.9790 O.2   112  TRP112     -0.2715
     22  CB        -3.1730  181.0750   45.7020 C.3   112  TRP112      0.0590
     23  CG        -1.7640  181.5200   45.9530 C.ar  112  TRP112      0.0006
     24  CD1       -0.9640  182.2460   45.1360 C.ar  112  TRP112      0.0946
     25  CD2       -0.9640  181.1620   47.0860 C.ar  112  TRP112      0.0152
     26  NE1        0.3070  182.3740   45.6960 N.ar  112  TRP112     -0.2442
     27  CE2        0.3200  181.7170   46.8960 C.ar  112  TRP112      0.0810
     28  CE3       -1.2030  180.4060   48.2290 C.ar  112  TRP112      0.0012
     29  CZ2        1.3530  181.5470   47.8170 C.ar  112  TRP112      0.0191
     30  CZ3       -0.1820  180.2520   49.1500 C.ar  112  TRP112      0.0001
     31  CH2        1.0820  180.8100   48.9320 C.ar  112  TRP112      0.0015
     32  N         -4.6390  182.9070   47.5070 N.am  113  THR113     -0.1951
     33  CA        -4.7380  183.8350   48.6160 C.3   113  THR113      0.1897
     34  C         -4.3470  183.0460   49.8670 C.2   113  THR113      0.2313
     35  O         -4.1190  181.8350   49.7950 O.2   113  THR113     -0.2863
     36  CB        -6.1740  184.3480   48.8180 C.3   113  THR113      0.1794
     37  OG1       -6.9690  183.2900   49.3630 O.3   113  THR113     -0.2208
     38  CG2       -6.7920  184.8360   47.4900 C.3   113  THR113      0.0378
     39  N         -8.0880  179.8340   43.5140 N.3   118  THR118     -0.1218
     40  CA        -9.2280  180.2950   42.7580 C.3   118  THR118      0.1862
     41  C         -8.9130  180.1450   41.2620 C.2   118  THR118      0.2287
     42  O         -7.8570  180.5500   40.8060 O.2   118  THR118     -0.2866
     43  CB        -9.4960  181.7990   43.0430 C.3   118  THR118      0.1770
     44  OG1       -9.7030  182.0080   44.4440 O.3   118  THR118     -0.2211
     45  CG2      -10.7110  182.3000   42.3150 C.3   118  THR118      0.0375
     46  N         -9.3370  181.5340   37.5990 N.3   120  LEU120     -0.1245
     47  CA        -9.6530  182.8330   36.9720 C.3   120  LEU120      0.1561
     48  C         -9.4690  182.6650   35.4670 C.2   120  LEU120      0.2260
     49  O         -8.4870  182.0930   35.0420 O.2   120  LEU120     -0.2867
     50  CB        -8.7030  183.9480   37.4280 C.3   120  LEU120      0.0270
     51  CG        -8.7230  184.4180   38.8790 C.3   120  LEU120      0.0019
     52  CD1       -7.6540  185.4810   39.0820 C.3   120  LEU120      0.0001
     53  CD2      -10.0830  184.9450   39.2850 C.3   120  LEU120      0.0001
     54  N         -8.7190  184.3070   31.8740 N.3   122  ILE122     -0.1245
     55  CA        -8.1540  185.4610   31.2020 C.3   122  ILE122      0.1561
     56  C         -8.8900  185.5970   29.8650 C.2   122  ILE122      0.2260
     57  O         -9.0040  184.6160   29.1170 O.2   122  ILE122     -0.2867
     58  CB        -6.6400  185.3160   31.0120 C.3   122  ILE122      0.0252
     59  CG1       -5.8700  185.4630   32.3520 C.3   122  ILE122      0.0019
     60  CG2       -6.1310  186.4090   30.0980 C.3   122  ILE122      0.0019
     61  CD1       -6.3350  184.5610   33.4510 C.3   122  ILE122      0.0001
     62  N          2.6340  194.8060   38.4590 N.3   142  VAL142     -0.1231
     63  CA         3.3780  193.5990   38.0990 C.3   142  VAL142      0.1692
     64  C          2.6080  192.7370   37.0750 C.2   142  VAL142      0.2591
     65  O          3.1830  192.2090   36.1100 O.2   142  VAL142     -0.2718
     66  CB         3.7150  192.7780   39.3600 C.3   142  VAL142      0.0266
     67  CG1        4.2100  191.3830   38.9950 C.3   142  VAL142      0.0020
     68  CG2        4.7770  193.5170   40.1940 C.3   142  VAL142      0.0020
     69  N          1.3120  192.5600   37.3010 N.am  143  MET143     -0.1979
     70  CA         0.5240  191.7730   36.3550 C.3   143  MET143      0.1605
     71  C          0.4170  192.4650   34.9930 C.2   143  MET143      0.2287
     72  O          0.4650  191.8170   33.9360 O.2   143  MET143     -0.2864
     73  CB        -0.8330  191.4540   36.9290 C.3   143  MET143      0.0413
     74  CG        -1.6660  190.5100   36.0880 C.3   143  MET143      0.0598
     75  SD        -3.0960  190.0040   37.0580 S.3   143  MET143     -0.1393
     76  CE        -4.0120  189.0680   35.8220 C.3   143  MET143      0.0692
     77  N         -9.6260  190.4930   32.9980 N.3   177  VAL177     -0.1245
     78  CA        -9.7160  189.3850   33.9240 C.3   177  VAL177      0.1561
     79  C        -10.8600  189.6250   34.8890 C.2   177  VAL177      0.2260
     80  O        -10.7260  190.3730   35.8630 O.2   177  VAL177     -0.2867
     81  CB        -8.3980  189.1070   34.6750 C.3   177  VAL177      0.0252
     82  CG1       -8.4830  187.7640   35.3570 C.3   177  VAL177      0.0019
     83  CG2       -7.2240  189.1350   33.7190 C.3   177  VAL177      0.0019
     84  N        -12.6410  192.8850   41.7040 N.3   182  THR182     -0.1204
     85  CA       -11.6430  192.2300   42.5660 C.3   182  THR182      0.1979
     86  C        -10.2220  192.5620   42.1090 C.2   182  THR182      0.2460
     87  O         -9.8500  192.2830   40.9780 O.2   182  THR182     -0.2732
     88  CB       -11.8290  190.7090   42.5570 C.3   182  THR182      0.1783
     89  OG1      -13.1670  190.4190   42.9750 O.3   182  THR182     -0.2211
     90  CG2      -10.8340  189.9980   43.4960 C.3   182  THR182      0.0376
     91  N         -9.4170  193.1570   42.9970 N.am  183  PRO183     -0.2717
     92  CA        -8.0340  193.3740   42.6070 C.3   183  PRO183      0.1535
     93  C         -7.2790  192.0900   42.3740 C.2   183  PRO183      0.2598
     94  O         -7.4930  191.1060   43.0690 O.2   183  PRO183     -0.2715
     95  CB        -7.4400  194.1240   43.8080 C.3   183  PRO183      0.0310
     96  CG        -8.6110  194.7320   44.4750 C.3   183  PRO183      0.0237
     97  CD        -9.7140  193.7400   44.3170 C.3   183  PRO183      0.0939
     98  N         -6.4080  192.1120   41.3710 N.am  184  LYS184     -0.1964
     99  CA        -5.5760  190.9800   41.0010 C.3   184  LYS184      0.1728
    100  C         -4.1590  191.4720   40.7460 C.2   184  LYS184      0.2616
    101  O         -3.9500  192.5850   40.2760 O.2   184  LYS184     -0.2715
    102  CB        -6.1050  190.3040   39.7430 C.3   184  LYS184      0.0311
    103  CG        -7.5950  190.0480   39.8050 C.3   184  LYS184      0.0038
    104  CD        -8.1850  189.6220   38.4960 C.3   184  LYS184      0.0206
    105  CE        -9.6820  189.5070   38.6890 C.3   184  LYS184      0.1093
    106  NZ       -10.3750  190.8210   38.6610 N.3   184  LYS184     -0.1314
    107  N         -3.1770  190.6490   41.0570 N.am  185  ASP185     -0.1957
    108  CA        -1.7970  191.0390   40.7800 C.3   185  ASP185      0.1840
    109  C         -0.8860  189.8230   40.7220 C.2   185  ASP185      0.2623
    110  O         -1.2920  188.7080   41.0310 O.2   185  ASP185     -0.2715
    111  CB        -1.2930  192.0370   41.8380 C.3   185  ASP185      0.1450
    112  CG        -0.1710  192.9190   41.3340 C.2   185  ASP185      0.3671
    113  OD1        0.2390  192.8310   40.1430 O.co2 185  ASP185     -0.2456
    114  OD2        0.3260  193.7360   42.1370 O.co2 185  ASP185     -0.2456
    115  N          0.3360  190.0550   40.2580 N.am  186  GLY186     -0.1940
    116  CA         1.3850  189.0440   40.2540 C.3   186  GLY186      0.1998
    117  C          1.8080  188.6120   38.8620 C.2   186  GLY186      0.2481
    118  O          1.1170  188.9030   37.8850 O.2   186  GLY186     -0.2729
    119  N          2.9570  187.9310   38.7550 N.am  187  PRO187     -0.2715
    120  CA         3.5290  187.5860   37.4570 C.3   187  PRO187      0.1536
    121  C          3.1500  186.1960   36.9460 C.2   187  PRO187      0.2599
    122  O          3.5720  185.8160   35.8560 O.2   187  PRO187     -0.2715
    123  CB         5.0250  187.6180   37.7480 C.3   187  PRO187      0.0310
    124  CG         5.1140  187.1170   39.1620 C.3   187  PRO187      0.0237
    125  CD         3.9140  187.6760   39.8530 C.3   187  PRO187      0.0939
    126  N          2.3890  185.4370   37.7260 N.am  188  SER188     -0.1936
    127  CA         2.2030  184.0050   37.4540 C.3   188  SER188      0.2055
    128  C          1.1710  183.6750   36.3620 C.2   188  SER188      0.2642
    129  O          0.9220  182.5030   36.0810 O.2   188  SER188     -0.2714
    130  CB         1.8310  183.2680   38.7320 C.3   188  SER188      0.2130
    131  OG         0.5050  183.5710   39.0920 O.3   188  SER188     -0.2179
    132  N          0.5280  184.6930   35.8040 N.am  189  ALA189     -0.1977
    133  CA        -0.3580  184.4930   34.6560 C.3   189  ALA189      0.1597
    134  C          0.3160  184.8750   33.3330 C.2   189  ALA189      0.2287
    135  O         -0.3610  185.0660   32.3130 O.2   189  ALA189     -0.2864
    136  CB        -1.6400  185.2680   34.8560 C.3   189  ALA189      0.0319
    137  N          4.4000  180.5690   42.8690 N.3   226  GLY226     -0.1225
    138  CA         3.9990  180.1830   44.2160 C.3   226  GLY226      0.1811
    139  C          2.5910  179.6320   44.2540 C.2   226  GLY226      0.2280
    140  O          1.8400  179.6710   43.2450 O.2   226  GLY226     -0.2866
    141  N         -3.3960  176.2320   44.1450 N.3   231  LYS231     -0.1245
    142  CA        -3.8320  176.3650   42.7540 C.3   231  LYS231      0.1561
    143  C         -4.2880  175.0150   42.1810 C.2   231  LYS231      0.2260
    144  O         -5.3250  174.9340   41.5150 O.2   231  LYS231     -0.2867
    145  CB        -2.7070  176.9400   41.9190 C.3   231  LYS231      0.0271
    146  CG        -2.4190  178.4170   42.2010 C.3   231  LYS231      0.0035
    147  CD        -1.1450  178.8430   41.4910 C.3   231  LYS231      0.0206
    148  CE        -0.8750  180.3350   41.6500 C.3   231  LYS231      0.1093
    149  NZ         0.4400  180.7420   41.0850 N.3   231  LYS231     -0.1314
@<TRIPOS>BOND
     1    57    56    2
     2    56    55    1
     3    60    58    1
     4    58    55    1
     5    58    59    1
     6    55    54    1
     7   135   134    2
     8    59    61    1
     9    77    78    1
    10   134   133    1
    11    83    81    1
    12    78    81    1
    13    78    79    1
    14    72    71    2
    15     1     2    1
    16   133   136    1
    17   133   132    1
    18    81    82    1
    19    79    80    2
    20    71    70    1
    21     2     3    1
    22    49    48    2
    23    48    47    1
    24   132   128   am
    25    76    75    1
    26   122   121    2
    27   129   128    2
    28    74    73    1
    29    74    75    1
    30    65    64    2
    31    70    73    1
    32    70    69    1
    33   128   127    1
    34     3     4    2
    35     3     5   am
    36   121   120    1
    37   121   126   am
    38    47    50    1
    39    47    46    1
    40    64    69   am
    41    64    63    1
    42     5     6    1
    43    50    51    1
    44   127   126    1
    45   127   130    1
    46   120   123    1
    47   120   119    1
    48   123   124    1
    49   118   117    2
    50    11    10    1
    51    10    12    1
    52    10     9    1
    53    63    62    1
    54    63    66    1
    55   104   105    1
    56   104   103    1
    57   106   105    1
    58     6     9    1
    59     6     7    1
    60   130   131    1
    61   119   117   am
    62   119   125    1
    63   117   116    1
    64    51    52    1
    65    51    53    1
    66    67    66    1
    67   124   125    1
    68    66    68    1
    69     8     7    2
    70     7    13   am
    71   102   103    1
    72   102    99    1
    73   113   112   ar
    74   116   115    1
    75   115   109   am
    76   101   100    2
    77    13    14    1
    78   109   108    1
    79   109   110    2
    80   100    99    1
    81   100   107   am
    82   108   107    1
    83   108   111    1
    84    42    41    2
    85    87    86    2
    86    99    98    1
    87   149   148    1
    88    41    40    1
    89   112   111    1
    90   112   114   ar
    91    98    93   am
    92   147   148    1
    93   147   146    1
    94   144   143    2
    95    17    14    1
    96    14    15    1
    97    84    85    1
    98   145   146    1
    99   145   142    1
   100    86    85    1
   101    86    91   am
   102   143   142    1
   103    45    43    1
   104    93    92    1
   105    93    94    2
   106    88    85    1
   107    88    89    1
   108    88    90    1
   109    92    91    1
   110    92    95    1
   111   142   141    1
   112    40    43    1
   113    40    39    1
   114   137   138    1
   115    91    97    1
   116    15    16    2
   117    15    18   am
   118    43    44    1
   119   140   139    2
   120    95    96    1
   121    18    19    1
   122   138   139    1
   123    97    96    1
   124    24    26   ar
   125    24    23   ar
   126    19    22    1
   127    19    20    1
   128    26    27   ar
   129    22    23    1
   130    23    25   ar
   131    21    20    2
   132    20    32   am
   133    27    25   ar
   134    27    29   ar
   135    25    28   ar
   136    38    36    1
   137    32    33    1
   138    29    31   ar
   139    28    30   ar
   140    33    36    1
   141    33    34    1
   142    36    37    1
   143    31    30   ar
   144    35    34    2
