@<TRIPOS>MOLECULE
tmp/4ypsA00.pdb
 191 180 0 0 0
SMALL
GASTEIGER

@<TRIPOS>ATOM
      1  N        -13.3930  -47.5990   -7.2720 N.3    20  LEU20      -0.1231
      2  CA       -14.8010  -47.2970   -7.1150 C.3    20  LEU20       0.1693
      3  C        -15.6640  -48.4210   -7.7020 C.2    20  LEU20       0.2593
      4  O        -16.7540  -48.7010   -7.2050 O.2    20  LEU20      -0.2718
      5  CB       -15.1370  -45.9610   -7.7830 C.3    20  LEU20       0.0284
      6  CG       -14.5310  -44.6750   -7.2070 C.3    20  LEU20       0.0019
      7  CD1      -14.7100  -43.5700   -8.2220 C.3    20  LEU20       0.0001
      8  CD2      -15.2140  -44.2760   -5.8920 C.3    20  LEU20       0.0001
      9  N        -15.1630  -49.0750   -8.7470 N.am   21  GLY21      -0.1942
     10  CA       -15.9450  -50.0610   -9.4820 C.3    21  GLY21       0.2014
     11  C        -15.1390  -50.8510  -10.5030 C.2    21  GLY21       0.2638
     12  O        -13.9280  -50.6620  -10.6290 O.2    21  GLY21      -0.2714
     13  N        -15.8140  -51.7350  -11.2300 N.am   22  GLU22      -0.1977
     14  CA       -15.1590  -52.5560  -12.2410 C.3    22  GLU22       0.1602
     15  C        -16.0510  -52.7410  -13.4640 C.2    22  GLU22       0.2287
     16  O        -16.9220  -53.6110  -13.4830 O.2    22  GLU22      -0.2864
     17  CB       -14.7740  -53.9180  -11.6600 C.3    22  GLU22       0.0415
     18  CG       -13.3140  -54.2890  -11.8620 C.3    22  GLU22       0.1163
     19  CD       -12.7240  -55.0060  -10.6640 C.2    22  GLU22       0.3649
     20  OE1      -13.2720  -54.8580   -9.5510 O.co2  22  GLU22      -0.2457
     21  OE2      -11.7120  -55.7180  -10.8340 O.co2  22  GLU22      -0.2457
     22  N        -14.8660  -50.7510  -16.5530 N.3    23  GLY23      -0.1225
     23  CA       -13.5270  -51.3200  -16.6080 C.3    23  GLY23       0.1811
     24  C        -12.9820  -51.5990  -15.2190 C.2    23  GLY23       0.2280
     25  O        -13.3830  -52.5670  -14.5780 O.2    23  GLY23      -0.2866
     26  N        -12.3630  -48.6790  -12.4940 N.3    25  VAL25      -0.1245
     27  CA       -12.2990  -47.2550  -12.1710 C.3    25  VAL25       0.1561
     28  C        -11.8190  -46.9490  -10.7500 C.2    25  VAL25       0.2260
     29  O        -12.3760  -47.4750   -9.7930 O.2    25  VAL25      -0.2867
     30  CB       -13.6830  -46.6110  -12.3750 C.3    25  VAL25       0.0252
     31  CG1      -13.5820  -45.1010  -12.3270 C.3    25  VAL25       0.0019
     32  CG2      -14.2880  -47.0560  -13.7070 C.3    25  VAL25       0.0019
     33  N        -11.8820  -39.1050  -11.6170 N.3    40  ALA40      -0.1245
     34  CA       -12.0770  -40.5300  -11.7790 C.3    40  ALA40       0.1562
     35  C        -11.1290  -41.0530  -12.8790 C.2    40  ALA40       0.2260
     36  O        -10.9710  -40.4340  -13.9320 O.2    40  ALA40      -0.2867
     37  CB       -13.5180  -40.8230  -12.1180 C.3    40  ALA40       0.0290
     38  N         -9.7870  -44.3920  -15.2370 N.3    42  LYS42      -0.1245
     39  CA       -10.0210  -45.7490  -15.7190 C.3    42  LYS42       0.1561
     40  C         -8.7170  -46.3890  -16.1200 C.2    42  LYS42       0.2260
     41  O         -7.9550  -45.7980  -16.8690 O.2    42  LYS42      -0.2867
     42  CB       -10.9960  -45.7640  -16.8900 C.3    42  LYS42       0.0271
     43  CG       -11.3160  -47.1680  -17.3760 C.3    42  LYS42       0.0035
     44  CD       -12.3440  -47.1610  -18.5040 C.3    42  LYS42       0.0206
     45  CE       -11.7760  -47.8340  -19.7400 C.3    42  LYS42       0.1093
     46  NZ       -11.3060  -49.2200  -19.4250 N.3    42  LYS42      -0.1314
     47  N        -12.9760  -39.3040  -27.3590 N.3    59  LEU59      -0.1245
     48  CA       -13.3630  -38.6610  -26.1060 C.3    59  LEU59       0.1561
     49  C        -12.9580  -37.1960  -26.1050 C.2    59  LEU59       0.2260
     50  O        -13.6910  -36.3420  -25.6060 O.2    59  LEU59      -0.2867
     51  CB       -12.7470  -39.3890  -24.9000 C.3    59  LEU59       0.0270
     52  CG       -13.3380  -40.7830  -24.6710 C.3    59  LEU59       0.0019
     53  CD1      -12.5620  -41.5730  -23.6290 C.3    59  LEU59       0.0001
     54  CD2      -14.8100  -40.6920  -24.2980 C.3    59  LEU59       0.0001
     55  N        -19.7660  -36.6570  -19.8030 N.3    68  VAL68      -0.1245
     56  CA       -18.8270  -36.6300  -18.6710 C.3    68  VAL68       0.1561
     57  C        -17.4850  -36.0330  -19.1080 C.2    68  VAL68       0.2260
     58  O        -16.9390  -36.3680  -20.1580 O.2    68  VAL68      -0.2867
     59  CB       -18.6120  -38.0390  -18.0410 C.3    68  VAL68       0.0252
     60  CG1      -17.8040  -38.8890  -18.9360 C.3    68  VAL68       0.0019
     61  CG2      -17.8930  -37.9080  -16.7060 C.3    68  VAL68       0.0019
     62  N         -7.1110  -43.3840  -18.3780 N.3    82  MET82      -0.1245
     63  CA        -7.9830  -42.3200  -18.8250 C.3    82  MET82       0.1570
     64  C         -8.5090  -41.5350  -17.6230 C.2    82  MET82       0.2261
     65  O         -9.0100  -42.1240  -16.6790 O.2    82  MET82      -0.2867
     66  CB        -9.1300  -42.9040  -19.6370 C.3    82  MET82       0.0387
     67  CG        -8.6870  -43.2590  -21.0770 C.3    82  MET82       0.0595
     68  SD       -10.0130  -43.9510  -22.0430 S.3    82  MET82      -0.1393
     69  CE        -9.1070  -44.5470  -23.4760 C.3    82  MET82       0.0692
     70  N        -10.9930  -38.6290  -15.9900 N.3    84  PHE84      -0.1227
     71  CA       -12.3230  -38.0170  -16.1310 C.3    84  PHE84       0.1736
     72  C        -12.6830  -37.1850  -14.8980 C.2    84  PHE84       0.2595
     73  O        -12.0800  -37.3630  -13.8620 O.2    84  PHE84      -0.2718
     74  CB       -13.3930  -39.0920  -16.2760 C.3    84  PHE84       0.0547
     75  CG       -13.2510  -39.9560  -17.5010 C.ar   84  PHE84      -0.0202
     76  CD1      -12.4700  -41.1050  -17.4770 C.ar   84  PHE84      -0.0042
     77  CD2      -13.9500  -39.6520  -18.6460 C.ar   84  PHE84      -0.0042
     78  CE1      -12.3670  -41.9220  -18.6000 C.ar   84  PHE84      -0.0003
     79  CE2      -13.8620  -40.4690  -19.7870 C.ar   84  PHE84      -0.0003
     80  CZ       -13.0640  -41.6050  -19.7540 C.ar   84  PHE84      -0.0000
     81  N        -13.6840  -36.3130  -14.9800 N.am   85  GLU85      -0.1965
     82  CA       -14.1200  -35.6350  -13.7640 C.3    85  GLU85       0.1733
     83  C        -14.7650  -36.6690  -12.8720 C.2    85  GLU85       0.2616
     84  O        -15.2180  -37.7070  -13.3480 O.2    85  GLU85      -0.2715
     85  CB       -15.1110  -34.5190  -14.0470 C.3    85  GLU85       0.0429
     86  CG       -16.4420  -35.0290  -14.5910 C.3    85  GLU85       0.1163
     87  CD       -17.3650  -33.8920  -14.9610 C.2    85  GLU85       0.3649
     88  OE1      -17.9730  -33.9340  -16.0380 O.co2  85  GLU85      -0.2457
     89  OE2      -17.4830  -32.9450  -14.1640 O.co2  85  GLU85      -0.2457
     90  N        -14.8240  -36.3850  -11.5820 N.am   86  TYR86      -0.1960
     91  CA       -15.4530  -37.3000  -10.6390 C.3    86  TYR86       0.1771
     92  C        -16.8910  -36.8930  -10.3940 C.2    86  TYR86       0.2619
     93  O        -17.1760  -35.7580  -10.0240 O.2    86  TYR86      -0.2715
     94  CB       -14.6720  -37.3360   -9.3250 C.3    86  TYR86       0.0574
     95  CG       -15.3910  -38.0400   -8.1920 C.ar   86  TYR86      -0.0198
     96  CD1      -15.8280  -39.3480   -8.3280 C.ar   86  TYR86      -0.0009
     97  CD2      -15.6140  -37.4010   -6.9770 C.ar   86  TYR86      -0.0009
     98  CE1      -16.4830  -39.9970   -7.2820 C.ar   86  TYR86       0.0417
     99  CE2      -16.2760  -38.0410   -5.9290 C.ar   86  TYR86       0.0417
    100  CZ       -16.7080  -39.3370   -6.0920 C.ar   86  TYR86       0.1957
    101  OH       -17.3560  -39.9810   -5.0600 O.3    86  TYR86      -0.2866
    102  N        -17.7930  -37.8350  -10.6210 N.am   87  MET87      -0.1977
    103  CA       -19.2150  -37.6130  -10.4330 C.3    87  MET87       0.1605
    104  C        -19.6330  -38.2480   -9.1060 C.2    87  MET87       0.2287
    105  O        -19.7750  -39.4680   -9.0030 O.2    87  MET87      -0.2864
    106  CB       -19.9790  -38.1920  -11.6150 C.3    87  MET87       0.0413
    107  CG       -19.4390  -37.6870  -12.9510 C.3    87  MET87       0.0598
    108  SD       -19.7000  -35.9140  -13.1330 S.3    87  MET87      -0.1393
    109  CE       -21.4400  -35.8950  -13.6020 C.3    87  MET87       0.0692
    110  N        -22.1150  -41.2340   -8.4350 N.3    90  GLY90      -0.1210
    111  CA       -21.9600  -42.5300   -9.0630 C.3    90  GLY90       0.1956
    112  C        -22.8710  -42.6710  -10.2660 C.2    90  GLY90       0.2611
    113  O        -23.2200  -41.6650  -10.8850 O.2    90  GLY90      -0.2717
    114  N        -23.2970  -43.8940  -10.5820 N.am   91  ASP91      -0.1973
    115  CA       -24.0740  -44.0700  -11.8050 C.3    91  ASP91       0.1709
    116  C        -25.5440  -43.8790  -11.5020 C.2    91  ASP91       0.2293
    117  O        -25.9890  -44.0310  -10.3570 O.2    91  ASP91      -0.2864
    118  CB       -23.8030  -45.4280  -12.4540 C.3    91  ASP91       0.1436
    119  CG       -24.5510  -46.5670  -11.8030 C.2    91  ASP91       0.3671
    120  OD1      -25.7890  -46.6530  -11.9490 O.co2  91  ASP91      -0.2456
    121  OD2      -23.8830  -47.4220  -11.1920 O.co2  91  ASP91      -0.2456
    122  N        -27.4240  -47.1390  -16.1240 N.3   149  ARG149     -0.1231
    123  CA       -26.1130  -47.6110  -15.6390 C.3   149  ARG149      0.1694
    124  C        -24.9280  -46.9350  -16.3310 C.2   149  ARG149      0.2592
    125  O        -23.8100  -47.0400  -15.8460 O.2   149  ARG149     -0.2718
    126  CB       -25.9590  -49.1320  -15.8000 C.3   149  ARG149      0.0321
    127  CG       -25.8710  -49.5990  -17.3190 C.3   149  ARG149      0.0489
    128  CD       -25.8930  -51.1200  -17.4460 C.3   149  ARG149      0.2205
    129  NE       -26.1130  -51.5370  -18.8340 N.pl3 149  ARG149     -0.0865
    130  CZ       -27.3000  -51.8090  -19.3650 C.cat 149  ARG149      0.5346
    131  NH1      -28.4070  -51.7420  -18.6350 N.pl3 149  ARG149      0.1354
    132  NH2      -27.3870  -52.1530  -20.6380 N.pl3 149  ARG149      0.1354
    133  N        -25.1440  -46.2490  -17.4570 N.am  150  ASN150     -0.1960
    134  CA       -24.0210  -45.6460  -18.1650 C.3   150  ASN150      0.1819
    135  C        -24.0700  -44.1490  -18.1230 C.2   150  ASN150      0.2621
    136  O        -23.3040  -43.4900  -18.8230 O.2   150  ASN150     -0.2715
    137  CB       -23.9550  -46.1130  -19.6270 C.3   150  ASN150      0.1195
    138  CG       -23.3750  -47.4980  -19.7580 C.2   150  ASN150      0.2630
    139  OD1      -22.4010  -47.8550  -19.0850 O.2   150  ASN150     -0.2716
    140  ND2      -23.9870  -48.3030  -20.6000 N.am  150  ASN150     -0.0877
    141  N        -24.9650  -43.6220  -17.2910 N.am  151  CYS151     -0.1954
    142  CA       -25.0410  -42.1960  -16.9810 C.3   151  CYS151      0.1843
    143  C        -24.4430  -41.9430  -15.6180 C.2   151  CYS151      0.2625
    144  O        -24.4110  -42.8420  -14.8040 O.2   151  CYS151     -0.2714
    145  CB       -26.4950  -41.7170  -17.0180 C.3   151  CYS151      0.0997
    146  SG       -27.2280  -41.8700  -18.7320 S.3   151  CYS151     -0.0797
    147  N        -23.9900  -40.7220  -15.3620 N.am  152  LEU152     -0.1977
    148  CA       -23.3220  -40.3770  -14.1050 C.3   152  LEU152      0.1596
    149  C        -24.0000  -39.1830  -13.4810 C.2   152  LEU152      0.2287
    150  O        -24.4860  -38.3190  -14.2000 O.2   152  LEU152     -0.2864
    151  CB       -21.8560  -40.0540  -14.3230 C.3   152  LEU152      0.0297
    152  CG       -21.0160  -41.2160  -14.8240 C.3   152  LEU152      0.0022
    153  CD1      -19.6190  -40.7430  -15.0630 C.3   152  LEU152      0.0001
    154  CD2      -21.0110  -42.3320  -13.8120 C.3   152  LEU152      0.0001
    155  N        -22.0500  -41.2030  -19.8590 N.3   162  GLY162     -0.1210
    156  CA       -20.7050  -41.6940  -19.6430 C.3   162  GLY162      0.1956
    157  C        -20.3280  -42.7740  -20.6290 C.2   162  GLY162      0.2611
    158  O        -20.9390  -42.8920  -21.7020 O.2   162  GLY162     -0.2717
    159  N        -19.3320  -43.5650  -20.2280 N.am  163  ASP163     -0.1973
    160  CA       -18.6820  -44.5780  -21.0610 C.3   163  ASP163      0.1709
    161  C        -19.1400  -44.6180  -22.5140 C.2   163  ASP163      0.2293
    162  O        -18.4340  -44.1500  -23.3960 O.2   163  ASP163     -0.2864
    163  CB       -18.8760  -45.9560  -20.4430 C.3   163  ASP163      0.1436
    164  CG       -17.9470  -46.9870  -21.0410 C.2   163  ASP163      0.3671
    165  OD1      -17.3960  -46.7450  -22.1350 O.co2 163  ASP163     -0.2456
    166  OD2      -17.7590  -48.0430  -20.4140 O.co2 163  ASP163     -0.2456
    167  N        -16.8440  -50.0450  -19.8210 N.3   164  MET164     -0.1230
    168  CA       -18.0090  -50.6760  -19.2180 C.3   164  MET164      0.1702
    169  C        -17.7820  -52.1650  -19.0800 C.2   164  MET164      0.2593
    170  O        -16.8500  -52.7110  -19.6550 O.2   164  MET164     -0.2718
    171  CB       -19.2660  -50.4170  -20.0530 C.3   164  MET164      0.0401
    172  CG       -19.2810  -51.0100  -21.4320 C.3   164  MET164      0.0596
    173  SD       -20.8100  -50.5660  -22.2840 S.3   164  MET164     -0.1393
    174  CE       -20.2310  -49.3040  -23.4090 C.3   164  MET164      0.0692
    175  N        -18.6040  -52.8100  -18.2680 N.am  165  SER165     -0.1938
    176  CA       -19.4710  -52.1140  -17.3330 C.3   165  SER165      0.2055
    177  C        -19.2600  -52.7990  -16.0060 C.2   165  SER165      0.2642
    178  O        -18.4820  -53.7450  -15.9230 O.2   165  SER165     -0.2714
    179  CB       -20.9350  -52.1780  -17.7530 C.3   165  SER165      0.2130
    180  OG       -21.3940  -53.5160  -17.7140 O.3   165  SER165     -0.2179
    181  N        -19.9520  -52.3350  -14.9720 N.am  166  ARG166     -0.1977
    182  CA       -19.8610  -52.9740  -13.6620 C.3   166  ARG166      0.1597
    183  C        -20.3860  -54.4170  -13.7200 C.2   166  ARG166      0.2287
    184  O        -21.4630  -54.6840  -14.2620 O.2   166  ARG166     -0.2864
    185  CB       -20.6260  -52.1580  -12.6080 C.3   166  ARG166      0.0334
    186  CG       -20.0320  -50.7860  -12.5000 C.3   166  ARG166      0.0492
    187  CD       -20.7780  -50.0550  -11.3940 C.3   166  ARG166      0.2205
    188  NE       -20.1580  -48.7600  -11.1000 N.pl3 166  ARG166     -0.0865
    189  CZ       -20.4350  -48.0120  -10.0240 C.cat 166  ARG166      0.5346
    190  NH1      -21.3330  -48.4350   -9.1290 N.pl3 166  ARG166      0.1354
    191  NH2      -19.8240  -46.8400   -9.7970 N.pl3 166  ARG166      0.1354
@<TRIPOS>BOND
     1    47    48    1
     2    48    49    1
     3    48    51    1
     4    49    50    2
     5    51    52    1
     6    52    54    1
     7    52    53    1
     8    69    68    1
     9   174   173    1
    10   162   161    2
    11   161   160    1
    12   173   172    1
    13   165   164   ar
    14    68    67    1
    15   158   157    2
    16   172   171    1
    17    67    66    1
    18   160   163    1
    19   160   159    1
    20   164   163    1
    21   164   166   ar
    22   132   130    1
    23   157   159   am
    24   157   156    1
    25   140   138   am
    26    58    57    2
    27   171   168    1
    28   155   156    1
    29   167   168    1
    30    55    56    1
    31    79    80   ar
    32    79    77   ar
    33   138   137    1
    34   138   139    2
    35    80    78   ar
    36    45    46    1
    37    45    44    1
    38   170   169    2
    39    66    63    1
    40   137   134    1
    41   130   129    2
    42   130   131    1
    43   168   169    1
    44    57    56    1
    45   169   175   am
    46    60    59    1
    47   129   128    1
    48    63    62    1
    49    63    64    1
    50   136   135    2
    51   146   145    1
    52    56    59    1
    53    77    75   ar
    54    78    76   ar
    55    44    43    1
    56   175   176    1
    57   134   135    1
    58   134   133    1
    59   135   141   am
    60    59    61    1
    61   179   180    1
    62   179   176    1
    63    64    65    2
    64    75    76   ar
    65    75    74    1
    66   133   124   am
    67   128   127    1
    68    43    42    1
    69   176   177    1
    70   127   126    1
    71   141   142    1
    72   145   142    1
    73   142   143    1
    74    42    39    1
    75    41    40    2
    76    23    22    1
    77    23    24    1
    78   124   125    2
    79   124   123    1
    80    74    71    1
    81    71    70    1
    82    71    72    1
    83   122   123    1
    84    40    39    1
    85    88    87   ar
    86   177   178    2
    87   177   181   am
    88   126   123    1
    89    39    38    1
    90   143   147   am
    91   143   144    2
    92   147   148    1
    93    24    25    2
    94   153   152    1
    95    81    72   am
    96    81    82    1
    97   181   182    1
    98    87    86    1
    99    87    89   ar
   100    72    73    2
   101   152   151    1
   102   152   154    1
   103    86    85    1
   104   151   148    1
   105   184   183    2
   106   150   149    2
   107   148   149    1
   108    85    82    1
   109    36    35    2
   110    82    83    1
   111   183   182    1
   112    32    30    1
   113   182   185    1
   114   109   108    1
   115    16    15    2
   116    15    14    1
   117    84    83    2
   118   108   107    1
   119   107   106    1
   120    35    34    1
   121    83    90   am
   122   185   186    1
   123   186   187    1
   124    26    27    1
   125   118   115    1
   126   118   119    1
   127    30    31    1
   128    30    27    1
   129    14    17    1
   130    14    13    1
   131    27    28    1
   132    37    34    1
   133   120   119   ar
   134    18    17    1
   135    18    19    1
   136   115   116    1
   137   115   114    1
   138   119   121   ar
   139    34    33    1
   140   106   103    1
   141    90    91    1
   142   116   117    2
   143   187   188    1
   144    13    11   am
   145   188   189    2
   146   113   112    2
   147    21    19   ar
   148    28    29    2
   149    19    20   ar
   150    91    92    1
   151    91    94    1
   152    12    11    2
   153   102   103    1
   154   102    92   am
   155   114   112   am
   156    11    10    1
   157   103   104    1
   158    92    93    2
   159   112   111    1
   160   189   191    1
   161   189   190    1
   162    10     9    1
   163    94    95    1
   164   104   105    2
   165   111   110    1
   166     9     3   am
   167    96    95   ar
   168    96    98   ar
   169     7     6    1
   170    95    97   ar
   171     5     6    1
   172     5     2    1
   173     3     4    2
   174     3     2    1
   175    98   100   ar
   176     1     2    1
   177     6     8    1
   178    97    99   ar
   179   100    99   ar
   180   100   101    1
