@<TRIPOS>MOLECULE
tmp/4ypwA00.pdb
 163 165 0 0 0
SMALL
GASTEIGER

@<TRIPOS>ATOM
      1  N        -27.7520   36.1560  -13.4770 N.3    89  TYR89      -0.1227
      2  CA       -26.3590   36.5740  -13.5750 C.3    89  TYR89       0.1736
      3  C        -26.0000   37.5210  -12.4360 C.2    89  TYR89       0.2595
      4  O        -26.6670   38.5340  -12.2250 O.2    89  TYR89      -0.2718
      5  CB       -26.0970   37.2380  -14.9280 C.3    89  TYR89       0.0548
      6  CG       -24.7050   37.8060  -15.0940 C.ar   89  TYR89      -0.0200
      7  CD1      -23.5820   37.0020  -14.9480 C.ar   89  TYR89      -0.0009
      8  CD2      -24.5160   39.1440  -15.4160 C.ar   89  TYR89      -0.0009
      9  CE1      -22.3080   37.5190  -15.1050 C.ar   89  TYR89       0.0417
     10  CE2      -23.2480   39.6690  -15.5760 C.ar   89  TYR89       0.0417
     11  CZ       -22.1480   38.8530  -15.4190 C.ar   89  TYR89       0.1957
     12  OH       -20.8850   39.3740  -15.5790 O.3    89  TYR89      -0.2866
     13  N        -24.9450   37.1820  -11.7010 N.am   90  LEU90      -0.1966
     14  CA       -24.5140   37.9860  -10.5640 C.3    90  LEU90       0.1728
     15  C        -23.5200   39.0600  -10.9940 C.2    90  LEU90       0.2617
     16  O        -22.4450   38.7540  -11.5110 O.2    90  LEU90      -0.2715
     17  CB       -23.8930   37.1010   -9.4770 C.3    90  LEU90       0.0311
     18  CG       -24.8080   36.1460   -8.6990 C.3    90  LEU90       0.0022
     19  CD1      -26.1040   36.8390   -8.2970 C.3    90  LEU90       0.0001
     20  CD2      -25.0880   34.8620   -9.4730 C.3    90  LEU90       0.0001
     21  N        -23.8910   40.3180  -10.7760 N.am   91  SER91      -0.1936
     22  CA       -23.0440   41.4520  -11.1330 C.3    91  SER91       0.2040
     23  C        -23.4980   42.6970  -10.3780 C.2    91  SER91       0.2485
     24  O        -24.6730   42.8160  -10.0360 O.2    91  SER91      -0.2729
     25  CB       -23.0820   41.7050  -12.6420 C.3    91  SER91       0.2129
     26  OG       -24.3560   42.1760  -13.0430 O.3    91  SER91      -0.2179
     27  N        -22.5660   43.6300  -10.1130 N.am   92  PRO92      -0.2715
     28  CA       -22.8880   44.8860   -9.4240 C.3    92  PRO92       0.1536
     29  C        -23.9710   45.7060  -10.1280 C.2    92  PRO92       0.2598
     30  O        -24.6520   46.5020   -9.4820 O.2    92  PRO92      -0.2715
     31  CB       -21.5540   45.6370   -9.4300 C.3    92  PRO92       0.0310
     32  CG       -20.5260   44.5670   -9.4890 C.3    92  PRO92       0.0237
     33  CD       -21.1190   43.4930  -10.3550 C.3    92  PRO92       0.0939
     34  N        -24.1250   45.5090  -11.4340 N.am   93  GLN93      -0.1978
     35  CA       -25.1290   46.2350  -12.2050 C.3    93  GLN93       0.1601
     36  C        -26.5200   45.6380  -12.0110 C.2    93  GLN93       0.2287
     37  O        -27.5210   46.2220  -12.4270 O.2    93  GLN93      -0.2864
     38  CB       -24.7700   46.2390  -13.6950 C.3    93  GLN93       0.0394
     39  CG       -23.5310   47.0500  -14.0480 C.3    93  GLN93       0.0908
     40  CD       -22.2410   46.3620  -13.6450 C.2    93  GLN93       0.2608
     41  OE1      -21.9810   45.2250  -14.0400 O.2    93  GLN93      -0.2717
     42  NE2      -21.4310   47.0450  -12.8450 N.am   93  GLN93      -0.0878
     43  N        -19.6690   35.0880  -13.1230 N.3   116  GLY116     -0.1210
     44  CA       -18.7330   35.7480  -14.0130 C.3   116  GLY116      0.1956
     45  C        -17.4070   36.0740  -13.3550 C.2   116  GLY116      0.2612
     46  O        -17.3610   36.5090  -12.2050 O.2   116  GLY116     -0.2717
     47  N        -16.3230   35.8540  -14.0890 N.am  117  ARG117     -0.1965
     48  CA       -14.9910   36.2100  -13.6190 C.3   117  ARG117      0.1729
     49  C        -14.4460   37.3640  -14.4500 C.2   117  ARG117      0.2616
     50  O        -15.1170   37.8450  -15.3650 O.2   117  ARG117     -0.2715
     51  CB       -14.0470   35.0080  -13.6930 C.3   117  ARG117      0.0348
     52  CG       -14.5630   33.7660  -12.9880 C.3   117  ARG117      0.0492
     53  CD       -14.5810   33.9390  -11.4800 C.3   117  ARG117      0.2205
     54  NE       -13.2340   33.9980  -10.9200 N.pl3 117  ARG117     -0.0865
     55  CZ       -12.9650   33.9870   -9.6180 C.cat 117  ARG117      0.5346
     56  NH1      -13.9520   33.9160   -8.7360 N.pl3 117  ARG117      0.1354
     57  NH2      -11.7090   34.0430   -9.1980 N.pl3 117  ARG117      0.1354
     58  N        -13.2300   37.7960  -14.1240 N.am  118  TYR118     -0.1960
     59  CA       -12.5580   38.8760  -14.8410 C.3   118  TYR118      0.1771
     60  C        -13.4050   40.1480  -14.8230 C.2   118  TYR118      0.2619
     61  O        -13.8560   40.5770  -13.7610 O.2   118  TYR118     -0.2715
     62  CB       -12.2400   38.4460  -16.2760 C.3   118  TYR118      0.0574
     63  CG       -11.6620   37.0520  -16.3670 C.ar  118  TYR118     -0.0198
     64  CD1      -10.3460   36.7990  -16.0020 C.ar  118  TYR118     -0.0009
     65  CD2      -12.4350   35.9850  -16.8100 C.ar  118  TYR118     -0.0009
     66  CE1       -9.8140   35.5260  -16.0780 C.ar  118  TYR118      0.0417
     67  CE2      -11.9110   34.7080  -16.8900 C.ar  118  TYR118      0.0417
     68  CZ       -10.6000   34.4840  -16.5220 C.ar  118  TYR118      0.1957
     69  OH       -10.0750   33.2140  -16.6010 O.3   118  TYR118     -0.2866
     70  N        -13.6250   40.7480  -15.9880 N.am  119  GLU119     -0.1963
     71  CA       -14.4080   41.9800  -16.0540 C.3   119  GLU119      0.1733
     72  C        -15.8730   41.7060  -16.3870 C.2   119  GLU119      0.2616
     73  O        -16.6370   42.6290  -16.6700 O.2   119  GLU119     -0.2715
     74  CB       -13.8140   42.9480  -17.0810 C.3   119  GLU119      0.0429
     75  CG       -12.3150   43.1790  -16.9390 C.3   119  GLU119      0.1163
     76  CD       -11.8950   43.4950  -15.5170 C.2   119  GLU119      0.3649
     77  OE1      -12.5340   44.3580  -14.8800 O.co2 119  GLU119     -0.2457
     78  OE2      -10.9230   42.8740  -15.0360 O.co2 119  GLU119     -0.2457
     79  N        -16.2620   40.4360  -16.3500 N.am  120  GLY120     -0.1955
     80  CA       -17.6410   40.0570  -16.6010 C.3   120  GLY120      0.1869
     81  C        -17.8300   39.2770  -17.8870 C.2   120  GLY120      0.2309
     82  O        -16.8770   38.7250  -18.4380 O.2   120  GLY120     -0.2863
     83  N        -28.7450   40.2560  -10.8970 N.3   134  TRP134     -0.1227
     84  CA       -28.8330   40.5410   -9.4680 C.3   134  TRP134      0.1737
     85  C        -27.4960   40.9320   -8.8430 C.2   134  TRP134      0.2596
     86  O        -26.4310   40.5870   -9.3560 O.2   134  TRP134     -0.2718
     87  CB       -29.4080   39.3320   -8.7280 C.3   134  TRP134      0.0564
     88  CG       -30.8810   39.1480   -8.9270 C.ar  134  TRP134      0.0003
     89  CD1      -31.4970   38.5450   -9.9840 C.ar  134  TRP134      0.0946
     90  CD2      -31.9250   39.5680   -8.0400 C.ar  134  TRP134      0.0152
     91  NE1      -32.8600   38.5650   -9.8120 N.ar  134  TRP134     -0.2442
     92  CE2      -33.1480   39.1870   -8.6260 C.ar  134  TRP134      0.0810
     93  CE3      -31.9440   40.2300   -6.8080 C.ar  134  TRP134      0.0012
     94  CZ2      -34.3770   39.4460   -8.0230 C.ar  134  TRP134      0.0191
     95  CZ3      -33.1640   40.4860   -6.2110 C.ar  134  TRP134      0.0001
     96  CH2      -34.3630   40.0940   -6.8180 C.ar  134  TRP134      0.0015
     97  N        -27.5700   41.6520   -7.7280 N.am  135  SER135     -0.1938
     98  CA       -26.3880   42.0720   -6.9830 C.3   135  SER135      0.2055
     99  C        -26.6110   41.9070   -5.4850 C.2   135  SER135      0.2643
    100  O        -27.6620   42.2780   -4.9650 O.2   135  SER135     -0.2714
    101  CB       -26.0360   43.5260   -7.2970 C.3   135  SER135      0.2130
    102  OG       -24.9490   43.9690   -6.5020 O.3   135  SER135     -0.2179
    103  N        -25.6180   41.3550   -4.7940 N.am  136  ILE136     -0.1963
    104  CA       -25.7180   41.1540   -3.3530 C.3   136  ILE136      0.1727
    105  C        -25.3070   42.4060   -2.5870 C.2   136  ILE136      0.2616
    106  O        -25.4480   42.4720   -1.3670 O.2   136  ILE136     -0.2715
    107  CB       -24.8490   39.9730   -2.8800 C.3   136  ILE136      0.0290
    108  CG1      -23.3670   40.2640   -3.1240 C.3   136  ILE136      0.0022
    109  CG2      -25.2720   38.6880   -3.5750 C.3   136  ILE136      0.0023
    110  CD1      -22.4360   39.2570   -2.4860 C.3   136  ILE136      0.0001
    111  N        -24.7970   43.3980   -3.3090 N.am  137  GLY137     -0.1955
    112  CA       -24.3740   44.6410   -2.6920 C.3   137  GLY137      0.1869
    113  C        -23.5350   45.5010   -3.6140 C.2   137  GLY137      0.2309
    114  O        -23.0120   45.0250   -4.6210 O.2   137  GLY137     -0.2863
    115  N        -20.5790   46.4520   -4.0820 N.3   139  TYR139     -0.1227
    116  CA       -19.1400   46.2440   -3.9730 C.3   139  TYR139      0.1736
    117  C        -18.6580   45.2790   -5.0510 C.2   139  TYR139      0.2595
    118  O        -19.4230   44.4500   -5.5420 O.2   139  TYR139     -0.2718
    119  CB       -18.7670   45.7210   -2.5830 C.3   139  TYR139      0.0548
    120  CG       -19.7300   44.6970   -2.0280 C.ar  139  TYR139     -0.0200
    121  CD1      -19.6860   43.3730   -2.4440 C.ar  139  TYR139     -0.0009
    122  CD2      -20.6800   45.0540   -1.0800 C.ar  139  TYR139     -0.0009
    123  CE1      -20.5650   42.4360   -1.9370 C.ar  139  TYR139      0.0417
    124  CE2      -21.5610   44.1240   -0.5650 C.ar  139  TYR139      0.0417
    125  CZ       -21.5000   42.8170   -0.9970 C.ar  139  TYR139      0.1957
    126  OH       -22.3770   41.8890   -0.4860 O.3   139  TYR139     -0.2866
    127  N        -17.3860   45.3950   -5.4160 N.am  140  VAL140     -0.1966
    128  CA       -16.8210   44.5830   -6.4870 C.3   140  VAL140      0.1727
    129  C        -16.0020   43.4210   -5.9340 C.2   140  VAL140      0.2616
    130  O        -15.1810   43.5990   -5.0350 O.2   140  VAL140     -0.2715
    131  CB       -15.9350   45.4290   -7.4220 C.3   140  VAL140      0.0290
    132  CG1      -15.4310   44.5880   -8.5840 C.3   140  VAL140      0.0023
    133  CG2      -16.7070   46.6350   -7.9310 C.3   140  VAL140      0.0023
    134  N        -16.2360   42.2300   -6.4760 N.am  141  LEU141     -0.1963
    135  CA       -15.5060   41.0390   -6.0590 C.3   141  LEU141      0.1728
    136  C        -14.7410   40.4300   -7.2310 C.2   141  LEU141      0.2617
    137  O        -14.9300   40.8280   -8.3800 O.2   141  LEU141     -0.2715
    138  CB       -16.4640   40.0100   -5.4560 C.3   141  LEU141      0.0311
    139  CG       -17.2660   40.4690   -4.2350 C.3   141  LEU141      0.0022
    140  CD1      -18.2250   39.3800   -3.7770 C.3   141  LEU141      0.0001
    141  CD2      -16.3410   40.8820   -3.1000 C.3   141  LEU141      0.0001
    142  N        -13.8780   39.4620   -6.9360 N.am  142  THR142     -0.1937
    143  CA       -13.0530   38.8330   -7.9620 C.3   142  THR142      0.2028
    144  C        -13.8540   37.8610   -8.8220 C.2   142  THR142      0.2643
    145  O        -13.3940   37.4310   -9.8790 O.2   142  THR142     -0.2714
    146  CB       -11.8610   38.0800   -7.3440 C.3   142  THR142      0.1808
    147  OG1      -12.3410   37.0570   -6.4640 O.3   142  THR142     -0.2208
    148  CG2      -10.9710   39.0360   -6.5680 C.3   142  THR142      0.0379
    149  N        -15.0530   37.5150   -8.3640 N.am  143  GLY143     -0.1939
    150  CA       -15.9020   36.5900   -9.0900 C.3   143  GLY143      0.2014
    151  C        -17.3230   36.5510   -8.5650 C.2   143  GLY143      0.2639
    152  O        -17.6150   37.0810   -7.4920 O.2   143  GLY143     -0.2714
    153  N        -18.2100   35.9160   -9.3250 N.am  144  GLY144     -0.1954
    154  CA       -19.6090   35.8200   -8.9520 C.3   144  GLY144      0.1869
    155  C        -19.9180   34.5790   -8.1400 C.2   144  GLY144      0.2309
    156  O        -21.0820   34.2620   -7.8980 O.2   144  GLY144     -0.2863
    157  N        -21.1350   35.7780   -4.4790 N.3   147  PRO147     -0.2116
    158  CA       -22.5300   36.2310   -4.5420 C.3   147  PRO147      0.1372
    159  C        -23.5190   35.1040   -4.8450 C.2   147  PRO147      0.2244
    160  O        -24.6510   35.1410   -4.3630 O.2   147  PRO147     -0.2868
    161  CB       -22.5110   37.2560   -5.6810 C.3   147  PRO147      0.0268
    162  CG       -21.1230   37.7740   -5.6880 C.3   147  PRO147      0.0207
    163  CD       -20.2680   36.5860   -5.3590 C.3   147  PRO147      0.0892
@<TRIPOS>BOND
     1    82    81    2
     2    81    80    1
     3    74    75    1
     4    74    71    1
     5    75    76    1
     6    67    65   ar
     7    67    68   ar
     8    65    63   ar
     9    73    72    2
    10    69    68    1
    11    80    79    1
    12    68    66   ar
    13    72    79   am
    14    72    71    1
    15    63    62    1
    16    63    64   ar
    17    62    59    1
    18    66    64   ar
    19    71    70    1
    20    70    60   am
    21    12    11    1
    22    10    11   ar
    23    10     8   ar
    24    76    78   ar
    25    76    77   ar
    26    11     9   ar
    27     8     6   ar
    28    50    49    2
    29     9     7   ar
    30     6     7   ar
    31     6     5    1
    32     5     2    1
    33    59    60    1
    34    59    58    1
    35    60    61    2
    36    49    58   am
    37    49    48    1
    38    47    48    1
    39    47    45   am
    40    39    38    1
    41    39    40    1
    42    41    40    2
    43    44    45    1
    44    44    43    1
    45    38    35    1
    46    51    48    1
    47    51    52    1
    48    40    42   am
    49     2     1    1
    50     2     3    1
    51    45    46    2
    52    26    25    1
    53    52    53    1
    54    25    22    1
    55     3     4    2
    56     3    13   am
    57    37    36    2
    58    35    36    1
    59    35    34    1
    60    13    14    1
    61    16    15    2
    62    53    54    1
    63    34    29   am
    64    22    21    1
    65    22    23    1
    66    15    21   am
    67    15    14    1
    68    54    55    2
    69    83    84    1
    70    14    17    1
    71    23    27   am
    72    23    24    2
    73    33    27    1
    74    33    32    1
    75    29    30    2
    76    29    28    1
    77    27    28    1
    78    89    91   ar
    79    89    88   ar
    80   145   144    2
    81    91    92   ar
    82    55    57    1
    83    55    56    1
    84    32    31    1
    85    17    18    1
    86    20    18    1
    87    84    85    1
    88    84    87    1
    89    31    28    1
    90    86    85    2
    91   153   154    1
    92   153   151   am
    93   150   151    1
    94   150   149    1
    95   154   155    1
    96    88    87    1
    97    88    90   ar
    98    85    97   am
    99   144   149   am
   100   144   143    1
   101    18    19    1
   102    92    90   ar
   103    92    94   ar
   104   132   131    1
   105   151   152    2
   106   137   136    2
   107   155   156    2
   108    90    93   ar
   109    94    96   ar
   110   143   146    1
   111   143   142    1
   112   133   131    1
   113    97    98    1
   114   131   128    1
   115   146   148    1
   116   146   147    1
   117   101    98    1
   118   101   102    1
   119   136   142   am
   120   136   135    1
   121    98    99    1
   122    96    95   ar
   123    93    95   ar
   124   128   129    1
   125   128   127    1
   126   134   135    1
   127   134   129   am
   128   135   138    1
   129   129   130    2
   130   162   161    1
   131   162   163    1
   132   161   158    1
   133   118   117    2
   134    99   100    2
   135    99   103   am
   136   138   139    1
   137   127   117   am
   138   163   157    1
   139   117   116    1
   140   159   158    1
   141   159   160    2
   142   103   104    1
   143   114   113    2
   144   158   157    1
   145   139   140    1
   146   139   141    1
   147   115   116    1
   148   116   119    1
   149   113   112    1
   150   109   107    1
   151   104   107    1
   152   104   105    1
   153   111   112    1
   154   111   105   am
   155   108   107    1
   156   108   110    1
   157   105   106    2
   158   119   120    1
   159   121   120   ar
   160   121   123   ar
   161   120   122   ar
   162   123   125   ar
   163   122   124   ar
   164   125   124   ar
   165   125   126    1
