@<TRIPOS>MOLECULE
tmp/4ypxA00.pdb
 118 118 0 0 0
SMALL
GASTEIGER

@<TRIPOS>ATOM
      1  N        -25.0190   37.6670  -11.7830 N.3    91  LEU91      -0.1231
      2  CA       -24.6200   38.4430  -10.6170 C.3    91  LEU91       0.1693
      3  C        -23.6590   39.5750  -11.0040 C.2    91  LEU91       0.2593
      4  O        -22.6000   39.3170  -11.5420 O.2    91  LEU91      -0.2718
      5  CB       -23.9630   37.5280   -9.5690 C.3    91  LEU91       0.0284
      6  CG       -24.8420   36.5820   -8.7370 C.3    91  LEU91       0.0019
      7  CD1      -25.9890   37.3480   -8.0860 C.3    91  LEU91       0.0001
      8  CD2      -25.3770   35.4110   -9.5600 C.3    91  LEU91       0.0001
      9  N        -24.0200   40.8240  -10.7200 N.am   92  SER92      -0.1939
     10  CA       -23.1100   41.9320  -10.9980 C.3    92  SER92       0.2040
     11  C        -23.5330   43.1780  -10.2320 C.2    92  SER92       0.2485
     12  O        -24.6790   43.2690   -9.7910 O.2    92  SER92      -0.2729
     13  CB       -23.0570   42.2250  -12.5080 C.3    92  SER92       0.2129
     14  OG       -23.9590   43.2550  -12.8410 O.3    92  SER92      -0.2179
     15  N        -22.6090   44.1420  -10.0630 N.am   93  PRO93      -0.2726
     16  CA       -22.9840   45.3980   -9.4000 C.3    93  PRO93       0.1402
     17  C        -23.9830   46.2350  -10.2060 C.2    93  PRO93       0.2269
     18  O        -24.5690   47.1620   -9.6560 O.2    93  PRO93      -0.2865
     19  CB       -21.6440   46.1420   -9.2650 C.3    93  PRO93       0.0296
     20  CG       -20.5980   45.0770   -9.3360 C.3    93  PRO93       0.0237
     21  CD       -21.1550   44.0570  -10.3030 C.3    93  PRO93       0.0939
     22  N        -19.6690   35.6650  -13.1920 N.3   117  GLY117     -0.1225
     23  CA       -18.6500   36.2580  -14.0380 C.3   117  GLY117      0.1811
     24  C        -17.3190   36.3030  -13.3090 C.2   117  GLY117      0.2280
     25  O        -17.2900   36.3140  -12.0800 O.2   117  GLY117     -0.2866
     26  N        -13.0530   38.0470  -14.1580 N.3   119  TYR119     -0.1241
     27  CA       -12.3860   39.1100  -14.9270 C.3   119  TYR119      0.1605
     28  C        -13.2580   40.3670  -14.9410 C.2   119  TYR119      0.2264
     29  O        -13.8630   40.6950  -13.9210 O.2   119  TYR119     -0.2867
     30  CB       -12.0640   38.6260  -16.3480 C.3   119  TYR119      0.0534
     31  CG       -11.5400   37.2100  -16.3520 C.ar  119  TYR119     -0.0201
     32  CD1      -10.3410   36.8930  -15.7300 C.ar  119  TYR119     -0.0009
     33  CD2      -12.2600   36.1840  -16.9470 C.ar  119  TYR119     -0.0009
     34  CE1       -9.8660   35.5930  -15.7130 C.ar  119  TYR119      0.0417
     35  CE2      -11.7930   34.8790  -16.9320 C.ar  119  TYR119      0.0417
     36  CZ       -10.5980   34.5920  -16.3210 C.ar  119  TYR119      0.1957
     37  OH       -10.1400   33.2930  -16.3110 O.3   119  TYR119     -0.2866
     38  N        -28.8350   40.7260  -10.9290 N.3   135  TRP135     -0.1227
     39  CA       -28.9550   41.0370   -9.5010 C.3   135  TRP135      0.1737
     40  C        -27.6060   41.3720   -8.8870 C.2   135  TRP135      0.2596
     41  O        -26.5970   40.7540   -9.2340 O.2   135  TRP135     -0.2718
     42  CB       -29.5540   39.8590   -8.7310 C.3   135  TRP135      0.0564
     43  CG       -31.0100   39.6630   -8.9780 C.ar  135  TRP135      0.0003
     44  CD1      -31.5800   39.0550  -10.0570 C.ar  135  TRP135      0.0946
     45  CD2      -32.0860   40.0710   -8.1260 C.ar  135  TRP135      0.0152
     46  NE1      -32.9550   39.0710   -9.9340 N.ar  135  TRP135     -0.2442
     47  CE2      -33.2860   39.6800   -8.7510 C.ar  135  TRP135      0.0810
     48  CE3      -32.1510   40.7250   -6.8860 C.ar  135  TRP135      0.0012
     49  CZ2      -34.5350   39.9210   -8.1840 C.ar  135  TRP135      0.0191
     50  CZ3      -33.3860   40.9620   -6.3290 C.ar  135  TRP135      0.0001
     51  CH2      -34.5640   40.5610   -6.9740 C.ar  135  TRP135      0.0015
     52  N        -27.6130   42.3220   -7.9530 N.am  136  SER136     -0.1938
     53  CA       -26.4340   42.6510   -7.1570 C.3   136  SER136      0.2055
     54  C        -26.6760   42.3310   -5.6870 C.2   136  SER136      0.2643
     55  O        -27.7840   42.5270   -5.1920 O.2   136  SER136     -0.2714
     56  CB       -26.0920   44.1380   -7.2880 C.3   136  SER136      0.2130
     57  OG       -25.1480   44.5240   -6.3010 O.3   136  SER136     -0.2179
     58  N        -25.6470   41.8820   -4.9700 N.am  137  ILE137     -0.1963
     59  CA       -25.8210   41.6690   -3.5300 C.3   137  ILE137      0.1727
     60  C        -25.4700   42.9160   -2.7130 C.2   137  ILE137      0.2616
     61  O        -25.6680   42.9510   -1.4940 O.2   137  ILE137     -0.2715
     62  CB       -24.9920   40.4730   -3.0080 C.3   137  ILE137      0.0290
     63  CG1      -23.4930   40.6850   -3.2430 C.3   137  ILE137      0.0022
     64  CG2      -25.4820   39.1800   -3.6500 C.3   137  ILE137      0.0023
     65  CD1      -22.5990   39.9290   -2.2270 C.3   137  ILE137      0.0001
     66  N        -24.9670   43.9480   -3.3750 N.am  138  GLY138     -0.1955
     67  CA       -24.6740   45.1930   -2.6820 C.3   138  GLY138      0.1869
     68  C        -23.7620   46.0730   -3.5100 C.2   138  GLY138      0.2309
     69  O        -23.1860   45.6150   -4.4950 O.2   138  GLY138     -0.2863
     70  N        -20.7570   47.1180   -4.0090 N.3   140  TYR140     -0.1227
     71  CA       -19.3180   46.9270   -3.8720 C.3   140  TYR140      0.1736
     72  C        -18.8490   45.9420   -4.9190 C.2   140  TYR140      0.2595
     73  O        -19.6480   45.1800   -5.4670 O.2   140  TYR140     -0.2718
     74  CB       -18.9570   46.4460   -2.4580 C.3   140  TYR140      0.0548
     75  CG       -19.9270   45.4280   -1.8940 C.ar  140  TYR140     -0.0200
     76  CD1      -19.8670   44.0890   -2.2810 C.ar  140  TYR140     -0.0009
     77  CD2      -20.8980   45.8050   -0.9820 C.ar  140  TYR140     -0.0009
     78  CE1      -20.7500   43.1610   -1.7720 C.ar  140  TYR140      0.0417
     79  CE2      -21.7910   44.8780   -0.4620 C.ar  140  TYR140      0.0417
     80  CZ       -21.7050   43.5640   -0.8500 C.ar  140  TYR140      0.1957
     81  OH       -22.6030   42.6620   -0.3380 O.3   140  TYR140     -0.2866
     82  N        -17.5530   45.9580   -5.2060 N.am  141  VAL141     -0.1966
     83  CA       -17.0070   45.1490   -6.2810 C.3   141  VAL141      0.1727
     84  C        -16.1650   44.0100   -5.7300 C.2   141  VAL141      0.2616
     85  O        -15.3390   44.2100   -4.8310 O.2   141  VAL141     -0.2715
     86  CB       -16.1620   46.0190   -7.2300 C.3   141  VAL141      0.0290
     87  CG1      -15.5920   45.1950   -8.3700 C.3   141  VAL141      0.0023
     88  CG2      -17.0060   47.1910   -7.7440 C.3   141  VAL141      0.0023
     89  N        -16.4110   42.8150   -6.2570 N.am  142  LEU142     -0.1963
     90  CA       -15.7080   41.6080   -5.8370 C.3   142  LEU142      0.1728
     91  C        -14.9180   41.0310   -7.0030 C.2   142  LEU142      0.2617
     92  O        -15.0680   41.4840   -8.1430 O.2   142  LEU142     -0.2715
     93  CB       -16.6990   40.5690   -5.3000 C.3   142  LEU142      0.0311
     94  CG       -17.6280   41.0810   -4.1870 C.3   142  LEU142      0.0022
     95  CD1      -18.6440   40.0120   -3.8410 C.3   142  LEU142      0.0001
     96  CD2      -16.8640   41.4820   -2.9550 C.3   142  LEU142      0.0001
     97  N        -14.0920   40.0210   -6.7360 N.am  143  THR143     -0.1937
     98  CA       -13.2590   39.4580   -7.7900 C.3   143  THR143      0.2028
     99  C        -14.0390   38.5210   -8.7140 C.2   143  THR143      0.2643
    100  O        -13.5570   38.1510   -9.7810 O.2   143  THR143     -0.2714
    101  CB       -12.0500   38.6880   -7.2090 C.3   143  THR143      0.1808
    102  OG1      -12.5150   37.6020   -6.3960 O.3   143  THR143     -0.2208
    103  CG2      -11.1720   39.6130   -6.3870 C.3   143  THR143      0.0379
    104  N        -15.2450   38.1360   -8.3160 N.am  144  GLY144     -0.1939
    105  CA       -16.0520   37.2690   -9.1520 C.3   144  GLY144      0.2014
    106  C        -17.4590   37.1280   -8.6050 C.2   144  GLY144      0.2639
    107  O        -17.7360   37.5450   -7.4690 O.2   144  GLY144     -0.2714
    108  N        -18.3460   36.5390   -9.4020 N.am  145  GLY145     -0.1954
    109  CA       -19.7360   36.3920   -8.9930 C.3   145  GLY145      0.1869
    110  C        -20.0380   35.2110   -8.0700 C.2   145  GLY145      0.2309
    111  O        -21.1910   35.0200   -7.6770 O.2   145  GLY145     -0.2863
    112  N        -21.2710   36.2640   -4.5140 N.3   148  PRO148     -0.2116
    113  CA       -22.6740   36.6970   -4.6190 C.3   148  PRO148      0.1372
    114  C        -23.6630   35.5670   -4.9160 C.2   148  PRO148      0.2244
    115  O        -24.7650   35.6110   -4.3810 O.2   148  PRO148     -0.2868
    116  CB       -22.6400   37.7050   -5.7740 C.3   148  PRO148      0.0268
    117  CG       -21.2590   38.3240   -5.6550 C.3   148  PRO148      0.0207
    118  CD       -20.3610   37.1580   -5.2700 C.3   148  PRO148      0.0892
@<TRIPOS>BOND
     1    33    35   ar
     2    33    31   ar
     3    35    36   ar
     4    31    30    1
     5    31    32   ar
     6    30    27    1
     7    36    37    1
     8    36    34   ar
     9    32    34   ar
    10    28    27    1
    11    28    29    2
    12    27    26    1
    13    23    24    1
    14    23    22    1
    15    24    25    2
    16    14    13    1
    17    13    10    1
    18     1     2    1
    19     4     3    2
    20     3     9   am
    21     3     2    1
    22    10     9    1
    23    10    11    1
    24    38    39    1
    25     2     5    1
    26    21    15    1
    27    21    20    1
    28    11    15   am
    29    11    12    2
    30    17    18    2
    31    17    16    1
    32    15    16    1
    33    44    46   ar
    34    44    43   ar
    35    46    47   ar
    36   100    99    2
    37     5     6    1
    38     8     6    1
    39    39    40    1
    40    39    42    1
    41   108   109    1
    42   108   106   am
    43    16    19    1
    44    20    19    1
    45    41    40    2
    46   105   106    1
    47   105   104    1
    48   109   110    1
    49    43    42    1
    50    43    45   ar
    51    40    52   am
    52    47    49   ar
    53    47    45   ar
    54     6     7    1
    55    99   104   am
    56    99    98    1
    57   106   107    2
    58    87    86    1
    59    49    51   ar
    60    92    91    2
    61    45    48   ar
    62   110   111    2
    63    52    53    1
    64    98   101    1
    65    98    97    1
    66    88    86    1
    67    56    53    1
    68    56    57    1
    69    86    83    1
    70   101   102    1
    71   101   103    1
    72    53    54    1
    73    91    97   am
    74    91    90    1
    75    51    50   ar
    76    48    50   ar
    77    83    84    1
    78    83    82    1
    79    89    90    1
    80    89    84   am
    81    90    93    1
    82   116   117    1
    83   116   113    1
    84    84    85    2
    85    54    55    2
    86    54    58   am
    87   117   118    1
    88    73    72    2
    89    93    94    1
    90   118   112    1
    91    82    72   am
    92    58    59    1
    93    72    71    1
    94   114   113    1
    95   114   115    2
    96   113   112    1
    97    69    68    2
    98    94    95    1
    99    94    96    1
   100    70    71    1
   101    71    74    1
   102    64    62    1
   103    59    62    1
   104    59    60    1
   105    68    67    1
   106    66    60   am
   107    66    67    1
   108    63    62    1
   109    63    65    1
   110    60    61    2
   111    74    75    1
   112    76    75   ar
   113    76    78   ar
   114    75    77   ar
   115    78    80   ar
   116    77    79   ar
   117    80    79   ar
   118    80    81    1
