@<TRIPOS>MOLECULE
tmp/4ypyA00.pdb
 141 143 0 0 0
SMALL
GASTEIGER

@<TRIPOS>ATOM
      1  N        -27.7790   36.4970  -13.7540 N.3    88  TYR88      -0.1227
      2  CA       -26.3770   36.8880  -13.8060 C.3    88  TYR88       0.1736
      3  C        -26.0410   37.7270  -12.5700 C.2    88  TYR88       0.2595
      4  O        -26.7020   38.7270  -12.2930 O.2    88  TYR88      -0.2718
      5  CB       -26.0840   37.6730  -15.0820 C.3    88  TYR88       0.0548
      6  CG       -24.6640   38.1950  -15.1810 C.ar   88  TYR88      -0.0200
      7  CD1      -23.5710   37.3940  -14.8470 C.ar   88  TYR88      -0.0009
      8  CD2      -24.4150   39.4930  -15.6220 C.ar   88  TYR88      -0.0009
      9  CE1      -22.2580   37.8930  -14.9520 C.ar   88  TYR88       0.0417
     10  CE2      -23.1260   39.9890  -15.7270 C.ar   88  TYR88       0.0417
     11  CZ       -22.0560   39.1920  -15.3930 C.ar   88  TYR88       0.1957
     12  OH       -20.7860   39.7120  -15.5170 O.3    88  TYR88      -0.2866
     13  N        -25.0190   37.3190  -11.8260 N.am   89  LEU89      -0.1966
     14  CA       -24.6290   38.0840  -10.6450 C.3    89  LEU89       0.1728
     15  C        -23.7320   39.2510  -11.0570 C.2    89  LEU89       0.2617
     16  O        -22.6480   39.0220  -11.5720 O.2    89  LEU89      -0.2715
     17  CB       -23.9060   37.1840   -9.6310 C.3    89  LEU89       0.0311
     18  CG       -24.7530   36.2670   -8.7430 C.3    89  LEU89       0.0022
     19  CD1      -25.8270   37.0670   -8.0140 C.3    89  LEU89       0.0001
     20  CD2      -25.3680   35.1320   -9.5300 C.3    89  LEU89       0.0001
     21  N        -24.1630   40.4950  -10.8380 N.am   90  SER90      -0.1936
     22  CA       -23.3050   41.6300  -11.2000 C.3    90  SER90       0.2040
     23  C        -23.6630   42.8940  -10.4290 C.2    90  SER90       0.2485
     24  O        -24.7950   43.0350   -9.9670 O.2    90  SER90      -0.2729
     25  CB       -23.3820   41.9050  -12.7040 C.3    90  SER90       0.2129
     26  OG       -24.3480   42.8950  -13.0040 O.3    90  SER90      -0.2179
     27  N        -22.6970   43.8240  -10.2910 N.am   91  PRO91      -0.2726
     28  CA       -22.9720   45.1000   -9.6180 C.3    91  PRO91       0.1402
     29  C        -23.9900   45.9550  -10.3800 C.2    91  PRO91       0.2269
     30  O        -24.5620   46.8840   -9.8100 O.2    91  PRO91      -0.2865
     31  CB       -21.6000   45.7860   -9.5890 C.3    91  PRO91       0.0296
     32  CG       -20.6220   44.6810   -9.7040 C.3    91  PRO91       0.0237
     33  CD       -21.2680   43.6850  -10.6240 C.3    91  PRO91       0.0939
     34  N        -19.6700   35.5470  -13.1930 N.3   115  GLY115     -0.1210
     35  CA       -18.6600   36.1400  -14.0470 C.3   115  GLY115      0.1956
     36  C        -17.3230   36.2130  -13.3310 C.2   115  GLY115      0.2612
     37  O        -17.2840   36.2360  -12.1010 O.2   115  GLY115     -0.2717
     38  N        -16.2410   36.2120  -14.1080 N.am  116  ARG116     -0.1965
     39  CA       -14.9070   36.5090  -13.6170 C.3   116  ARG116      0.1729
     40  C        -14.3210   37.5820  -14.5300 C.2   116  ARG116      0.2616
     41  O        -14.9640   37.9810  -15.5040 O.2   116  ARG116     -0.2715
     42  CB       -14.0280   35.2480  -13.5870 C.3   116  ARG116      0.0348
     43  CG       -14.3510   34.2950  -12.4270 C.3   116  ARG116      0.0492
     44  CD       -13.4280   34.5700  -11.2470 C.3   116  ARG116      0.2205
     45  NE       -14.0410   34.1930   -9.9810 N.pl3 116  ARG116     -0.0865
     46  CZ       -13.4100   34.2340   -8.8220 C.cat 116  ARG116      0.5346
     47  NH1      -12.1320   34.6280   -8.7770 N.pl3 116  ARG116      0.1354
     48  NH2      -14.0410   33.8690   -7.7130 N.pl3 116  ARG116      0.1354
     49  N        -13.1150   38.0440  -14.2150 N.am  117  TYR117     -0.1974
     50  CA       -12.4590   39.1090  -14.9880 C.3   117  TYR117      0.1639
     51  C        -13.3530   40.3540  -15.0160 C.2   117  TYR117      0.2290
     52  O        -13.9950   40.6660  -14.0110 O.2   117  TYR117     -0.2864
     53  CB       -12.1250   38.6150  -16.4000 C.3   117  TYR117      0.0560
     54  CG       -11.6290   37.1870  -16.4120 C.ar  117  TYR117     -0.0198
     55  CD1      -10.4440   36.8420  -15.7790 C.ar  117  TYR117     -0.0009
     56  CD2      -12.3550   36.1800  -17.0400 C.ar  117  TYR117     -0.0009
     57  CE1       -9.9860   35.5290  -15.7750 C.ar  117  TYR117      0.0417
     58  CE2      -11.9040   34.8670  -17.0380 C.ar  117  TYR117      0.0417
     59  CZ       -10.7200   34.5490  -16.4090 C.ar  117  TYR117      0.1957
     60  OH       -10.2680   33.2440  -16.4090 O.3   117  TYR117     -0.2866
     61  N        -28.7630   40.4720  -10.8580 N.3   133  TRP133     -0.1227
     62  CA       -28.9050   40.7770   -9.4330 C.3   133  TRP133      0.1737
     63  C        -27.5590   41.1280   -8.8050 C.2   133  TRP133      0.2596
     64  O        -26.5450   40.4950   -9.1110 O.2   133  TRP133     -0.2718
     65  CB       -29.5100   39.5880   -8.6890 C.3   133  TRP133      0.0564
     66  CG       -30.9620   39.4000   -8.9270 C.ar  133  TRP133      0.0003
     67  CD1      -31.5440   38.7820   -9.9950 C.ar  133  TRP133      0.0946
     68  CD2      -32.0300   39.8270   -8.0710 C.ar  133  TRP133      0.0152
     69  NE1      -32.9200   38.8120   -9.8620 N.ar  133  TRP133     -0.2442
     70  CE2      -33.2390   39.4440   -8.6860 C.ar  133  TRP133      0.0810
     71  CE3      -32.0810   40.5040   -6.8440 C.ar  133  TRP133      0.0012
     72  CZ2      -34.4860   39.7030   -8.1140 C.ar  133  TRP133      0.0191
     73  CZ3      -33.3190   40.7630   -6.2780 C.ar  133  TRP133      0.0001
     74  CH2      -34.5040   40.3610   -6.9100 C.ar  133  TRP133      0.0015
     75  N        -27.5590   42.1280   -7.9290 N.am  134  SER134     -0.1938
     76  CA       -26.3750   42.4990   -7.1510 C.3   134  SER134      0.2055
     77  C        -26.6000   42.2010   -5.6780 C.2   134  SER134      0.2643
     78  O        -27.7030   42.4290   -5.1760 O.2   134  SER134     -0.2714
     79  CB       -26.0610   43.9890   -7.3100 C.3   134  SER134      0.2130
     80  OG       -25.0880   44.3900   -6.3610 O.3   134  SER134     -0.2179
     81  N        -25.5730   41.7290   -4.9680 N.am  135  ILE135     -0.1963
     82  CA       -25.7410   41.5180   -3.5270 C.3   135  ILE135      0.1727
     83  C        -25.3570   42.7690   -2.7430 C.2   135  ILE135      0.2616
     84  O        -25.5790   42.8580   -1.5300 O.2   135  ILE135     -0.2715
     85  CB       -24.9340   40.3020   -3.0080 C.3   135  ILE135      0.0290
     86  CG1      -23.4320   40.4890   -3.2240 C.3   135  ILE135      0.0022
     87  CG2      -25.4260   39.0270   -3.6870 C.3   135  ILE135      0.0023
     88  CD1      -22.5750   39.7150   -2.2210 C.3   135  ILE135      0.0001
     89  N        -24.8030   43.7550   -3.4320 N.am  136  GLY136     -0.1955
     90  CA       -24.4650   45.0030   -2.7660 C.3   136  GLY136      0.1869
     91  C        -23.5720   45.8840   -3.6120 C.2   136  GLY136      0.2309
     92  O        -22.9820   45.4300   -4.5860 O.2   136  GLY136     -0.2863
     93  N        -20.5710   46.9230   -3.9330 N.3   138  TYR138     -0.1227
     94  CA       -19.1360   46.7620   -3.7460 C.3   138  TYR138      0.1736
     95  C        -18.6170   45.8170   -4.8080 C.2   138  TYR138      0.2595
     96  O        -19.3780   45.0430   -5.3940 O.2   138  TYR138     -0.2718
     97  CB       -18.8100   46.2430   -2.3370 C.3   138  TYR138      0.0548
     98  CG       -19.8080   45.2330   -1.7990 C.ar  138  TYR138     -0.0200
     99  CD1      -19.7680   43.9070   -2.2050 C.ar  138  TYR138     -0.0009
    100  CD2      -20.7760   45.6090   -0.8750 C.ar  138  TYR138     -0.0009
    101  CE1      -20.6720   42.9820   -1.7170 C.ar  138  TYR138      0.0417
    102  CE2      -21.6860   44.6980   -0.3810 C.ar  138  TYR138      0.0417
    103  CZ       -21.6260   43.3850   -0.7960 C.ar  138  TYR138      0.1957
    104  OH       -22.5330   42.4820   -0.3080 O.3   138  TYR138     -0.2866
    105  N        -17.3240   45.8880   -5.0800 N.am  139  VAL139     -0.1966
    106  CA       -16.7710   45.1360   -6.1930 C.3   139  VAL139      0.1727
    107  C        -15.9660   43.9480   -5.6950 C.2   139  VAL139      0.2616
    108  O        -15.1350   44.0760   -4.7930 O.2   139  VAL139     -0.2715
    109  CB       -15.8910   46.0230   -7.0730 C.3   139  VAL139      0.0290
    110  CG1      -15.3450   45.2220   -8.2530 C.3   139  VAL139      0.0023
    111  CG2      -16.6950   47.2360   -7.5400 C.3   139  VAL139      0.0023
    112  N        -16.2430   42.7910   -6.2790 N.am  140  LEU140     -0.1963
    113  CA       -15.6040   41.5520   -5.8750 C.3   140  LEU140      0.1728
    114  C        -14.7730   41.0050   -7.0180 C.2   140  LEU140      0.2617
    115  O        -14.7960   41.5580   -8.1170 O.2   140  LEU140     -0.2715
    116  CB       -16.6600   40.5330   -5.4450 C.3   140  LEU140      0.0311
    117  CG       -17.6070   41.0610   -4.3550 C.3   140  LEU140      0.0022
    118  CD1      -18.7130   40.0640   -4.1060 C.3   140  LEU140      0.0001
    119  CD2      -16.8460   41.3430   -3.0830 C.3   140  LEU140      0.0001
    120  N        -14.0610   39.9070   -6.7750 N.am  141  THR141     -0.1937
    121  CA       -13.2050   39.3310   -7.8050 C.3   141  THR141      0.2028
    122  C        -13.9910   38.4110   -8.7280 C.2   141  THR141      0.2643
    123  O        -13.4780   37.9550   -9.7410 O.2   141  THR141     -0.2714
    124  CB       -12.0310   38.5420   -7.1890 C.3   141  THR141      0.1808
    125  OG1      -12.5420   37.4840   -6.3650 O.3   141  THR141     -0.2208
    126  CG2      -11.1610   39.4630   -6.3480 C.3   141  THR141      0.0379
    127  N        -15.2370   38.1170   -8.3790 N.am  142  GLY142     -0.1939
    128  CA       -16.0260   37.2260   -9.2090 C.3   142  GLY142      0.2014
    129  C        -17.4410   37.0810   -8.6870 C.2   142  GLY142      0.2639
    130  O        -17.7450   37.5250   -7.5720 O.2   142  GLY142     -0.2714
    131  N        -18.3030   36.4520   -9.4810 N.am  143  GLY143     -0.1954
    132  CA       -19.7020   36.3050   -9.0980 C.3   143  GLY143      0.1869
    133  C        -19.9920   35.1440   -8.1410 C.2   143  GLY143      0.2309
    134  O        -21.1310   34.9660   -7.7030 O.2   143  GLY143     -0.2863
    135  N        -21.2150   36.1710   -4.5250 N.3   146  PRO146     -0.2116
    136  CA       -22.6220   36.5790   -4.6350 C.3   146  PRO146      0.1372
    137  C        -23.5940   35.4270   -4.9050 C.2   146  PRO146      0.2244
    138  O        -24.6860   35.4130   -4.3380 O.2   146  PRO146     -0.2868
    139  CB       -22.6030   37.5480   -5.8190 C.3   146  PRO146      0.0268
    140  CG       -21.2590   38.1950   -5.7170 C.3   146  PRO146      0.0207
    141  CD       -20.3250   37.0930   -5.2650 C.3   146  PRO146      0.0892
@<TRIPOS>BOND
     1    56    58   ar
     2    56    54   ar
     3    58    59   ar
     4    54    53    1
     5    54    55   ar
     6    60    59    1
     7    59    57   ar
     8    53    50    1
     9    55    57   ar
    10    10     8   ar
    11    10    11   ar
    12     8     6   ar
    13    12    11    1
    14    41    40    2
    15    11     9   ar
    16     6     5    1
    17     6     7   ar
    18     5     2    1
    19    51    50    1
    20    51    52    2
    21    50    49    1
    22     9     7   ar
    23    40    49   am
    24    40    39    1
    25    38    39    1
    26    38    36   am
    27    35    36    1
    28    35    34    1
    29     2     1    1
    30     2     3    1
    31    39    42    1
    32    42    43    1
    33    36    37    2
    34    26    25    1
    35    25    22    1
    36     3     4    2
    37     3    13   am
    38    43    44    1
    39    13    14    1
    40    16    15    2
    41    44    45    1
    42    22    21    1
    43    22    23    1
    44    15    21   am
    45    15    14    1
    46    61    62    1
    47    14    17    1
    48    33    27    1
    49    33    32    1
    50    23    27   am
    51    23    24    2
    52    29    30    2
    53    29    28    1
    54    27    28    1
    55    67    69   ar
    56    67    66   ar
    57    45    46    2
    58    69    70   ar
    59   123   122    2
    60    32    31    1
    61    17    18    1
    62    28    31    1
    63    20    18    1
    64   131   132    1
    65   131   129   am
    66    62    63    1
    67    62    65    1
    68   128   129    1
    69   128   127    1
    70    64    63    2
    71   132   133    1
    72    66    65    1
    73    66    68   ar
    74    46    47    1
    75    46    48    1
    76    63    75   am
    77    18    19    1
    78   122   127   am
    79   122   121    1
    80   129   130    2
    81    70    72   ar
    82    70    68   ar
    83   110   109    1
    84   133   134    2
    85   115   114    2
    86    72    74   ar
    87    68    71   ar
    88    75    76    1
    89   121   124    1
    90   121   120    1
    91   111   109    1
    92    79    76    1
    93    79    80    1
    94   124   125    1
    95   124   126    1
    96    76    77    1
    97   109   106    1
    98   114   120   am
    99   114   113    1
   100    74    73   ar
   101    71    73   ar
   102   112   113    1
   103   112   107   am
   104   106   107    1
   105   106   105    1
   106   113   116    1
   107   139   140    1
   108   139   136    1
   109   140   141    1
   110   107   108    2
   111    77    78    2
   112    77    81   am
   113   116   117    1
   114    96    95    2
   115   141   135    1
   116   105    95   am
   117    81    82    1
   118   137   136    1
   119   137   138    2
   120    95    94    1
   121   136   135    1
   122    92    91    2
   123   117   118    1
   124   117   119    1
   125    93    94    1
   126    94    97    1
   127    87    85    1
   128    91    90    1
   129    82    85    1
   130    82    83    1
   131    89    90    1
   132    89    83   am
   133    86    85    1
   134    86    88    1
   135    83    84    2
   136    97    98    1
   137    99    98   ar
   138    99   101   ar
   139    98   100   ar
   140   101   103   ar
   141   100   102   ar
   142   103   102   ar
   143   103   104    1
