@<TRIPOS>MOLECULE
tmp/4ypzA00.pdb
 141 143 0 0 0
SMALL
GASTEIGER

@<TRIPOS>ATOM
      1  N        -27.8390   36.4180  -13.8470 N.3    88  TYR88      -0.1227
      2  CA       -26.4420   36.8170  -13.9200 C.3    88  TYR88       0.1736
      3  C        -26.1060   37.6170  -12.6560 C.2    88  TYR88       0.2595
      4  O        -26.7210   38.6530  -12.4010 O.2    88  TYR88      -0.2718
      5  CB       -26.1790   37.6490  -15.1820 C.3    88  TYR88       0.0548
      6  CG       -24.7720   38.2120  -15.2910 C.ar   88  TYR88      -0.0200
      7  CD1      -23.6590   37.4550  -14.9370 C.ar   88  TYR88      -0.0009
      8  CD2      -24.5580   39.4850  -15.8080 C.ar   88  TYR88      -0.0009
      9  CE1      -22.3670   37.9780  -15.0630 C.ar   88  TYR88       0.0417
     10  CE2      -23.2890   40.0060  -15.9310 C.ar   88  TYR88       0.0417
     11  CZ       -22.1990   39.2560  -15.5520 C.ar   88  TYR88       0.1957
     12  OH       -20.9380   39.7900  -15.6930 O.3    88  TYR88      -0.2866
     13  N        -25.1520   37.1370  -11.8580 N.am   89  LEU89      -0.1966
     14  CA       -24.7330   37.9100  -10.6870 C.3    89  LEU89       0.1728
     15  C        -23.8730   39.0770  -11.1670 C.2    89  LEU89       0.2617
     16  O        -22.7930   38.8780  -11.7120 O.2    89  LEU89      -0.2715
     17  CB       -23.9700   37.0420   -9.6750 C.3    89  LEU89       0.0311
     18  CG       -24.7750   36.1500   -8.7060 C.3    89  LEU89       0.0022
     19  CD1      -25.8650   36.9340   -7.9920 C.3    89  LEU89       0.0001
     20  CD2      -25.3690   34.9390   -9.4020 C.3    89  LEU89       0.0001
     21  N        -24.3440   40.2980  -10.9510 N.am   90  SER90      -0.1936
     22  CA       -23.7000   41.4410  -11.5790 C.3    90  SER90       0.2040
     23  C        -23.8180   42.7150  -10.7650 C.2    90  SER90       0.2485
     24  O        -24.8630   42.9780  -10.1850 O.2    90  SER90      -0.2729
     25  CB       -24.3100   41.6540  -12.9690 C.3    90  SER90       0.2129
     26  OG       -24.1240   42.9780  -13.4030 O.3    90  SER90      -0.2179
     27  N        -22.7450   43.5210  -10.7280 N.am   91  PRO91      -0.2726
     28  CA       -22.8050   44.8190  -10.0430 C.3    91  PRO91       0.1402
     29  C        -23.8370   45.7490  -10.6890 C.2    91  PRO91       0.2269
     30  O        -24.3130   46.6830  -10.0500 O.2    91  PRO91      -0.2865
     31  CB       -21.3870   45.3740  -10.2090 C.3    91  PRO91       0.0296
     32  CG       -20.5380   44.1760  -10.4950 C.3    91  PRO91       0.0237
     33  CD       -21.3980   43.2170  -11.2360 C.3    91  PRO91       0.0939
     34  N        -19.6510   35.6290  -13.1530 N.3   115  GLY115     -0.1210
     35  CA       -18.6690   36.2270  -14.0400 C.3   115  GLY115      0.1956
     36  C        -17.3180   36.3610  -13.3680 C.2   115  GLY115      0.2612
     37  O        -17.2320   36.4180  -12.1440 O.2   115  GLY115     -0.2717
     38  N        -16.2680   36.4070  -14.1830 N.am  116  ARG116     -0.1965
     39  CA       -14.9180   36.6830  -13.7350 C.3   116  ARG116      0.1729
     40  C        -14.3520   37.7490  -14.6840 C.2   116  ARG116      0.2616
     41  O        -15.0200   38.1250  -15.6530 O.2   116  ARG116     -0.2715
     42  CB       -14.0660   35.4010  -13.7300 C.3   116  ARG116      0.0348
     43  CG       -14.3670   34.4490  -12.5560 C.3   116  ARG116      0.0492
     44  CD       -13.4620   34.7480  -11.3760 C.3   116  ARG116      0.2205
     45  NE       -14.0490   34.3370  -10.1070 N.pl3 116  ARG116     -0.0865
     46  CZ       -13.3890   34.3300   -8.9600 C.cat 116  ARG116      0.5346
     47  NH1      -12.1120   34.7070   -8.9330 N.pl3 116  ARG116      0.1354
     48  NH2      -13.9970   33.9390   -7.8440 N.pl3 116  ARG116      0.1354
     49  N        -13.1440   38.2270  -14.4100 N.am  117  TYR117     -0.1974
     50  CA       -12.5220   39.2870  -15.2190 C.3   117  TYR117      0.1639
     51  C        -13.4230   40.5330  -15.2460 C.2   117  TYR117      0.2290
     52  O        -14.0190   40.8840  -14.2240 O.2   117  TYR117     -0.2864
     53  CB       -12.2200   38.7690  -16.6370 C.3   117  TYR117      0.0560
     54  CG       -11.7120   37.3410  -16.6360 C.ar  117  TYR117     -0.0198
     55  CD1      -10.4650   37.0310  -16.1060 C.ar  117  TYR117     -0.0009
     56  CD2      -12.4890   36.3000  -17.1350 C.ar  117  TYR117     -0.0009
     57  CE1       -9.9980   35.7280  -16.0800 C.ar  117  TYR117      0.0417
     58  CE2      -12.0240   34.9830  -17.1180 C.ar  117  TYR117      0.0417
     59  CZ       -10.7800   34.7090  -16.5830 C.ar  117  TYR117      0.1957
     60  OH       -10.3130   33.4140  -16.5480 O.3   117  TYR117     -0.2866
     61  N        -28.8170   40.5010  -10.9920 N.3   133  TRP133     -0.1227
     62  CA       -28.9340   40.8120   -9.5580 C.3   133  TRP133      0.1737
     63  C        -27.5670   41.1180   -8.9490 C.2   133  TRP133      0.2596
     64  O        -26.5840   40.4350   -9.2530 O.2   133  TRP133     -0.2718
     65  CB       -29.5660   39.6460   -8.7900 C.3   133  TRP133      0.0564
     66  CG       -31.0250   39.4800   -9.0390 C.ar  133  TRP133      0.0003
     67  CD1      -31.6100   38.8510  -10.1060 C.ar  133  TRP133      0.0946
     68  CD2      -32.1010   39.9650   -8.2160 C.ar  133  TRP133      0.0152
     69  NE1      -32.9860   38.9170   -9.9940 N.ar  133  TRP133     -0.2442
     70  CE2      -33.3080   39.5870   -8.8420 C.ar  133  TRP133      0.0810
     71  CE3      -32.1580   40.6790   -7.0130 C.ar  133  TRP133      0.0012
     72  CZ2      -34.5580   39.8940   -8.3010 C.ar  133  TRP133      0.0191
     73  CZ3      -33.4010   40.9830   -6.4790 C.ar  133  TRP133      0.0001
     74  CH2      -34.5820   40.5840   -7.1190 C.ar  133  TRP133      0.0015
     75  N        -27.5190   42.1440   -8.1040 N.am  134  SER134     -0.1938
     76  CA       -26.3240   42.4900   -7.3220 C.3   134  SER134      0.2055
     77  C        -26.5530   42.2250   -5.8400 C.2   134  SER134      0.2643
     78  O        -27.6240   42.5370   -5.3200 O.2   134  SER134     -0.2714
     79  CB       -25.9690   43.9680   -7.5070 C.3   134  SER134      0.2130
     80  OG       -25.0170   44.3860   -6.5450 O.3   134  SER134     -0.2179
     81  N        -25.5470   41.7000   -5.1380 N.am  135  ILE135     -0.1963
     82  CA       -25.7050   41.5050   -3.6920 C.3   135  ILE135      0.1727
     83  C        -25.3000   42.7460   -2.8970 C.2   135  ILE135      0.2616
     84  O        -25.5620   42.8380   -1.6960 O.2   135  ILE135     -0.2715
     85  CB       -24.9100   40.2830   -3.1590 C.3   135  ILE135      0.0290
     86  CG1      -23.3950   40.4610   -3.3250 C.3   135  ILE135      0.0022
     87  CG2      -25.4230   39.0010   -3.8010 C.3   135  ILE135      0.0023
     88  CD1      -22.5780   39.7150   -2.2300 C.3   135  ILE135      0.0001
     89  N        -24.6900   43.7150   -3.5640 N.am  136  GLY136     -0.1955
     90  CA       -24.3430   44.9500   -2.8860 C.3   136  GLY136      0.1869
     91  C        -23.4610   45.8660   -3.6990 C.2   136  GLY136      0.2309
     92  O        -22.8520   45.4460   -4.6880 O.2   136  GLY136     -0.2863
     93  N        -20.4990   46.9990   -3.6380 N.3   138  TYR138     -0.1227
     94  CA       -19.0660   46.8640   -3.3930 C.3   138  TYR138      0.1736
     95  C        -18.4670   45.9950   -4.4880 C.2   138  TYR138      0.2595
     96  O        -19.1750   45.2120   -5.1160 O.2   138  TYR138     -0.2718
     97  CB       -18.7780   46.2600   -2.0170 C.3   138  TYR138      0.0548
     98  CG       -19.7990   45.2460   -1.5470 C.ar  138  TYR138     -0.0200
     99  CD1      -19.7680   43.9330   -1.9990 C.ar  138  TYR138     -0.0009
    100  CD2      -20.7900   45.6060   -0.6410 C.ar  138  TYR138     -0.0009
    101  CE1      -20.7010   42.9980   -1.5580 C.ar  138  TYR138      0.0417
    102  CE2      -21.7250   44.6930   -0.2010 C.ar  138  TYR138      0.0417
    103  CZ       -21.6800   43.3970   -0.6560 C.ar  138  TYR138      0.1957
    104  OH       -22.6170   42.4930   -0.2310 O.3   138  TYR138     -0.2866
    105  N        -17.1630   46.1240   -4.7000 N.am  139  VAL139     -0.1966
    106  CA       -16.5140   45.4580   -5.8200 C.3   139  VAL139      0.1727
    107  C        -15.8160   44.1760   -5.3910 C.2   139  VAL139      0.2616
    108  O        -15.0070   44.1900   -4.4610 O.2   139  VAL139     -0.2715
    109  CB       -15.4890   46.3810   -6.5020 C.3   139  VAL139      0.0290
    110  CG1      -14.9320   45.7080   -7.7430 C.3   139  VAL139      0.0023
    111  CG2      -16.1320   47.7170   -6.8580 C.3   139  VAL139      0.0023
    112  N        -16.1410   43.0780   -6.0780 N.am  140  LEU140     -0.1963
    113  CA       -15.5890   41.7590   -5.7680 C.3   140  LEU140      0.1728
    114  C        -14.7920   41.2230   -6.9530 C.2   140  LEU140      0.2617
    115  O        -14.8110   41.8260   -8.0270 O.2   140  LEU140     -0.2715
    116  CB       -16.7040   40.7880   -5.4070 C.3   140  LEU140      0.0311
    117  CG       -17.6210   41.2200   -4.2630 C.3   140  LEU140      0.0022
    118  CD1      -18.7350   40.2190   -4.1030 C.3   140  LEU140      0.0001
    119  CD2      -16.8220   41.3450   -2.9720 C.3   140  LEU140      0.0001
    120  N        -14.1120   40.0910   -6.7630 N.am  141  THR141     -0.1937
    121  CA       -13.2470   39.5260   -7.8120 C.3   141  THR141      0.2028
    122  C        -13.9900   38.5560   -8.7250 C.2   141  THR141      0.2643
    123  O        -13.4520   38.1000   -9.7400 O.2   141  THR141     -0.2714
    124  CB       -12.0380   38.7620   -7.2210 C.3   141  THR141      0.1808
    125  OG1      -12.5020   37.6550   -6.4380 O.3   141  THR141     -0.2208
    126  CG2      -11.1610   39.6840   -6.3720 C.3   141  THR141      0.0379
    127  N        -15.2090   38.2030   -8.3580 N.am  142  GLY142     -0.1939
    128  CA       -15.9800   37.2950   -9.1890 C.3   142  GLY142      0.2014
    129  C        -17.3990   37.1480   -8.6780 C.2   142  GLY142      0.2639
    130  O        -17.7130   37.5960   -7.5710 O.2   142  GLY142     -0.2714
    131  N        -18.2500   36.5060   -9.4710 N.am  143  GLY143     -0.1954
    132  CA       -19.6380   36.3220   -9.0680 C.3   143  GLY143      0.1869
    133  C        -19.9190   35.1440   -8.1460 C.2   143  GLY143      0.2309
    134  O        -21.0630   34.9340   -7.7460 O.2   143  GLY143     -0.2863
    135  N        -21.2020   36.1450   -4.5120 N.3   146  PRO146     -0.2116
    136  CA       -22.6090   36.5570   -4.6310 C.3   146  PRO146      0.1372
    137  C        -23.5870   35.4040   -4.9100 C.2   146  PRO146      0.2244
    138  O        -24.6750   35.3900   -4.3390 O.2   146  PRO146     -0.2868
    139  CB       -22.5800   37.5250   -5.8140 C.3   146  PRO146      0.0268
    140  CG       -21.2170   38.1710   -5.6990 C.3   146  PRO146      0.0207
    141  CD       -20.3130   37.0410   -5.2910 C.3   146  PRO146      0.0892
@<TRIPOS>BOND
     1    56    58   ar
     2    56    54   ar
     3    58    59   ar
     4    53    54    1
     5    53    50    1
     6    54    55   ar
     7    59    60    1
     8    59    57   ar
     9    55    57   ar
    10    10     8   ar
    11    10    11   ar
    12     8     6   ar
    13    12    11    1
    14    41    40    2
    15    11     9   ar
    16     6     5    1
    17     6     7   ar
    18    51    50    1
    19    51    52    2
    20    50    49    1
    21     5     2    1
    22     9     7   ar
    23    40    49   am
    24    40    39    1
    25    38    39    1
    26    38    36   am
    27    35    36    1
    28    35    34    1
    29     2     1    1
    30     2     3    1
    31    39    42    1
    32    42    43    1
    33    26    25    1
    34    36    37    2
    35    25    22    1
    36     3     4    2
    37     3    13   am
    38    43    44    1
    39    13    14    1
    40    16    15    2
    41    22    21    1
    42    22    23    1
    43    44    45    1
    44    33    27    1
    45    33    32    1
    46    15    21   am
    47    15    14    1
    48    61    62    1
    49    23    27   am
    50    23    24    2
    51    27    28    1
    52    29    30    2
    53    29    28    1
    54    14    17    1
    55    32    31    1
    56    31    28    1
    57    45    46    2
    58    67    69   ar
    59    67    66   ar
    60    69    70   ar
    61   123   122    2
    62    17    18    1
    63    62    63    1
    64    62    65    1
    65   131   132    1
    66   131   129   am
    67    20    18    1
    68    64    63    2
    69   128   129    1
    70   128   127    1
    71   132   133    1
    72    66    65    1
    73    66    68   ar
    74    46    47    1
    75    46    48    1
    76    63    75   am
    77    70    72   ar
    78    70    68   ar
    79   122   127   am
    80   122   121    1
    81    18    19    1
    82   129   130    2
    83    72    74   ar
    84    68    71   ar
    85   133   134    2
    86    75    76    1
    87   115   114    2
    88   121   124    1
    89   121   120    1
    90   110   109    1
    91    79    76    1
    92    79    80    1
    93    76    77    1
    94   124   125    1
    95   124   126    1
    96    74    73   ar
    97    71    73   ar
    98   114   120   am
    99   114   113    1
   100   111   109    1
   101   109   106    1
   102   112   113    1
   103   112   107   am
   104    77    78    2
   105    77    81   am
   106   106   107    1
   107   106   105    1
   108   139   140    1
   109   139   136    1
   110   113   116    1
   111   140   141    1
   112   116   117    1
   113   107   108    2
   114   141   135    1
   115    81    82    1
   116    96    95    2
   117   137   136    1
   118   137   138    2
   119   105    95   am
   120    92    91    2
   121   136   135    1
   122    95    94    1
   123   117   118    1
   124   117   119    1
   125    87    85    1
   126    91    90    1
   127    82    85    1
   128    82    83    1
   129    93    94    1
   130    89    83   am
   131    89    90    1
   132    94    97    1
   133    86    85    1
   134    86    88    1
   135    83    84    2
   136    97    98    1
   137    99   101   ar
   138    99    98   ar
   139   101   103   ar
   140    98   100   ar
   141   103   104    1
   142   103   102   ar
   143   100   102   ar
