@<TRIPOS>MOLECULE
tmp/4yq0A00.pdb
 162 164 0 0 0
SMALL
GASTEIGER

@<TRIPOS>ATOM
      1  N        -27.8580   36.8230  -13.6560 N.3    89  TYR89      -0.1227
      2  CA       -26.4630   37.2390  -13.6960 C.3    89  TYR89       0.1736
      3  C        -26.1760   38.1340  -12.4870 C.2    89  TYR89       0.2595
      4  O        -26.9040   39.0880  -12.2380 O.2    89  TYR89      -0.2718
      5  CB       -26.1660   37.9850  -14.9930 C.3    89  TYR89       0.0548
      6  CG       -24.7470   38.5250  -15.1060 C.ar   89  TYR89      -0.0200
      7  CD1      -23.6430   37.7010  -14.8920 C.ar   89  TYR89      -0.0009
      8  CD2      -24.5180   39.8460  -15.4830 C.ar   89  TYR89      -0.0009
      9  CE1      -22.3450   38.1970  -15.0210 C.ar   89  TYR89       0.0417
     10  CE2      -23.2320   40.3440  -15.6160 C.ar   89  TYR89       0.0417
     11  CZ       -22.1540   39.5180  -15.3730 C.ar   89  TYR89       0.1957
     12  OH       -20.8750   40.0160  -15.5150 O.3    89  TYR89      -0.2866
     13  N        -25.1280   37.8060  -11.7390 N.am   90  LEU90      -0.1966
     14  CA       -24.7410   38.5860  -10.5620 C.3    90  LEU90       0.1728
     15  C        -23.7250   39.6650  -10.9290 C.2    90  LEU90       0.2617
     16  O        -22.6550   39.3520  -11.4240 O.2    90  LEU90      -0.2715
     17  CB       -24.1460   37.6710   -9.4770 C.3    90  LEU90       0.0311
     18  CG       -25.0900   36.7950   -8.6510 C.3    90  LEU90       0.0022
     19  CD1      -26.3260   37.5800   -8.2450 C.3    90  LEU90       0.0001
     20  CD2      -25.4550   35.5250   -9.3940 C.3    90  LEU90       0.0001
     21  N        -24.0600   40.9340  -10.6980 N.am   91  SER91      -0.1936
     22  CA       -23.0820   42.0070  -10.8830 C.3    91  SER91       0.2040
     23  C        -23.5380   43.2760  -10.1830 C.2    91  SER91       0.2485
     24  O        -24.6960   43.3850   -9.7950 O.2    91  SER91      -0.2729
     25  CB       -22.8510   42.2970  -12.3660 C.3    91  SER91       0.2129
     26  OG       -23.6980   43.3500  -12.8020 O.3    91  SER91      -0.2179
     27  N        -22.6210   44.2420  -10.0180 N.am   92  PRO92      -0.2726
     28  CA       -22.9600   45.5290   -9.3980 C.3    92  PRO92       0.1402
     29  C        -23.9230   46.3740  -10.2430 C.2    92  PRO92       0.2269
     30  O        -24.4510   47.3690   -9.7370 O.2    92  PRO92      -0.2865
     31  CB       -21.5930   46.2310   -9.2600 C.3    92  PRO92       0.0296
     32  CG       -20.5840   45.1410   -9.3450 C.3    92  PRO92       0.0237
     33  CD       -21.1780   44.1220  -10.2900 C.3    92  PRO92       0.0939
     34  N        -19.6310   35.6980  -13.0680 N.3   116  GLY116     -0.1210
     35  CA       -18.6000   36.3220  -13.8740 C.3   116  GLY116      0.1956
     36  C        -17.2590   36.3400  -13.1790 C.2   116  GLY116      0.2612
     37  O        -17.1880   36.2870  -11.9440 O.2   116  GLY116     -0.2717
     38  N        -16.2030   36.3710  -13.9900 N.am  117  ARG117     -0.1965
     39  CA       -14.8410   36.6130  -13.5080 C.3   117  ARG117      0.1729
     40  C        -14.1960   37.6080  -14.4480 C.2   117  ARG117      0.2616
     41  O        -14.7820   37.9730  -15.4770 O.2   117  ARG117     -0.2715
     42  CB       -14.0150   35.3310  -13.4290 C.3   117  ARG117      0.0348
     43  CG       -14.5640   34.2710  -12.4710 C.3   117  ARG117      0.0492
     44  CD       -14.6850   34.7580  -11.0400 C.3   117  ARG117      0.2205
     45  NE       -13.3900   34.9060  -10.3840 N.pl3 117  ARG117     -0.0865
     46  CZ       -13.1740   34.6590   -9.0930 C.cat 117  ARG117      0.5346
     47  NH1      -14.1600   34.2400   -8.3200 N.pl3 117  ARG117      0.1354
     48  NH2      -11.9680   34.8290   -8.5730 N.pl3 117  ARG117      0.1354
     49  N        -13.0120   38.0830  -14.0800 N.am  118  TYR118     -0.1960
     50  CA       -12.3080   39.1070  -14.8550 C.3   118  TYR118      0.1771
     51  C        -13.1230   40.3910  -14.8600 C.2   118  TYR118      0.2619
     52  O        -13.7290   40.7600  -13.8470 O.2   118  TYR118     -0.2715
     53  CB       -12.0080   38.6210  -16.2870 C.3   118  TYR118      0.0574
     54  CG       -11.4740   37.2090  -16.2930 C.ar  118  TYR118     -0.0198
     55  CD1      -10.3360   36.8800  -15.5670 C.ar  118  TYR118     -0.0009
     56  CD2      -12.1370   36.1890  -16.9740 C.ar  118  TYR118     -0.0009
     57  CE1       -9.8590   35.5740  -15.5330 C.ar  118  TYR118      0.0417
     58  CE2      -11.6590   34.8780  -16.9520 C.ar  118  TYR118      0.0417
     59  CZ       -10.5200   34.5820  -16.2360 C.ar  118  TYR118      0.1957
     60  OH       -10.0460   33.2890  -16.1980 O.3   118  TYR118     -0.2866
     61  N        -13.1170   41.1030  -15.9760 N.am  119  GLU119     -0.1963
     62  CA       -13.6280   42.4660  -15.9480 C.3   119  GLU119      0.1733
     63  C        -15.0150   42.6020  -16.5730 C.2   119  GLU119      0.2617
     64  O        -15.5220   43.7160  -16.7380 O.2   119  GLU119     -0.2715
     65  CB       -12.6180   43.4110  -16.6210 C.3   119  GLU119      0.0429
     66  CG       -11.3800   43.7010  -15.7340 C.3   119  GLU119      0.1163
     67  CD       -10.5950   42.4420  -15.3330 C.2   119  GLU119      0.3649
     68  OE1      -10.0060   41.7830  -16.2260 O.co2 119  GLU119     -0.2457
     69  OE2      -10.5600   42.1060  -14.1220 O.co2 119  GLU119     -0.2457
     70  N        -15.6400   41.4690  -16.8830 N.am  120  GLY120     -0.1940
     71  CA       -16.9990   41.4720  -17.3860 C.3   120  GLY120      0.2014
     72  C        -17.3400   40.3230  -18.3190 C.2   120  GLY120      0.2638
     73  O        -16.4950   39.4650  -18.6260 O.2   120  GLY120     -0.2714
     74  N        -18.5950   40.2920  -18.7520 N.am  121  ILE121     -0.1977
     75  CA       -19.0050   39.3850  -19.8250 C.3   121  ILE121      0.1596
     76  C        -19.5830   40.2100  -20.9600 C.2   121  ILE121      0.2287
     77  O        -19.9990   41.3600  -20.7670 O.2   121  ILE121     -0.2864
     78  CB       -20.0460   38.3250  -19.3740 C.3   121  ILE121      0.0276
     79  CG1      -21.4240   38.9500  -19.1940 C.3   121  ILE121      0.0022
     80  CG2      -19.5900   37.5750  -18.1070 C.3   121  ILE121      0.0022
     81  CD1      -22.4810   37.9510  -18.7790 C.3   121  ILE121      0.0001
     82  N        -28.9030   40.9060  -10.9320 N.3   134  TRP134     -0.1227
     83  CA       -29.0360   41.2750   -9.5140 C.3   134  TRP134      0.1737
     84  C        -27.6910   41.6000   -8.8940 C.2   134  TRP134      0.2596
     85  O        -26.6800   40.9970   -9.2500 O.2   134  TRP134     -0.2718
     86  CB       -29.6650   40.1380   -8.7040 C.3   134  TRP134      0.0564
     87  CG       -31.1160   39.8910   -8.9730 C.ar  134  TRP134      0.0003
     88  CD1      -31.6520   39.1840  -10.0110 C.ar  134  TRP134      0.0946
     89  CD2      -32.2170   40.3220   -8.1680 C.ar  134  TRP134      0.0152
     90  NE1      -33.0280   39.1670   -9.9080 N.ar  134  TRP134     -0.2442
     91  CE2      -33.3940   39.8550   -8.7800 C.ar  134  TRP134      0.0810
     92  CE3      -32.3210   41.0640   -6.9860 C.ar  134  TRP134      0.0012
     93  CZ2      -34.6620   40.1040   -8.2530 C.ar  134  TRP134      0.0191
     94  CZ3      -33.5720   41.3080   -6.4670 C.ar  134  TRP134      0.0001
     95  CH2      -34.7280   40.8290   -7.0990 C.ar  134  TRP134      0.0015
     96  N        -27.7000   42.5280   -7.9470 N.am  135  SER135     -0.1938
     97  CA       -26.5130   42.8680   -7.1620 C.3   135  SER135      0.2055
     98  C        -26.7310   42.5670   -5.6860 C.2   135  SER135      0.2643
     99  O        -27.8000   42.8610   -5.1520 O.2   135  SER135     -0.2714
    100  CB       -26.1730   44.3500   -7.3060 C.3   135  SER135      0.2130
    101  OG       -25.1890   44.7060   -6.3550 O.3   135  SER135     -0.2179
    102  N        -25.7200   42.0320   -5.0000 N.am  136  ILE136     -0.1963
    103  CA       -25.8940   41.8180   -3.5640 C.3   136  ILE136      0.1727
    104  C        -25.5030   43.0540   -2.7540 C.2   136  ILE136      0.2616
    105  O        -25.7540   43.1220   -1.5420 O.2   136  ILE136     -0.2715
    106  CB       -25.0970   40.5970   -3.0580 C.3   136  ILE136      0.0290
    107  CG1      -23.5930   40.7820   -3.2750 C.3   136  ILE136      0.0022
    108  CG2      -25.6100   39.3310   -3.7320 C.3   136  ILE136      0.0023
    109  CD1      -22.7400   39.9880   -2.2620 C.3   136  ILE136      0.0001
    110  N        -24.9140   44.0430   -3.4180 N.am  137  GLY137     -0.1955
    111  CA       -24.5280   45.2590   -2.7230 C.3   137  GLY137      0.1869
    112  C        -23.6340   46.1470   -3.5590 C.2   137  GLY137      0.2309
    113  O        -23.0330   45.6880   -4.5330 O.2   137  GLY137     -0.2863
    114  N        -20.6820   47.2690   -3.8610 N.3   139  TYR139     -0.1227
    115  CA       -19.2440   47.0970   -3.6910 C.3   139  TYR139      0.1736
    116  C        -18.7920   46.1510   -4.7870 C.2   139  TYR139      0.2595
    117  O        -19.6230   45.4740   -5.4120 O.2   139  TYR139     -0.2718
    118  CB       -18.8940   46.5640   -2.2850 C.3   139  TYR139      0.0548
    119  CG       -19.9030   45.5680   -1.7440 C.ar  139  TYR139     -0.0200
    120  CD1      -19.8710   44.2330   -2.1360 C.ar  139  TYR139     -0.0009
    121  CD2      -20.8860   45.9640   -0.8470 C.ar  139  TYR139     -0.0009
    122  CE1      -20.7920   43.3220   -1.6560 C.ar  139  TYR139      0.0417
    123  CE2      -21.8140   45.0580   -0.3530 C.ar  139  TYR139      0.0417
    124  CZ       -21.7610   43.7350   -0.7620 C.ar  139  TYR139      0.1957
    125  OH       -22.6900   42.8350   -0.2880 O.3   139  TYR139     -0.2866
    126  N        -17.4900   46.1100   -5.0480 N.am  140  VAL140     -0.1966
    127  CA       -16.9820   45.3220   -6.1670 C.3   140  VAL140      0.1727
    128  C        -16.1680   44.1440   -5.6680 C.2   140  VAL140      0.2616
    129  O        -15.2770   44.3100   -4.8290 O.2   140  VAL140     -0.2715
    130  CB       -16.1180   46.1900   -7.1040 C.3   140  VAL140      0.0290
    131  CG1      -15.6300   45.3790   -8.2940 C.3   140  VAL140      0.0023
    132  CG2      -16.9180   47.4010   -7.5670 C.3   140  VAL140      0.0023
    133  N        -16.4970   42.9600   -6.1740 N.am  141  LEU141     -0.1963
    134  CA       -15.8100   41.7310   -5.8000 C.3   141  LEU141      0.1728
    135  C        -15.0080   41.1870   -6.9670 C.2   141  LEU141      0.2617
    136  O        -15.1280   41.6740   -8.1040 O.2   141  LEU141     -0.2715
    137  CB       -16.8210   40.6840   -5.3180 C.3   141  LEU141      0.0311
    138  CG       -17.7340   41.2100   -4.1960 C.3   141  LEU141      0.0022
    139  CD1      -18.8380   40.2140   -3.9170 C.3   141  LEU141      0.0001
    140  CD2      -16.9600   41.5220   -2.9380 C.3   141  LEU141      0.0001
    141  N        -14.1930   40.1690   -6.7000 N.am  142  THR142     -0.1937
    142  CA       -13.3530   39.6010   -7.7490 C.3   142  THR142      0.2028
    143  C        -14.0890   38.6270   -8.6700 C.2   142  THR142      0.2643
    144  O        -13.6000   38.3030   -9.7540 O.2   142  THR142     -0.2714
    145  CB       -12.1310   38.8700   -7.1590 C.3   142  THR142      0.1808
    146  OG1      -12.5780   37.7370   -6.3960 O.3   142  THR142     -0.2208
    147  CG2      -11.3110   39.8200   -6.2920 C.3   142  THR142      0.0379
    148  N        -15.2690   38.1670   -8.2690 N.am  143  GLY143     -0.1939
    149  CA       -16.0500   37.2820   -9.1200 C.3   143  GLY143      0.2014
    150  C        -17.4690   37.1460   -8.6060 C.2   143  GLY143      0.2639
    151  O        -17.7890   37.6130   -7.5020 O.2   143  GLY143     -0.2714
    152  N        -18.3280   36.5090   -9.3880 N.am  144  GLY144     -0.1954
    153  CA       -19.7280   36.4030   -8.9950 C.3   144  GLY144      0.1869
    154  C        -20.0620   35.2180   -8.0980 C.2   144  GLY144      0.2309
    155  O        -21.2230   35.0520   -7.7020 O.2   144  GLY144     -0.2863
    156  N        -21.3500   36.3130   -4.4700 N.3   147  PRO147     -0.2116
    157  CA       -22.7440   36.7760   -4.5840 C.3   147  PRO147      0.1372
    158  C        -23.7100   35.6460   -4.8900 C.2   147  PRO147      0.2244
    159  O        -24.8120   35.6340   -4.3680 O.2   147  PRO147     -0.2868
    160  CB       -22.6890   37.7730   -5.7430 C.3   147  PRO147      0.0268
    161  CG       -21.2540   38.3210   -5.6710 C.3   147  PRO147      0.0207
    162  CD       -20.4120   37.1440   -5.2590 C.3   147  PRO147      0.0892
@<TRIPOS>BOND
     1    76    77    2
     2    76    75    1
     3    75    78    1
     4    75    74    1
     5    78    79    1
     6    78    80    1
     7    79    81    1
     8    74    72   am
     9    73    72    2
    10    72    71    1
    11    71    70    1
    12    56    58   ar
    13    56    54   ar
    14    58    59   ar
    15    70    63   am
    16    64    63    2
    17    65    62    1
    18    65    66    1
    19    63    62    1
    20    54    53    1
    21    54    55   ar
    22    53    50    1
    23    59    60    1
    24    59    57   ar
    25    68    67   ar
    26    61    62    1
    27    61    51   am
    28    66    67    1
    29    10     8   ar
    30    10    11   ar
    31    55    57   ar
    32    12    11    1
    33     8     6   ar
    34    41    40    2
    35    11     9   ar
    36    67    69   ar
    37     6     5    1
    38     6     7   ar
    39     9     7   ar
    40     5     2    1
    41    51    50    1
    42    51    52    2
    43    50    49    1
    44    40    49   am
    45    40    39    1
    46    38    39    1
    47    38    36   am
    48    35    36    1
    49    35    34    1
    50     2     1    1
    51     2     3    1
    52    39    42    1
    53    42    43    1
    54    36    37    2
    55    26    25    1
    56     3     4    2
    57     3    13   am
    58    43    44    1
    59    25    22    1
    60    13    14    1
    61    16    15    2
    62    44    45    1
    63    82    83    1
    64    15    21   am
    65    15    14    1
    66    22    21    1
    67    22    23    1
    68    14    17    1
    69    45    46    2
    70    33    27    1
    71    33    32    1
    72    29    30    2
    73    29    28    1
    74    23    27   am
    75    23    24    2
    76    27    28    1
    77    88    90   ar
    78    88    87   ar
    79    90    91   ar
    80   144   143    2
    81    83    84    1
    82    83    86    1
    83    17    18    1
    84    28    31    1
    85    20    18    1
    86   152   153    1
    87   152   150   am
    88    32    31    1
    89    85    84    2
    90   149   150    1
    91   149   148    1
    92    46    48    1
    93    46    47    1
    94   153   154    1
    95    87    86    1
    96    87    89   ar
    97    84    96   am
    98    91    93   ar
    99    91    89   ar
   100   143   148   am
   101   143   142    1
   102    18    19    1
   103   150   151    2
   104   131   130    1
   105    93    95   ar
   106    89    92   ar
   107   136   135    2
   108   154   155    2
   109    96    97    1
   110   142   145    1
   111   142   141    1
   112   132   130    1
   113   100    97    1
   114   100   101    1
   115    97    98    1
   116   145   146    1
   117   145   147    1
   118   130   127    1
   119    95    94   ar
   120    92    94   ar
   121   135   141   am
   122   135   134    1
   123   133   134    1
   124   133   128   am
   125   127   128    1
   126   127   126    1
   127   134   137    1
   128   160   161    1
   129   160   157    1
   130    98    99    2
   131    98   102   am
   132   161   162    1
   133   128   129    2
   134   117   116    2
   135   137   138    1
   136   162   156    1
   137   126   116   am
   138   102   103    1
   139   158   157    1
   140   158   159    2
   141   116   115    1
   142   157   156    1
   143   113   112    2
   144   138   139    1
   145   138   140    1
   146   114   115    1
   147   108   106    1
   148   115   118    1
   149   103   106    1
   150   103   104    1
   151   112   111    1
   152   110   104   am
   153   110   111    1
   154   107   106    1
   155   107   109    1
   156   104   105    2
   157   118   119    1
   158   120   119   ar
   159   120   122   ar
   160   119   121   ar
   161   122   124   ar
   162   121   123   ar
   163   124   123   ar
   164   124   125    1
