@<TRIPOS>MOLECULE
tmp/4yq1A00.pdb
 171 174 0 0 0
SMALL
GASTEIGER

@<TRIPOS>ATOM
      1  N         43.8030   -4.1320   14.3730 N.3    94  TYR94      -0.1227
      2  CA        43.4500   -2.7320   14.2150 C.3    94  TYR94       0.1736
      3  C         43.9890   -2.2490   12.8660 C.2    94  TYR94       0.2595
      4  O         45.2000   -2.2860   12.6380 O.2    94  TYR94      -0.2718
      5  CB        44.0080   -1.9120   15.3740 C.3    94  TYR94       0.0548
      6  CG        43.7970   -0.4180   15.2670 C.ar   94  TYR94      -0.0200
      7  CD1       42.5750    0.1040   14.8730 C.ar   94  TYR94      -0.0009
      8  CD2       44.8160    0.4730   15.6040 C.ar   94  TYR94      -0.0009
      9  CE1       42.3740    1.4730   14.7750 C.ar   94  TYR94       0.0417
     10  CE2       44.6270    1.8630   15.5040 C.ar   94  TYR94       0.0417
     11  CZ        43.4020    2.3440   15.0980 C.ar   94  TYR94       0.1957
     12  OH        43.1930    3.6930   15.0030 O.3    94  TYR94      -0.2866
     13  N         43.0990   -1.8270   11.9640 N.am   95  LEU95      -0.1966
     14  CA        43.5500   -1.2340   10.6990 C.3    95  LEU95       0.1728
     15  C         44.1320    0.1390   11.0240 C.2    95  LEU95       0.2617
     16  O         43.4290    1.0100   11.5160 O.2    95  LEU95      -0.2715
     17  CB        42.4060   -1.1270    9.6820 C.3    95  LEU95       0.0311
     18  CG        42.0160   -2.4020    8.9090 C.3    95  LEU95       0.0022
     19  CD1       43.1700   -2.8910    8.0750 C.3    95  LEU95       0.0001
     20  CD2       41.5210   -3.5140    9.8410 C.3    95  LEU95       0.0001
     21  N         45.4180    0.3410   10.7650 N.am   96  SER96      -0.1936
     22  CA        46.0370    1.5730   11.2290 C.3    96  SER96       0.2040
     23  C         47.2700    1.9460   10.4320 C.2    96  SER96       0.2485
     24  O         48.0480    1.0740   10.0600 O.2    96  SER96      -0.2729
     25  CB        46.3890    1.4480   12.7140 C.3    96  SER96       0.2129
     26  OG        47.7740    1.4420   12.9340 O.3    96  SER96      -0.2179
     27  N         47.4650    3.2570   10.2000 N.am   97  PRO97      -0.2715
     28  CA        48.5960    3.7460    9.4040 C.3    97  PRO97       0.1536
     29  C         49.9550    3.4860   10.0810 C.2    97  PRO97       0.2598
     30  O         50.9800    3.5920    9.4000 O.2    97  PRO97      -0.2715
     31  CB        48.3150    5.2510    9.2800 C.3    97  PRO97       0.0310
     32  CG        47.4680    5.5860   10.4470 C.3    97  PRO97       0.0237
     33  CD        46.6420    4.3580   10.7360 C.3    97  PRO97       0.0939
     34  N         49.9570    3.1560   11.3790 N.am   98  GLN98      -0.1978
     35  CA        51.1900    2.8580   12.0980 C.3    98  GLN98       0.1601
     36  C         51.4300    1.3450   12.1510 C.2    98  GLN98       0.2287
     37  O         52.3310    0.8690   12.8450 O.2    98  GLN98      -0.2864
     38  CB        51.1400    3.4460   13.5150 C.3    98  GLN98       0.0394
     39  CG        50.5970    4.8790   13.5630 C.3    98  GLN98       0.0908
     40  CD        50.6730    5.5110   14.9430 C.2    98  GLN98       0.2608
     41  OE1       50.5440    4.8330   15.9640 O.2    98  GLN98      -0.2717
     42  NE2       50.8830    6.8230   14.9780 N.am   98  GLN98      -0.0878
     43  N         39.2540    2.5100   12.6400 N.3   121  GLY121     -0.1210
     44  CA        39.3110    3.7960   13.3100 C.3   121  GLY121      0.1956
     45  C         38.5920    4.9060   12.5540 C.2   121  GLY121      0.2612
     46  O         38.4990    4.8790   11.3130 O.2   121  GLY121     -0.2717
     47  N         38.0530    5.8670   13.3060 N.am  122  ARG122     -0.1965
     48  CA        37.5950    7.1560   12.7540 C.3   122  ARG122      0.1729
     49  C         38.2370    8.2760   13.5690 C.2   122  ARG122      0.2616
     50  O         38.9460    7.9970   14.5280 O.2   122  ARG122     -0.2715
     51  CB        36.0660    7.3000   12.7810 C.3   122  ARG122      0.0348
     52  CG        35.2680    6.2070   12.0530 C.3   122  ARG122      0.0492
     53  CD        35.6090    6.0720   10.5870 C.3   122  ARG122      0.2205
     54  NE        35.1830    7.2150    9.8070 N.pl3 122  ARG122     -0.0865
     55  CZ        34.9210    7.1680    8.5000 C.cat 122  ARG122      0.5346
     56  NH1       35.0350    6.0270    7.8330 N.pl3 122  ARG122      0.1354
     57  NH2       34.5470    8.2650    7.8540 N.pl3 122  ARG122      0.1354
     58  N         37.9780    9.5280   13.1950 N.am  123  TYR123     -0.1960
     59  CA        38.5890   10.6960   13.8370 C.3   123  TYR123      0.1771
     60  C         40.1070   10.5630   13.7630 C.2   123  TYR123      0.2619
     61  O         40.6130   10.2300   12.7040 O.2   123  TYR123     -0.2715
     62  CB        38.0690   10.8530   15.2760 C.3   123  TYR123      0.0574
     63  CG        36.5800   10.5930   15.3380 C.ar  123  TYR123     -0.0198
     64  CD1       35.6950   11.3720   14.5980 C.ar  123  TYR123     -0.0009
     65  CD2       36.0650    9.5450   16.0830 C.ar  123  TYR123     -0.0009
     66  CE1       34.3380   11.1370   14.6210 C.ar  123  TYR123      0.0417
     67  CE2       34.7000    9.2970   16.1140 C.ar  123  TYR123      0.0417
     68  CZ        33.8460   10.0990   15.3740 C.ar  123  TYR123      0.1957
     69  OH        32.4940    9.8650   15.4020 O.3   123  TYR123     -0.2866
     70  N         40.8460   10.8090   14.8470 N.am  124  GLU124     -0.1963
     71  CA        42.3080   10.6550   14.7760 C.3   124  GLU124      0.1733
     72  C         42.7670    9.2790   15.2490 C.2   124  GLU124      0.2616
     73  O         43.9630    9.0130   15.3350 O.2   124  GLU124     -0.2715
     74  CB        43.0290   11.7270   15.5910 C.3   124  GLU124      0.0429
     75  CG        42.6060   13.1370   15.2720 C.3   124  GLU124      0.1163
     76  CD        42.9610   13.5770   13.8710 C.2   124  GLU124      0.3649
     77  OE1       43.9640   13.0810   13.3150 O.co2 124  GLU124     -0.2457
     78  OE2       42.2280   14.4290   13.3260 O.co2 124  GLU124     -0.2457
     79  N         41.8190    8.4060   15.5560 N.am  125  GLY125     -0.1955
     80  CA        42.1610    7.0450   15.9010 C.3   125  GLY125      0.1869
     81  C         41.7090    6.6490   17.3040 C.2   125  GLY125      0.2309
     82  O         40.7280    7.1650   17.8400 O.2   125  GLY125     -0.2863
     83  N         47.8610   -3.4300   11.2590 N.3   139  TRP139     -0.1227
     84  CA        48.1770   -3.6060    9.8520 C.3   139  TRP139      0.1737
     85  C         47.7390   -2.3900    9.0560 C.2   139  TRP139      0.2596
     86  O         46.6830   -1.8180    9.3410 O.2   139  TRP139     -0.2718
     87  CB        47.4790   -4.8510    9.3030 C.3   139  TRP139      0.0564
     88  CG        48.0780   -6.1140    9.7470 C.ar  139  TRP139      0.0003
     89  CD1       47.7420   -6.8430   10.8560 C.ar  139  TRP139      0.0946
     90  CD2       49.1320   -6.8300    9.0950 C.ar  139  TRP139      0.0152
     91  NE1       48.5230   -7.9750   10.9280 N.ar  139  TRP139     -0.2442
     92  CE2       49.3810   -7.9920    9.8570 C.ar  139  TRP139      0.0810
     93  CE3       49.8800   -6.6080    7.9300 C.ar  139  TRP139      0.0012
     94  CZ2       50.3510   -8.9230    9.5000 C.ar  139  TRP139      0.0191
     95  CZ3       50.8490   -7.5320    7.5780 C.ar  139  TRP139      0.0001
     96  CH2       51.0690   -8.6800    8.3550 C.ar  139  TRP139      0.0015
     97  N         48.5370   -2.0270    8.0540 N.am  140  SER140     -0.1938
     98  CA        48.2530   -0.8990    7.1700 C.3   140  SER140      0.2055
     99  C         48.2540   -1.3310    5.7120 C.2   140  SER140      0.2643
    100  O         49.1540   -2.0580    5.2800 O.2   140  SER140     -0.2714
    101  CB        49.2900    0.2170    7.3530 C.3   140  SER140      0.2130
    102  OG        49.1740    1.1710    6.3080 O.3   140  SER140     -0.2179
    103  N         47.2800   -0.8580    4.9390 N.am  141  ILE141     -0.1963
    104  CA        47.2600   -1.1770    3.5100 C.3   141  ILE141      0.1727
    105  C         48.1490   -0.2580    2.6690 C.2   141  ILE141      0.2617
    106  O         48.3910   -0.5450    1.4970 O.2   141  ILE141     -0.2715
    107  CB        45.8230   -1.1230    2.9360 C.3   141  ILE141      0.0290
    108  CG1       45.2810    0.3180    2.9720 C.3   141  ILE141      0.0022
    109  CG2       44.9190   -2.0950    3.6910 C.3   141  ILE141      0.0023
    110  CD1       44.0900    0.5590    1.9930 C.3   141  ILE141      0.0001
    111  N         48.6200    0.8490    3.2440 N.am  142  GLY142     -0.1940
    112  CA        49.5020    1.7330    2.4990 C.3   142  GLY142      0.2014
    113  C         49.8070    3.0450    3.1880 C.2   142  GLY142      0.2639
    114  O         49.1780    3.3850    4.1920 O.2   142  GLY142     -0.2714
    115  N         50.7730    3.7880    2.6460 N.am  143  ASP143     -0.1957
    116  CA        51.2020    5.0520    3.2500 C.3   143  ASP143      0.1840
    117  C         50.5200    6.2660    2.6220 C.2   143  ASP143      0.2622
    118  O         51.1160    7.0230    1.8540 O.2   143  ASP143     -0.2715
    119  CB        52.7150    5.1890    3.1560 C.3   143  ASP143      0.1450
    120  CG        53.4360    4.1800    4.0410 C.2   143  ASP143      0.3671
    121  OD1       52.8960    3.8410    5.1260 O.co2 143  ASP143     -0.2456
    122  OD2       54.5240    3.7170    3.6510 O.co2 143  ASP143     -0.2456
    123  N         49.2570    6.4530    2.9660 N.am  144  TYR144     -0.1960
    124  CA        48.5200    7.6140    2.4960 C.3   144  TYR144      0.1771
    125  C         47.4890    7.9420    3.5640 C.2   144  TYR144      0.2619
    126  O         47.1880    7.1020    4.4150 O.2   144  TYR144     -0.2715
    127  CB        47.8600    7.3390    1.1420 C.3   144  TYR144      0.0574
    128  CG        47.5170    5.8740    0.9110 C.ar  144  TYR144     -0.0198
    129  CD1       46.3580    5.3090    1.4430 C.ar  144  TYR144     -0.0009
    130  CD2       48.3510    5.0570    0.1540 C.ar  144  TYR144     -0.0009
    131  CE1       46.0450    3.9580    1.2350 C.ar  144  TYR144      0.0417
    132  CE2       48.0440    3.7180   -0.0590 C.ar  144  TYR144      0.0417
    133  CZ        46.8920    3.1750    0.4770 C.ar  144  TYR144      0.1957
    134  OH        46.6000    1.8380    0.2590 O.3   144  TYR144     -0.2866
    135  N         46.9730    9.1640    3.5400 N.am  145  VAL145     -0.1963
    136  CA        46.0710    9.6210    4.5980 C.3   145  VAL145      0.1727
    137  C         44.6250    9.3540    4.2150 C.2   145  VAL145      0.2616
    138  O         44.1750    9.8290    3.1770 O.2   145  VAL145     -0.2715
    139  CB        46.2400   11.1280    4.8740 C.3   145  VAL145      0.0290
    140  CG1       45.3140   11.5430    6.0190 C.3   145  VAL145      0.0023
    141  CG2       47.7050   11.4620    5.2040 C.3   145  VAL145      0.0023
    142  N         43.9090    8.6000    5.0470 N.am  146  LEU146     -0.1963
    143  CA        42.4920    8.2900    4.8020 C.3   146  LEU146      0.1728
    144  C         41.5960    8.9140    5.8680 C.2   146  LEU146      0.2617
    145  O         42.1000    9.4740    6.8270 O.2   146  LEU146     -0.2715
    146  CB        42.2680    6.7740    4.7640 C.3   146  LEU146      0.0311
    147  CG        43.0420    6.0590    3.6650 C.3   146  LEU146      0.0022
    148  CD1       42.7180    4.5540    3.6920 C.3   146  LEU146      0.0001
    149  CD2       42.7630    6.6670    2.2770 C.3   146  LEU146      0.0001
    150  N         40.2750    8.8200    5.7140 N.am  147  THR147     -0.1937
    151  CA        39.3900    9.3550    6.7580 C.3   147  THR147      0.2028
    152  C         38.8060    8.2710    7.6480 C.2   147  THR147      0.2643
    153  O         38.0480    8.5710    8.5640 O.2   147  THR147     -0.2714
    154  CB        38.2170   10.1610    6.1770 C.3   147  THR147      0.1808
    155  OG1       37.3960    9.2940    5.3850 O.3   147  THR147     -0.2208
    156  CG2       38.7290   11.3150    5.3270 C.3   147  THR147      0.0379
    157  N         39.1500    7.0150    7.3880 N.am  148  GLY148     -0.1939
    158  CA        38.6130    5.9320    8.2000 C.3   148  GLY148      0.2014
    159  C         39.2830    4.6200    7.8640 C.2   148  GLY148      0.2639
    160  O         39.8940    4.4800    6.8030 O.2   148  GLY148     -0.2714
    161  N         39.1800    3.6530    8.7580 N.am  149  GLY149     -0.1954
    162  CA        39.7910    2.3550    8.5140 C.3   149  GLY149      0.1869
    163  C         38.8650    1.3600    7.8260 C.2   149  GLY149      0.2309
    164  O         39.2420    0.2190    7.6220 O.2   149  GLY149     -0.2863
    165  N         40.2840    0.2620    4.3130 N.3   152  PRO152     -0.2116
    166  CA        41.3470   -0.7330    4.5420 C.3   152  PRO152      0.1372
    167  C         40.8420   -2.0990    5.0210 C.2   152  PRO152      0.2244
    168  O         41.3650   -3.1300    4.5780 O.2   152  PRO152     -0.2868
    169  CB        42.2020   -0.0640    5.6160 C.3   152  PRO152      0.0268
    170  CG        42.1010    1.3820    5.2630 C.3   152  PRO152      0.0207
    171  CD        40.6580    1.5790    4.8710 C.3   152  PRO152      0.0892
@<TRIPOS>BOND
     1   132   130   ar
     2   132   133   ar
     3   130   128   ar
     4   134   133    1
     5   133   131   ar
     6   128   127    1
     7   128   129   ar
     8   127   124    1
     9   131   129   ar
    10   106   105    2
    11   118   117    2
    12   110   108    1
    13   149   147    1
    14   124   123    1
    15   124   125    1
    16   112   113    1
    17   112   111    1
    18   117   123   am
    19   117   116    1
    20   115   113   am
    21   115   116    1
    22   105   111   am
    23   105   104    1
    24   107   108    1
    25   107   104    1
    26   107   109    1
    27   119   116    1
    28   119   120    1
    29   138   137    2
    30   113   114    2
    31   104   103    1
    32   135   125   am
    33   135   136    1
    34   125   126    2
    35   122   120   ar
    36   147   148    1
    37   147   146    1
    38   120   121   ar
    39   137   136    1
    40   137   142   am
    41   165   166    1
    42   165   171    1
    43   166   167    1
    44   166   169    1
    45   168   167    2
    46   136   139    1
    47   146   143    1
    48   143   142    1
    49   143   144    1
    50   171   170    1
    51   139   141    1
    52   139   140    1
    53   103    99   am
    54   170   169    1
    55   100    99    2
    56   156   154    1
    57   155   154    1
    58    99    98    1
    59   150   144   am
    60   150   151    1
    61   144   145    2
    62   154   151    1
    63   102   101    1
    64   151   152    1
    65   160   159    2
    66    98   101    1
    67    98    97    1
    68   157   152   am
    69   157   158    1
    70    95    93   ar
    71    95    96   ar
    72   164   163    2
    73   152   153    2
    74   163   162    1
    75    56    55    1
    76    57    55    1
    77   159   158    1
    78   159   161   am
    79    93    90   ar
    80    97    85   am
    81    19    18    1
    82    96    94   ar
    83    55    54    2
    84   162   161    1
    85    18    17    1
    86    18    20    1
    87    85    86    2
    88    85    84    1
    89    90    88   ar
    90    90    92   ar
    91    31    28    1
    92    31    32    1
    93    87    88    1
    94    87    84    1
    95    30    29    2
    96    28    29    1
    97    28    27    1
    98    94    92   ar
    99    17    14    1
   100    88    89   ar
   101    54    53    1
   102    84    83    1
   103    92    91   ar
   104    24    23    2
   105    29    34   am
   106    27    23   am
   107    27    33    1
   108    23    22    1
   109    32    33    1
   110    53    52    1
   111    14    15    1
   112    14    13    1
   113    21    15   am
   114    21    22    1
   115    89    91   ar
   116    15    16    2
   117    22    25    1
   118    46    45    2
   119    34    35    1
   120    13     3   am
   121    52    51    1
   122    35    36    1
   123    35    38    1
   124    36    37    2
   125    45    47   am
   126    45    44    1
   127     4     3    2
   128    43    44    1
   129    61    60    2
   130    25    26    1
   131    48    51    1
   132    48    47    1
   133    48    49    1
   134     3     2    1
   135    58    49   am
   136    58    59    1
   137    77    76   ar
   138    78    76   ar
   139    38    39    1
   140    39    40    1
   141    49    50    2
   142    60    59    1
   143    60    70   am
   144    59    62    1
   145    76    75    1
   146     2     1    1
   147     2     5    1
   148    64    66   ar
   149    64    63   ar
   150    66    68   ar
   151     9     7   ar
   152     9    11   ar
   153    71    70    1
   154    71    72    1
   155    71    74    1
   156     7     6   ar
   157    40    42   am
   158    40    41    2
   159    12    11    1
   160    11    10   ar
   161    72    73    2
   162    72    79   am
   163     6     5    1
   164     6     8   ar
   165    75    74    1
   166    62    63    1
   167    63    65   ar
   168    68    69    1
   169    68    67   ar
   170    10     8   ar
   171    79    80    1
   172    80    81    1
   173    65    67   ar
   174    81    82    2
