@<TRIPOS>MOLECULE
tmp/4yq3A00.pdb
 162 165 0 0 0
SMALL
GASTEIGER

@<TRIPOS>ATOM
      1  N        -25.6250   36.0820  -14.3540 N.3    94  TYR94      -0.1227
      2  CA       -24.2350   36.4750  -14.1880 C.3    94  TYR94       0.1736
      3  C        -24.0600   37.1990  -12.8610 C.2    94  TYR94       0.2595
      4  O        -24.6880   38.2340  -12.6220 O.2    94  TYR94      -0.2718
      5  CB       -23.7840   37.3610  -15.3510 C.3    94  TYR94       0.0548
      6  CG       -22.3830   37.9090  -15.2190 C.ar   94  TYR94      -0.0200
      7  CD1      -21.3320   37.0980  -14.8100 C.ar   94  TYR94      -0.0009
      8  CD2      -22.1070   39.2370  -15.5220 C.ar   94  TYR94      -0.0009
      9  CE1      -20.0470   37.5980  -14.6920 C.ar   94  TYR94       0.0417
     10  CE2      -20.8250   39.7450  -15.4090 C.ar   94  TYR94       0.0417
     11  CZ       -19.8000   38.9220  -14.9930 C.ar   94  TYR94       0.1957
     12  OH       -18.5230   39.4210  -14.8770 O.3    94  TYR94      -0.2866
     13  N        -23.2330   36.6360  -11.9850 N.am   95  LEU95      -0.1966
     14  CA       -22.8760   37.3130  -10.7450 C.3    95  LEU95       0.1728
     15  C        -21.9920   38.5030  -11.0860 C.2    95  LEU95       0.2617
     16  O        -20.8910   38.3460  -11.6200 O.2    95  LEU95      -0.2715
     17  CB       -22.1700   36.3640   -9.7760 C.3    95  LEU95       0.0311
     18  CG       -23.0800   35.4380   -8.9490 C.3    95  LEU95       0.0022
     19  CD1      -24.2010   36.2290   -8.3030 C.3    95  LEU95       0.0001
     20  CD2      -23.6370   34.2980   -9.7830 C.3    95  LEU95       0.0001
     21  N        -22.4880   39.6940  -10.7840 N.am   96  SER96      -0.1936
     22  CA       -21.9050   40.9100  -11.3170 C.3    96  SER96       0.2040
     23  C        -22.0360   42.0770  -10.3580 C.2    96  SER96       0.2485
     24  O        -23.0900   42.2530   -9.7620 O.2    96  SER96      -0.2729
     25  CB       -22.5840   41.2720  -12.6410 C.3    96  SER96       0.2129
     26  OG       -22.0560   42.4890  -13.1340 O.3    96  SER96      -0.2179
     27  N        -20.9850   42.9040  -10.2490 N.am   97  PRO97      -0.2726
     28  CA       -21.0550   44.1060   -9.4040 C.3    97  PRO97       0.1402
     29  C        -22.0750   45.1630   -9.8930 C.2    97  PRO97       0.2269
     30  O        -22.4850   46.0350   -9.1260 O.2    97  PRO97      -0.2865
     31  CB       -19.6240   44.6570   -9.4700 C.3    97  PRO97       0.0296
     32  CG       -18.7700   43.5280   -9.9770 C.3    97  PRO97       0.0237
     33  CD       -19.6620   42.7300  -10.8760 C.3    97  PRO97       0.0939
     34  N        -17.5590   35.2660  -12.6500 N.3   121  GLY121     -0.1210
     35  CA       -16.4930   35.9660  -13.3390 C.3   121  GLY121      0.1956
     36  C        -15.2060   35.9980  -12.5390 C.2   121  GLY121      0.2612
     37  O        -15.2300   36.0070  -11.3080 O.2   121  GLY121     -0.2717
     38  N        -14.0780   35.9940  -13.2420 N.am  122  ARG122     -0.1965
     39  CA       -12.7850   36.2700  -12.6270 C.3   122  ARG122      0.1729
     40  C        -12.1710   37.4680  -13.3310 C.2   122  ARG122      0.2616
     41  O        -12.7520   37.9930  -14.2830 O.2   122  ARG122     -0.2715
     42  CB       -11.8440   35.0660  -12.7100 C.3   122  ARG122      0.0348
     43  CG       -12.4000   33.7770  -12.1310 C.3   122  ARG122      0.0492
     44  CD       -12.6910   33.8730  -10.6390 C.3   122  ARG122      0.2205
     45  NE       -11.4900   34.1160   -9.8480 N.pl3 122  ARG122     -0.0865
     46  CZ       -11.4310   34.0000   -8.5250 C.cat 122  ARG122      0.5346
     47  NH1      -12.5050   33.6330   -7.8410 N.pl3 122  ARG122      0.1354
     48  NH2      -10.2950   34.2460   -7.8860 N.pl3 122  ARG122      0.1354
     49  N        -10.9950   37.8820  -12.8650 N.am  123  TYR123     -0.1960
     50  CA       -10.2930   39.0400  -13.4100 C.3   123  TYR123      0.1771
     51  C        -11.1990   40.2650  -13.3650 C.2   123  TYR123      0.2619
     52  O        -11.8750   40.4960  -12.3660 O.2   123  TYR123     -0.2715
     53  CB        -9.8120   38.7570  -14.8360 C.3   123  TYR123      0.0574
     54  CG        -9.2950   37.3450  -15.0210 C.ar  123  TYR123     -0.0198
     55  CD1       -8.1490   36.9120  -14.3680 C.ar  123  TYR123     -0.0009
     56  CD2       -9.9590   36.4450  -15.8420 C.ar  123  TYR123     -0.0009
     57  CE1       -7.6780   35.6220  -14.5310 C.ar  123  TYR123      0.0417
     58  CE2       -9.4970   35.1540  -16.0100 C.ar  123  TYR123      0.0417
     59  CZ        -8.3560   34.7480  -15.3540 C.ar  123  TYR123      0.1957
     60  OH        -7.8930   33.4620  -15.5210 O.3   123  TYR123     -0.2866
     61  N        -11.2210   41.0470  -14.4390 N.am  124  GLU124     -0.1963
     62  CA       -12.0750   42.2310  -14.4830 C.3   124  GLU124      0.1733
     63  C        -13.4810   41.8870  -14.9640 C.2   124  GLU124      0.2616
     64  O        -14.3530   42.7490  -15.0160 O.2   124  GLU124     -0.2715
     65  CB       -11.4670   43.3100  -15.3810 C.3   124  GLU124      0.0429
     66  CG       -10.0560   43.7180  -14.9970 C.3   124  GLU124      0.1163
     67  CD        -9.9390   44.1820  -13.5590 C.2   124  GLU124      0.3649
     68  OE1      -10.8390   44.9080  -13.0850 O.co2 124  GLU124     -0.2457
     69  OE2       -8.9450   43.8160  -12.8980 O.co2 124  GLU124     -0.2457
     70  N        -13.7000   40.6280  -15.3190 N.am  125  GLY125     -0.1955
     71  CA       -15.0260   40.1840  -15.7000 C.3   125  GLY125      0.1869
     72  C        -15.1210   39.6090  -17.0990 C.2   125  GLY125      0.2309
     73  O        -14.1550   39.0700  -17.6380 O.2   125  GLY125     -0.2863
     74  N        -26.9280   39.9480  -11.2470 N.3   139  TRP139     -0.1227
     75  CA       -27.2390   40.1340   -9.8390 C.3   139  TRP139      0.1737
     76  C        -25.9890   40.4400   -9.0260 C.2   139  TRP139      0.2596
     77  O        -24.9060   39.9330   -9.3200 O.2   139  TRP139     -0.2718
     78  CB       -27.9380   38.8950   -9.2780 C.3   139  TRP139      0.0564
     79  CG       -29.3710   38.7720   -9.6960 C.ar  139  TRP139      0.0003
     80  CD1      -29.8510   38.1230  -10.7940 C.ar  139  TRP139      0.0946
     81  CD2      -30.5110   39.3120   -9.0170 C.ar  139  TRP139      0.0152
     82  NE1      -31.2200   38.2260  -10.8440 N.ar  139  TRP139     -0.2442
     83  CE2      -31.6500   38.9510   -9.7640 C.ar  139  TRP139      0.0810
     84  CE3      -30.6790   40.0660   -7.8520 C.ar  139  TRP139      0.0012
     85  CZ2      -32.9390   39.3170   -9.3820 C.ar  139  TRP139      0.0191
     86  CZ3      -31.9580   40.4290   -7.4750 C.ar  139  TRP139      0.0001
     87  CH2      -33.0720   40.0530   -8.2370 C.ar  139  TRP139      0.0015
     88  N        -26.1550   41.2740   -8.0040 N.am  140  SER140     -0.1938
     89  CA       -25.0660   41.6600   -7.1160 C.3   140  SER140      0.2055
     90  C        -25.4440   41.4510   -5.6600 C.2   140  SER140      0.2643
     91  O        -26.5500   41.7970   -5.2470 O.2   140  SER140     -0.2714
     92  CB       -24.6840   43.1240   -7.3270 C.3   140  SER140      0.2130
     93  OG       -23.6950   43.5200   -6.3930 O.3   140  SER140     -0.2179
     94  N        -24.5200   40.9030   -4.8780 N.am  141  ILE141     -0.1963
     95  CA       -24.7790   40.6860   -3.4600 C.3   141  ILE141      0.1730
     96  C        -24.3850   41.9080   -2.6220 C.2   141  ILE141      0.2656
     97  O        -24.7030   41.9820   -1.4380 O.2   141  ILE141     -0.2711
     98  CB       -24.0370   39.4370   -2.9270 C.3   141  ILE141      0.0290
     99  CG1      -22.5210   39.6500   -2.9470 C.3   141  ILE141      0.0022
    100  CG2      -24.4290   38.1940   -3.7290 C.3   141  ILE141      0.0023
    101  CD1      -21.7560   38.6180   -2.1430 C.3   141  ILE141      0.0001
    102  N        -23.7010   42.8680   -3.2370 N.am  142  GLY142     -0.1716
    103  CA       -23.3090   44.0680   -2.5240 C.2   142  GLY142      0.1480
    104  C        -22.3970   45.0380   -3.2480 C.2   142  GLY142      0.2820
    105  O        -21.7800   44.7110   -4.2580 O.2   142  GLY142     -0.2669
    106  N        -22.2940   46.2480   -2.7160 N.am  143  ASP143     -0.1923
    107  CA       -21.4440   47.2750   -3.3200 C.3   143  ASP143      0.1843
    108  C        -20.0430   47.2940   -2.6890 C.2   143  ASP143      0.2622
    109  O        -19.7230   48.1780   -1.9040 O.2   143  ASP143     -0.2715
    110  CB       -22.1210   48.6350   -3.1880 C.3   143  ASP143      0.1450
    111  CG       -23.4370   48.6820   -3.9300 C.2   143  ASP143      0.3671
    112  OD1      -23.5010   48.1020   -5.0370 O.co2 143  ASP143     -0.2456
    113  OD2      -24.3960   49.2990   -3.4440 O.co2 143  ASP143     -0.2456
    114  N        -19.2050   46.3360   -3.0610 N.am  144  TYR144     -0.1960
    115  CA       -17.8320   46.2870   -2.5920 C.3   144  TYR144      0.1771
    116  C        -17.0210   45.4560   -3.5740 C.2   144  TYR144      0.2619
    117  O        -17.5720   44.6970   -4.3530 O.2   144  TYR144     -0.2715
    118  CB       -17.7420   45.7050   -1.1830 C.3   144  TYR144      0.0574
    119  CG       -18.7290   44.6000   -0.9220 C.ar  144  TYR144     -0.0198
    120  CD1      -18.4630   43.3040   -1.3340 C.ar  144  TYR144     -0.0009
    121  CD2      -19.9380   44.8550   -0.2830 C.ar  144  TYR144     -0.0009
    122  CE1      -19.3590   42.2940   -1.1130 C.ar  144  TYR144      0.0417
    123  CE2      -20.8450   43.8390   -0.0530 C.ar  144  TYR144      0.0417
    124  CZ       -20.5440   42.5630   -0.4740 C.ar  144  TYR144      0.1957
    125  OH       -21.4250   41.5400   -0.2620 O.3   144  TYR144     -0.2866
    126  N        -15.7030   45.5790   -3.5320 N.am  145  VAL145     -0.1963
    127  CA       -14.8920   44.9820   -4.5860 C.3   145  VAL145      0.1727
    128  C        -14.3350   43.6030   -4.2210 C.2   145  VAL145      0.2616
    129  O        -13.6450   43.4340   -3.2200 O.2   145  VAL145     -0.2715
    130  CB       -13.7380   45.9310   -4.9860 C.3   145  VAL145      0.0290
    131  CG1      -13.0360   45.4140   -6.1910 C.3   145  VAL145      0.0023
    132  CG2      -14.2690   47.3300   -5.2730 C.3   145  VAL145      0.0023
    133  N        -14.6370   42.6190   -5.0610 N.am  146  LEU146     -0.1963
    134  CA       -14.1250   41.2770   -4.8400 C.3   146  LEU146      0.1728
    135  C        -13.1460   40.8380   -5.9300 C.2   146  LEU146      0.2617
    136  O        -12.8070   41.6120   -6.8290 O.2   146  LEU146     -0.2715
    137  CB       -15.2840   40.2900   -4.7370 C.3   146  LEU146      0.0311
    138  CG       -16.3270   40.5880   -3.6540 C.3   146  LEU146      0.0022
    139  CD1      -17.4310   39.5370   -3.6500 C.3   146  LEU146      0.0001
    140  CD2      -15.6910   40.7120   -2.2720 C.3   146  LEU146      0.0001
    141  N        -12.6850   39.5930   -5.8430 N.am  147  THR147     -0.1937
    142  CA       -11.7420   39.0630   -6.8280 C.3   147  THR147      0.2028
    143  C        -12.3630   37.9620   -7.6800 C.2   147  THR147      0.2643
    144  O        -11.7310   37.4540   -8.6080 O.2   147  THR147     -0.2714
    145  CB       -10.4550   38.5030   -6.1670 C.3   147  THR147      0.1808
    146  OG1      -10.7550   37.3120   -5.4270 O.3   147  THR147     -0.2208
    147  CG2       -9.8240   39.5320   -5.2460 C.3   147  THR147      0.0379
    148  N        -13.6020   37.6010   -7.3640 N.am  148  GLY148     -0.1939
    149  CA       -14.3010   36.5590   -8.0940 C.3   148  GLY148      0.2014
    150  C        -15.7880   36.5290   -7.7960 C.2   148  GLY148      0.2639
    151  O        -16.2480   37.1120   -6.8140 O.2   148  GLY148     -0.2714
    152  N        -16.5430   35.8410   -8.6450 N.am  149  GLY149     -0.1954
    153  CA       -17.9790   35.7340   -8.4650 C.3   149  GLY149      0.1869
    154  C        -18.4200   34.4560   -7.7770 C.2   149  GLY149      0.2309
    155  O        -19.6110   34.2510   -7.5570 O.2   149  GLY149     -0.2863
    156  N        -20.0670   35.2120   -4.2170 N.3   152  PRO152     -0.2116
    157  CA       -21.4580   35.6610   -4.3710 C.3   152  PRO152      0.1372
    158  C        -22.3880   34.5580   -4.8740 C.2   152  PRO152      0.2244
    159  O        -23.5330   34.4720   -4.4280 O.2   152  PRO152     -0.2868
    160  CB       -21.3470   36.7900   -5.3970 C.3   152  PRO152      0.0268
    161  CG       -19.9820   37.3270   -5.2030 C.3   152  PRO152      0.0207
    162  CD       -19.1280   36.1350   -4.8860 C.3   152  PRO152      0.0892
@<TRIPOS>BOND
     1    73    72    2
     2    72    71    1
     3    58    56   ar
     4    58    59   ar
     5    56    54   ar
     6    71    70    1
     7     8    10   ar
     8     8     6   ar
     9    60    59    1
    10    10    11   ar
    11    65    66    1
    12    65    62    1
    13    59    57   ar
    14     5     6    1
    15     5     2    1
    16    70    63   am
    17     6     7   ar
    18    54    53    1
    19    54    55   ar
    20    64    63    2
    21    66    67    1
    22    11    12    1
    23    11     9   ar
    24    63    62    1
    25    53    50    1
    26     7     9   ar
    27    57    55   ar
    28    62    61    1
    29    61    51   am
    30     1     2    1
    31    41    40    2
    32     2     3    1
    33    67    68   ar
    34    67    69   ar
    35    50    51    1
    36    50    49    1
    37    51    52    2
    38    35    34    1
    39    35    36    1
    40    40    49   am
    41    40    39    1
    42    38    39    1
    43    38    36   am
    44    26    25    1
    45     3     4    2
    46     3    13   am
    47    42    39    1
    48    42    43    1
    49    25    22    1
    50    36    37    2
    51    43    44    1
    52    13    14    1
    53    16    15    2
    54    22    21    1
    55    22    23    1
    56    74    75    1
    57    15    21   am
    58    15    14    1
    59    33    27    1
    60    33    32    1
    61    82    80   ar
    62    82    83   ar
    63    80    79   ar
    64    14    17    1
    65    44    45    1
    66    23    27   am
    67    23    24    2
    68    27    28    1
    69    32    31    1
    70    29    28    1
    71    29    30    2
    72    45    46    2
    73    75    78    1
    74    75    76    1
    75    20    18    1
    76    17    18    1
    77    83    85   ar
    78    83    81   ar
    79    79    78    1
    80    79    81   ar
    81    31    28    1
    82    85    87   ar
    83    77    76    2
    84    76    88   am
    85    81    84   ar
    86    18    19    1
    87   152   153    1
    88   152   150   am
    89   144   143    2
    90    46    48    1
    91    46    47    1
    92   153   154    1
    93    87    86   ar
    94   149   150    1
    95   149   148    1
    96    88    89    1
    97    84    86   ar
    98   150   151    2
    99   154   155    2
   100   143   148   am
   101   143   142    1
   102    92    89    1
   103    92    93    1
   104    89    90    1
   105   136   135    2
   106   142   145    1
   107   142   141    1
   108   131   130    1
   109   145   146    1
   110   145   147    1
   111   135   141   am
   112   135   134    1
   113    90    91    2
   114    90    94   am
   115   160   161    1
   116   160   157    1
   117   132   130    1
   118   161   162    1
   119   133   134    1
   120   133   128   am
   121   112   111   ar
   122   130   127    1
   123   162   156    1
   124    94    95    1
   125   158   159    2
   126   158   157    1
   127   134   137    1
   128   137   138    1
   129   127   128    1
   130   127   126    1
   131   157   156    1
   132   117   116    2
   133   105   104    2
   134   128   129    2
   135   111   113   ar
   136   111   110    1
   137   100    98    1
   138   138   139    1
   139   138   140    1
   140   116   126   am
   141   116   115    1
   142    95    98    1
   143    95    96    1
   144   107   110    1
   145   107   106    1
   146   107   108    1
   147   104   106   am
   148   104   103    1
   149   102    96    1
   150   102   103    2
   151   114   108   am
   152   114   115    1
   153    99    98    1
   154    99   101    1
   155   108   109    2
   156    96    97    2
   157   115   118    1
   158   120   122   ar
   159   120   119   ar
   160   118   119    1
   161   122   124   ar
   162   119   121   ar
   163   124   125    1
   164   124   123   ar
   165   121   123   ar
