@<TRIPOS>MOLECULE
tmp/4yq5A00.pdb
 163 165 0 0 0
SMALL
GASTEIGER

@<TRIPOS>ATOM
      1  N        -27.7580   36.6630  -13.6220 N.3    93  TYR93      -0.1227
      2  CA       -26.3580   37.0800  -13.6960 C.3    93  TYR93       0.1736
      3  C        -26.0470   37.9750  -12.5080 C.2    93  TYR93       0.2595
      4  O        -26.7540   38.9450  -12.2670 O.2    93  TYR93      -0.2718
      5  CB       -26.0900   37.8300  -15.0020 C.3    93  TYR93       0.0548
      6  CG       -24.6680   38.3360  -15.1860 C.ar   93  TYR93      -0.0200
      7  CD1      -23.5760   37.4860  -15.0300 C.ar   93  TYR93      -0.0009
      8  CD2      -24.4310   39.6490  -15.5800 C.ar   93  TYR93      -0.0009
      9  CE1      -22.2750   37.9500  -15.2400 C.ar   93  TYR93       0.0417
     10  CE2      -23.1470   40.1160  -15.7980 C.ar   93  TYR93       0.0417
     11  CZ       -22.0760   39.2630  -15.6200 C.ar   93  TYR93       0.1957
     12  OH       -20.8020   39.7360  -15.8470 O.3    93  TYR93      -0.2866
     13  N        -25.0070   37.6390  -11.7500 N.am   94  LEU94      -0.1966
     14  CA       -24.6260   38.4590  -10.6050 C.3    94  LEU94       0.1728
     15  C        -23.6010   39.5180  -11.0270 C.2    94  LEU94       0.2617
     16  O        -22.5620   39.1820  -11.5900 O.2    94  LEU94      -0.2715
     17  CB       -24.0600   37.5840   -9.4820 C.3    94  LEU94       0.0311
     18  CG       -25.0120   36.6750   -8.6900 C.3    94  LEU94       0.0022
     19  CD1      -26.2670   37.4400   -8.3130 C.3    94  LEU94       0.0001
     20  CD2      -25.3430   35.3840   -9.4430 C.3    94  LEU94       0.0001
     21  N        -23.9030   40.7920  -10.7790 N.am   95  SER95      -0.1936
     22  CA       -22.9560   41.8580  -11.1110 C.3    95  SER95       0.2040
     23  C        -23.2090   43.0660  -10.2310 C.2    95  SER95       0.2485
     24  O        -24.2920   43.2020   -9.6780 O.2    95  SER95      -0.2729
     25  CB       -23.0720   42.2670  -12.5860 C.3    95  SER95       0.2129
     26  OG       -24.0330   43.2910  -12.7190 O.3    95  SER95      -0.2179
     27  N        -22.2160   43.9650  -10.1200 N.am   96  PRO96      -0.2715
     28  CA       -22.4600   45.2140   -9.3880 C.3    96  PRO96       0.1536
     29  C        -23.4610   46.1440  -10.1000 C.2    96  PRO96       0.2598
     30  O        -23.8900   47.1300   -9.5000 O.2    96  PRO96      -0.2715
     31  CB       -21.0670   45.8650   -9.3160 C.3    96  PRO96       0.0310
     32  CG       -20.0980   44.7710   -9.6050 C.3    96  PRO96       0.0237
     33  CD       -20.8140   43.8420  -10.5550 C.3    96  PRO96       0.0939
     34  N        -23.8240   45.8320  -11.3450 N.am   97  GLN97      -0.1978
     35  CA       -24.7490   46.6560  -12.1340 C.3    97  GLN97       0.1601
     36  C        -26.1860   46.1620  -12.0610 C.2    97  GLN97       0.2287
     37  O        -27.0580   46.6700  -12.7740 O.2    97  GLN97      -0.2864
     38  CB       -24.3410   46.6820  -13.6150 C.3    97  GLN97       0.0394
     39  CG       -23.2180   47.6250  -13.9670 C.3    97  GLN97       0.0908
     40  CD       -21.9140   46.9000  -14.1810 C.2    97  GLN97       0.2608
     41  OE1      -21.7780   46.0750  -15.0900 O.2    97  GLN97      -0.2717
     42  NE2      -20.9440   47.1930  -13.3350 N.am   97  GLN97      -0.0878
     43  N        -19.6660   35.6440  -13.2510 N.3   120  GLY120     -0.1210
     44  CA       -18.6760   36.3130  -14.0760 C.3   120  GLY120      0.1956
     45  C        -17.3550   36.4360  -13.3340 C.2   120  GLY120      0.2612
     46  O        -17.3380   36.5850  -12.1140 O.2   120  GLY120     -0.2717
     47  N        -16.2530   36.3640  -14.0760 N.am  121  ARG121     -0.1965
     48  CA       -14.9250   36.6950  -13.5620 C.3   121  ARG121      0.1729
     49  C        -14.3430   37.7590  -14.4870 C.2   121  ARG121      0.2616
     50  O        -15.0150   38.1880  -15.4170 O.2   121  ARG121     -0.2715
     51  CB       -14.0260   35.4510  -13.5000 C.3   121  ARG121      0.0348
     52  CG       -14.4010   34.4370  -12.3970 C.3   121  ARG121      0.0492
     53  CD       -13.3240   34.4190  -11.3120 C.3   121  ARG121      0.2205
     54  NE       -13.8940   34.1400  -10.0010 N.pl3 121  ARG121     -0.0865
     55  CZ       -13.2220   34.2530   -8.8720 C.cat 121  ARG121      0.5346
     56  NH1      -11.9450   34.6530   -8.9040 N.pl3 121  ARG121      0.1354
     57  NH2      -13.8170   33.9790   -7.7200 N.pl3 121  ARG121      0.1354
     58  N        -13.1100   38.1910  -14.2320 N.am  122  TYR122     -0.1960
     59  CA       -12.4820   39.2600  -15.0250 C.3   122  TYR122      0.1771
     60  C        -13.3740   40.5020  -14.9990 C.2   122  TYR122      0.2619
     61  O        -13.9000   40.8590  -13.9390 O.2   122  TYR122     -0.2715
     62  CB       -12.2090   38.7880  -16.4620 C.3   122  TYR122      0.0574
     63  CG       -11.6700   37.3780  -16.4950 C.ar  122  TYR122     -0.0198
     64  CD1      -10.4260   37.0800  -15.9550 C.ar  122  TYR122     -0.0009
     65  CD2      -12.4210   36.3370  -17.0230 C.ar  122  TYR122     -0.0009
     66  CE1       -9.9380   35.7860  -15.9550 C.ar  122  TYR122      0.0417
     67  CE2      -11.9450   35.0420  -17.0260 C.ar  122  TYR122      0.0417
     68  CZ       -10.7030   34.7730  -16.4940 C.ar  122  TYR122      0.1957
     69  OH       -10.2360   33.4800  -16.4910 O.3   122  TYR122     -0.2866
     70  N        -13.5610   41.1580  -16.1430 N.am  123  GLU123     -0.1963
     71  CA       -14.4170   42.3500  -16.1620 C.3   123  GLU123      0.1733
     72  C        -15.8470   42.0150  -16.5960 C.2   123  GLU123      0.2616
     73  O        -16.6100   42.9000  -17.0040 O.2   123  GLU123     -0.2715
     74  CB       -13.8320   43.4340  -17.0700 C.3   123  GLU123      0.0429
     75  CG       -12.4530   43.9050  -16.6440 C.3   123  GLU123      0.1163
     76  CD       -12.4200   44.3770  -15.2050 C.2   123  GLU123      0.3649
     77  OE1      -13.1800   45.3080  -14.8650 O.co2 123  GLU123     -0.2457
     78  OE2      -11.6360   43.8120  -14.4100 O.co2 123  GLU123     -0.2457
     79  N        -16.2040   40.7400  -16.4920 N.am  124  GLY124     -0.1955
     80  CA       -17.5790   40.3230  -16.6780 C.3   124  GLY124      0.1869
     81  C        -17.7970   39.6180  -18.0020 C.2   124  GLY124      0.2309
     82  O        -16.8750   39.0110  -18.5560 O.2   124  GLY124     -0.2863
     83  N        -28.7080   40.7960  -11.0210 N.3   138  TRP138     -0.1227
     84  CA       -28.8330   41.1480   -9.5990 C.3   138  TRP138      0.1737
     85  C        -27.4860   41.4640   -8.9830 C.2   138  TRP138      0.2596
     86  O        -26.4820   40.8810   -9.3750 O.2   138  TRP138     -0.2718
     87  CB       -29.4570   40.0060   -8.7980 C.3   138  TRP138      0.0564
     88  CG       -30.9150   39.7960   -9.0440 C.ar  138  TRP138      0.0003
     89  CD1      -31.4850   39.1570  -10.1040 C.ar  138  TRP138      0.0946
     90  CD2      -31.9910   40.2100   -8.1940 C.ar  138  TRP138      0.0152
     91  NE1      -32.8600   39.1590   -9.9720 N.ar  138  TRP138     -0.2442
     92  CE2      -33.1920   39.7970   -8.8060 C.ar  138  TRP138      0.0810
     93  CE3      -32.0550   40.8980   -6.9770 C.ar  138  TRP138      0.0012
     94  CZ2      -34.4430   40.0440   -8.2400 C.ar  138  TRP138      0.0191
     95  CZ3      -33.2950   41.1430   -6.4220 C.ar  138  TRP138      0.0001
     96  CH2      -34.4710   40.7140   -7.0480 C.ar  138  TRP138      0.0015
     97  N        -27.4870   42.3660   -8.0050 N.am  139  SER139     -0.1938
     98  CA       -26.3030   42.6770   -7.2050 C.3   139  SER139      0.2055
     99  C        -26.5400   42.3200   -5.7460 C.2   139  SER139      0.2643
    100  O        -27.6460   42.5220   -5.2440 O.2   139  SER139     -0.2714
    101  CB       -25.9620   44.1630   -7.3030 C.3   139  SER139      0.2130
    102  OG       -24.9950   44.5060   -6.3330 O.3   139  SER139     -0.2179
    103  N        -25.5160   41.8430   -5.0330 N.am  140  ILE140     -0.1963
    104  CA       -25.7190   41.5960   -3.5970 C.3   140  ILE140      0.1727
    105  C        -25.3770   42.8220   -2.7410 C.2   140  ILE140      0.2616
    106  O        -25.5750   42.8270   -1.5140 O.2   140  ILE140     -0.2715
    107  CB       -24.9200   40.3650   -3.0960 C.3   140  ILE140      0.0290
    108  CG1      -23.4070   40.5620   -3.2480 C.3   140  ILE140      0.0022
    109  CG2      -25.3920   39.1040   -3.8380 C.3   140  ILE140      0.0023
    110  CD1      -22.5940   39.7630   -2.2050 C.3   140  ILE140      0.0001
    111  N        -24.8860   43.8710   -3.3860 N.am  141  GLY141     -0.1955
    112  CA       -24.5450   45.0880   -2.6690 C.3   141  GLY141      0.1869
    113  C        -23.6360   45.9740   -3.4940 C.2   141  GLY141      0.2309
    114  O        -23.0490   45.5320   -4.4840 O.2   141  GLY141     -0.2863
    115  N        -20.6530   46.9920   -3.9620 N.3   143  TYR143     -0.1227
    116  CA       -19.2200   46.7840   -3.8440 C.3   143  TYR143      0.1736
    117  C        -18.7920   45.8060   -4.9200 C.2   143  TYR143      0.2595
    118  O        -19.6250   45.0960   -5.5050 O.2   143  TYR143     -0.2718
    119  CB       -18.8420   46.2680   -2.4480 C.3   143  TYR143      0.0548
    120  CG       -19.8300   45.2690   -1.8710 C.ar  143  TYR143     -0.0200
    121  CD1      -19.7770   43.9220   -2.2220 C.ar  143  TYR143     -0.0009
    122  CD2      -20.8150   45.6780   -0.9820 C.ar  143  TYR143     -0.0009
    123  CE1      -20.6820   43.0130   -1.7030 C.ar  143  TYR143      0.0417
    124  CE2      -21.7270   44.7750   -0.4520 C.ar  143  TYR143      0.0417
    125  CZ       -21.6540   43.4430   -0.8210 C.ar  143  TYR143      0.1957
    126  OH       -22.5610   42.5530   -0.2970 O.3   143  TYR143     -0.2866
    127  N        -17.4930   45.7760   -5.1820 N.am  144  VAL144     -0.1966
    128  CA       -16.9440   44.9740   -6.2650 C.3   144  VAL144      0.1727
    129  C        -16.1150   43.8380   -5.7050 C.2   144  VAL144      0.2616
    130  O        -15.2780   44.0460   -4.8140 O.2   144  VAL144     -0.2715
    131  CB       -16.0810   45.8310   -7.1970 C.3   144  VAL144      0.0290
    132  CG1      -15.5180   44.9920   -8.3510 C.3   144  VAL144      0.0023
    133  CG2      -16.9030   46.9980   -7.7220 C.3   144  VAL144      0.0023
    134  N        -16.3510   42.6400   -6.2300 N.am  145  LEU145     -0.1963
    135  CA       -15.6440   41.4530   -5.7840 C.3   145  LEU145      0.1728
    136  C        -14.8650   40.8790   -6.9520 C.2   145  LEU145      0.2617
    137  O        -15.0200   41.3390   -8.0880 O.2   145  LEU145     -0.2715
    138  CB       -16.6260   40.4190   -5.2120 C.3   145  LEU145      0.0311
    139  CG       -17.5340   40.9520   -4.0920 C.3   145  LEU145      0.0022
    140  CD1      -18.6270   39.9400   -3.7440 C.3   145  LEU145      0.0001
    141  CD2      -16.7410   41.2980   -2.8520 C.3   145  LEU145      0.0001
    142  N        -14.0250   39.8840   -6.6830 N.am  146  THR146     -0.1937
    143  CA       -13.1860   39.3120   -7.7360 C.3   146  THR146      0.2028
    144  C        -13.9420   38.3330   -8.6350 C.2   146  THR146      0.2643
    145  O        -13.4290   37.8970   -9.6710 O.2   146  THR146     -0.2714
    146  CB       -11.9500   38.5910   -7.1470 C.3   146  THR146      0.1808
    147  OG1      -12.3700   37.4990   -6.3140 O.3   146  THR146     -0.2208
    148  CG2      -11.0920   39.5750   -6.3560 C.3   146  THR146      0.0379
    149  N        -15.1680   37.9840   -8.2590 N.am  147  GLY147     -0.1939
    150  CA       -15.9530   37.0930   -9.1060 C.3   147  GLY147      0.2014
    151  C        -17.3940   37.0450   -8.6330 C.2   147  GLY147      0.2639
    152  O        -17.7080   37.5180   -7.5380 O.2   147  GLY147     -0.2714
    153  N        -18.2750   36.4820   -9.4520 N.am  148  GLY148     -0.1954
    154  CA       -19.6680   36.3470   -9.0460 C.3   148  GLY148      0.1869
    155  C        -19.9710   35.1480   -8.1610 C.2   148  GLY148      0.2309
    156  O        -21.1310   34.9450   -7.7790 O.2   148  GLY148     -0.2863
    157  N        -21.1830   36.2040   -4.5550 N.3   151  PRO151     -0.2116
    158  CA       -22.5830   36.6380   -4.6710 C.3   151  PRO151      0.1372
    159  C        -23.5560   35.4930   -4.9680 C.2   151  PRO151      0.2244
    160  O        -24.6520   35.4820   -4.4140 O.2   151  PRO151     -0.2868
    161  CB       -22.5400   37.6290   -5.8410 C.3   151  PRO151      0.0268
    162  CG       -21.1460   38.2280   -5.7580 C.3   151  PRO151      0.0207
    163  CD       -20.2640   37.0700   -5.3360 C.3   151  PRO151      0.0892
@<TRIPOS>BOND
     1    82    81    2
     2    81    80    1
     3    74    75    1
     4    74    71    1
     5    67    65   ar
     6    67    68   ar
     7    65    63   ar
     8    73    72    2
     9    80    79    1
    10    75    76    1
    11    72    79   am
    12    72    71    1
    13    63    62    1
    14    63    64   ar
    15    68    69    1
    16    68    66   ar
    17    62    59    1
    18    71    70    1
    19    70    60   am
    20    64    66   ar
    21    12    11    1
    22    10    11   ar
    23    10     8   ar
    24    11     9   ar
    25     8     6   ar
    26    50    49    2
    27     9     7   ar
    28    76    77   ar
    29    76    78   ar
    30     6     7   ar
    31     6     5    1
    32    41    40    2
    33    59    60    1
    34    59    58    1
    35     5     2    1
    36    60    61    2
    37    49    58   am
    38    49    48    1
    39    40    39    1
    40    40    42   am
    41    47    48    1
    42    47    45   am
    43    44    45    1
    44    44    43    1
    45    39    38    1
    46     2     1    1
    47     2     3    1
    48    38    35    1
    49    48    51    1
    50    51    52    1
    51    45    46    2
    52    37    36    2
    53    26    25    1
    54    25    22    1
    55     3     4    2
    56     3    13   am
    57    52    53    1
    58    35    36    1
    59    35    34    1
    60    13    14    1
    61    16    15    2
    62    34    29   am
    63    53    54    1
    64    22    21    1
    65    22    23    1
    66    15    21   am
    67    15    14    1
    68    83    84    1
    69    14    17    1
    70    33    27    1
    71    33    32    1
    72    23    27   am
    73    23    24    2
    74    27    28    1
    75    89    91   ar
    76    89    88   ar
    77    29    30    2
    78    29    28    1
    79    54    55    2
    80    91    92   ar
    81   145   144    2
    82    32    31    1
    83    84    85    1
    84    84    87    1
    85    17    18    1
    86   153   154    1
    87   153   151   am
    88    20    18    1
    89    28    31    1
    90    86    85    2
    91   150   151    1
    92   150   149    1
    93   154   155    1
    94    88    87    1
    95    88    90   ar
    96    85    97   am
    97    56    55    1
    98    55    57    1
    99    92    94   ar
   100    92    90   ar
   101    18    19    1
   102   144   149   am
   103   144   143    1
   104   151   152    2
   105   132   131    1
   106    94    96   ar
   107    90    93   ar
   108   155   156    2
   109   137   136    2
   110    97    98    1
   111   143   146    1
   112   143   142    1
   113   133   131    1
   114   101    98    1
   115   101   102    1
   116    98    99    1
   117   131   128    1
   118   146   148    1
   119   146   147    1
   120    96    95   ar
   121    93    95   ar
   122   136   142   am
   123   136   135    1
   124   128   129    1
   125   128   127    1
   126   134   135    1
   127   134   129   am
   128   161   162    1
   129   161   158    1
   130   135   138    1
   131   162   163    1
   132    99   100    2
   133    99   103   am
   134   129   130    2
   135   118   117    2
   136   163   157    1
   137   138   139    1
   138   127   117   am
   139   103   104    1
   140   159   158    1
   141   159   160    2
   142   117   116    1
   143   158   157    1
   144   114   113    2
   145   139   140    1
   146   139   141    1
   147   115   116    1
   148   116   119    1
   149   109   107    1
   150   104   107    1
   151   104   105    1
   152   113   112    1
   153   111   105   am
   154   111   112    1
   155   108   107    1
   156   108   110    1
   157   105   106    2
   158   119   120    1
   159   121   120   ar
   160   121   123   ar
   161   120   122   ar
   162   123   125   ar
   163   122   124   ar
   164   125   124   ar
   165   125   126    1
