@<TRIPOS>MOLECULE
tmp/4yq6A00.pdb
 163 165 0 0 0
SMALL
GASTEIGER

@<TRIPOS>ATOM
      1  N        -27.8360   36.5570  -13.5730 N.3    89  TYR89      -0.1227
      2  CA       -26.4500   36.9920  -13.6680 C.3    89  TYR89       0.1736
      3  C        -26.1370   37.8990  -12.4840 C.2    89  TYR89       0.2595
      4  O        -26.8560   38.8720  -12.2380 O.2    89  TYR89      -0.2718
      5  CB       -26.2500   37.7550  -14.9740 C.3    89  TYR89       0.0548
      6  CG       -24.8560   38.2820  -15.2210 C.ar   89  TYR89      -0.0200
      7  CD1      -23.7360   37.4720  -15.0630 C.ar   89  TYR89      -0.0009
      8  CD2      -24.6650   39.5910  -15.6490 C.ar   89  TYR89      -0.0009
      9  CE1      -22.4600   37.9660  -15.3190 C.ar   89  TYR89       0.0417
     10  CE2      -23.4080   40.0850  -15.9050 C.ar   89  TYR89       0.0417
     11  CZ       -22.3120   39.2770  -15.7400 C.ar   89  TYR89       0.1957
     12  OH       -21.0690   39.7950  -16.0020 O.3    89  TYR89      -0.2866
     13  N        -25.0730   37.5810  -11.7510 N.am   90  LEU90      -0.1966
     14  CA       -24.6800   38.3650  -10.5840 C.3    90  LEU90       0.1728
     15  C        -23.6370   39.3900  -11.0090 C.2    90  LEU90       0.2617
     16  O        -22.5760   39.0210  -11.5210 O.2    90  LEU90      -0.2715
     17  CB       -24.0980   37.4660   -9.4920 C.3    90  LEU90       0.0311
     18  CG       -25.0190   36.5470   -8.6810 C.3    90  LEU90       0.0022
     19  CD1      -26.2630   37.2920   -8.2180 C.3    90  LEU90       0.0001
     20  CD2      -25.3850   35.2940   -9.4540 C.3    90  LEU90       0.0001
     21  N        -23.9250   40.6700  -10.7910 N.am   91  SER91      -0.1936
     22  CA       -22.9830   41.7150  -11.1670 C.3    91  SER91       0.2040
     23  C        -23.2610   42.9460  -10.3230 C.2    91  SER91       0.2485
     24  O        -24.3600   43.0930   -9.7740 O.2    91  SER91      -0.2729
     25  CB       -23.1120   42.0660  -12.6570 C.3    91  SER91       0.2129
     26  OG       -24.0370   43.1190  -12.8330 O.3    91  SER91      -0.2179
     27  N        -22.2950   43.8620  -10.2160 N.am   92  PRO92      -0.2715
     28  CA       -22.5750   45.1540   -9.5670 C.3    92  PRO92       0.1536
     29  C        -23.6120   45.9950  -10.3020 C.2    92  PRO92       0.2598
     30  O        -24.1960   46.9010   -9.6960 O.2    92  PRO92      -0.2715
     31  CB       -21.2030   45.8470   -9.5460 C.3    92  PRO92       0.0310
     32  CG       -20.2010   44.7440   -9.7250 C.3    92  PRO92       0.0237
     33  CD       -20.8770   43.7260  -10.5950 C.3    92  PRO92       0.0939
     34  N        -23.8600   45.7300  -11.5830 N.am   93  GLN93      -0.1978
     35  CA       -24.8310   46.5080  -12.3430 C.3    93  GLN93       0.1601
     36  C        -26.2640   46.0290  -12.1500 C.2    93  GLN93       0.2287
     37  O        -27.1740   46.5950  -12.7650 O.2    93  GLN93      -0.2864
     38  CB       -24.4880   46.4860  -13.8400 C.3    93  GLN93       0.0394
     39  CG       -23.2410   47.2730  -14.2160 C.3    93  GLN93       0.0908
     40  CD       -21.9610   46.5310  -13.8920 C.2    93  GLN93       0.2608
     41  OE1      -21.7560   45.3960  -14.3290 O.2    93  GLN93      -0.2717
     42  NE2      -21.0910   47.1670  -13.1190 N.am   93  GLN93      -0.0878
     43  N        -19.7900   35.5150  -13.2440 N.3   116  GLY116     -0.1210
     44  CA       -18.7830   36.1650  -14.0490 C.3   116  GLY116      0.1956
     45  C        -17.4720   36.3260  -13.3020 C.2   116  GLY116      0.2612
     46  O        -17.4310   36.4770  -12.0820 O.2   116  GLY116     -0.2717
     47  N        -16.3830   36.2680  -14.0560 N.am  117  ARG117     -0.1965
     48  CA       -15.0530   36.6220  -13.5830 C.3   117  ARG117      0.1729
     49  C        -14.5150   37.7340  -14.4770 C.2   117  ARG117      0.2616
     50  O        -15.1810   38.1650  -15.4200 O.2   117  ARG117     -0.2715
     51  CB       -14.1320   35.3970  -13.5620 C.3   117  ARG117      0.0348
     52  CG       -14.4980   34.3780  -12.4900 C.3   117  ARG117      0.0492
     53  CD       -13.3870   34.2570  -11.4630 C.3   117  ARG117      0.2205
     54  NE       -13.9070   33.9050  -10.1500 N.pl3 117  ARG117     -0.0865
     55  CZ       -13.2070   33.9910   -9.0290 C.cat 117  ARG117      0.5346
     56  NH1      -11.9480   34.4250   -9.0620 N.pl3 117  ARG117      0.1354
     57  NH2      -13.7620   33.6480   -7.8750 N.pl3 117  ARG117      0.1354
     58  N        -13.3090   38.2050  -14.1730 N.am  118  TYR118     -0.1960
     59  CA       -12.6710   39.2880  -14.9450 C.3   118  TYR118      0.1771
     60  C        -13.5990   40.5030  -14.8890 C.2   118  TYR118      0.2619
     61  O        -14.1210   40.8180  -13.8090 O.2   118  TYR118     -0.2715
     62  CB       -12.2640   38.8200  -16.3430 C.3   118  TYR118      0.0574
     63  CG       -11.7620   37.3980  -16.3920 C.ar  118  TYR118     -0.0198
     64  CD1      -10.4830   37.0760  -15.9590 C.ar  118  TYR118     -0.0009
     65  CD2      -12.5680   36.3760  -16.8770 C.ar  118  TYR118     -0.0009
     66  CE1      -10.0220   35.7700  -16.0000 C.ar  118  TYR118      0.0417
     67  CE2      -12.1180   35.0710  -16.9190 C.ar  118  TYR118      0.0417
     68  CZ       -10.8460   34.7740  -16.4800 C.ar  118  TYR118      0.1957
     69  OH       -10.4030   33.4730  -16.5210 O.3   118  TYR118     -0.2866
     70  N        -13.8410   41.1970  -15.9980 N.am  119  GLU119     -0.1963
     71  CA       -14.7780   42.3130  -16.0130 C.3   119  GLU119      0.1733
     72  C        -16.1950   41.8860  -16.3720 C.2   119  GLU119      0.2616
     73  O        -17.0300   42.7420  -16.6810 O.2   119  GLU119     -0.2715
     74  CB       -14.2880   43.4240  -16.9480 C.3   119  GLU119      0.0429
     75  CG       -12.8580   43.8620  -16.6830 C.3   119  GLU119      0.1163
     76  CD       -12.6360   44.2980  -15.2460 C.2   119  GLU119      0.3649
     77  OE1      -13.4600   45.0790  -14.7250 O.co2 119  GLU119     -0.2457
     78  OE2      -11.6400   43.8530  -14.6360 O.co2 119  GLU119     -0.2457
     79  N        -16.4890   40.5950  -16.3260 N.am  120  GLY120     -0.1955
     80  CA       -17.8270   40.1110  -16.5880 C.3   120  GLY120      0.1869
     81  C        -17.9620   39.4770  -17.9560 C.2   120  GLY120      0.2309
     82  O        -16.9940   39.0150  -18.5660 O.2   120  GLY120     -0.2863
     83  N        -28.7960   40.6750  -10.9670 N.3   134  TRP134     -0.1227
     84  CA       -28.9060   41.0530   -9.5620 C.3   134  TRP134      0.1737
     85  C        -27.5330   41.3560   -8.9760 C.2   134  TRP134      0.2596
     86  O        -26.5230   40.7840   -9.3910 O.2   134  TRP134     -0.2718
     87  CB       -29.5130   39.9250   -8.7200 C.3   134  TRP134      0.0564
     88  CG       -30.9710   39.6990   -8.9450 C.ar  134  TRP134      0.0003
     89  CD1      -31.5470   39.0210   -9.9800 C.ar  134  TRP134      0.0946
     90  CD2      -32.0440   40.1350   -8.1020 C.ar  134  TRP134      0.0152
     91  NE1      -32.9170   39.0200   -9.8380 N.ar  134  TRP134     -0.2442
     92  CE2      -33.2450   39.6970   -8.6930 C.ar  134  TRP134      0.0810
     93  CE3      -32.1050   40.8630   -6.9080 C.ar  134  TRP134      0.0012
     94  CZ2      -34.4930   39.9560   -8.1280 C.ar  134  TRP134      0.0191
     95  CZ3      -33.3440   41.1200   -6.3500 C.ar  134  TRP134      0.0001
     96  CH2      -34.5210   40.6640   -6.9580 C.ar  134  TRP134      0.0015
     97  N        -27.5150   42.2450   -7.9840 N.am  135  SER135     -0.1938
     98  CA       -26.3260   42.5480   -7.1960 C.3   135  SER135      0.2055
     99  C        -26.5930   42.2320   -5.7320 C.2   135  SER135      0.2643
    100  O        -27.6930   42.4780   -5.2250 O.2   135  SER135     -0.2714
    101  CB       -25.9650   44.0310   -7.2920 C.3   135  SER135      0.2130
    102  OG       -25.0030   44.3720   -6.3040 O.3   135  SER135     -0.2179
    103  N        -25.5790   41.7000   -5.0400 N.am  136  ILE136     -0.1963
    104  CA       -25.7190   41.4670   -3.6010 C.3   136  ILE136      0.1727
    105  C        -25.3720   42.6950   -2.7730 C.2   136  ILE136      0.2616
    106  O        -25.5780   42.6860   -1.5480 O.2   136  ILE136     -0.2715
    107  CB       -24.9140   40.2540   -3.0920 C.3   136  ILE136      0.0290
    108  CG1      -23.4140   40.4820   -3.2810 C.3   136  ILE136      0.0022
    109  CG2      -25.3810   38.9810   -3.7820 C.3   136  ILE136      0.0023
    110  CD1      -22.5610   39.7040   -2.2890 C.3   136  ILE136      0.0001
    111  N        -24.8600   43.7490   -3.3940 N.am  137  GLY137     -0.1955
    112  CA       -24.4740   44.9440   -2.6710 C.3   137  GLY137      0.1869
    113  C        -23.6170   45.8410   -3.5380 C.2   137  GLY137      0.2309
    114  O        -23.0980   45.3980   -4.5650 O.2   137  GLY137     -0.2863
    115  N        -20.6400   46.8650   -3.9920 N.3   139  TYR139     -0.1227
    116  CA       -19.2040   46.6620   -3.8710 C.3   139  TYR139      0.1736
    117  C        -18.7730   45.6890   -4.9550 C.2   139  TYR139      0.2595
    118  O        -19.5960   44.9720   -5.5280 O.2   139  TYR139     -0.2718
    119  CB       -18.8110   46.1460   -2.4790 C.3   139  TYR139      0.0548
    120  CG       -19.7900   45.1470   -1.9100 C.ar  139  TYR139     -0.0200
    121  CD1      -19.7320   43.8070   -2.2640 C.ar  139  TYR139     -0.0009
    122  CD2      -20.7750   45.5460   -1.0210 C.ar  139  TYR139     -0.0009
    123  CE1      -20.6300   42.8930   -1.7450 C.ar  139  TYR139      0.0417
    124  CE2      -21.6750   44.6410   -0.4990 C.ar  139  TYR139      0.0417
    125  CZ       -21.5960   43.3160   -0.8600 C.ar  139  TYR139      0.1957
    126  OH       -22.4960   42.4140   -0.3390 O.3   139  TYR139     -0.2866
    127  N        -17.4710   45.6630   -5.2290 N.am  140  VAL140     -0.1966
    128  CA       -16.9100   44.8970   -6.3360 C.3   140  VAL140      0.1727
    129  C        -16.0570   43.7650   -5.7850 C.2   140  VAL140      0.2616
    130  O        -15.2510   43.9670   -4.8690 O.2   140  VAL140     -0.2715
    131  CB       -16.0810   45.8040   -7.2680 C.3   140  VAL140      0.0290
    132  CG1      -15.4950   44.9950   -8.4100 C.3   140  VAL140      0.0023
    133  CG2      -16.9420   46.9460   -7.7960 C.3   140  VAL140      0.0023
    134  N        -16.2250   42.5780   -6.3600 N.am  141  LEU141     -0.1963
    135  CA       -15.5360   41.3670   -5.9450 C.3   141  LEU141      0.1728
    136  C        -14.7900   40.7710   -7.1320 C.2   141  LEU141      0.2617
    137  O        -14.9510   41.2020   -8.2770 O.2   141  LEU141     -0.2715
    138  CB       -16.5370   40.3410   -5.4060 C.3   141  LEU141      0.0311
    139  CG       -17.4720   40.8300   -4.3010 C.3   141  LEU141      0.0022
    140  CD1      -18.4810   39.7500   -3.9760 C.3   141  LEU141      0.0001
    141  CD2      -16.6680   41.1990   -3.0750 C.3   141  LEU141      0.0001
    142  N        -13.9760   39.7490   -6.8480 N.am  142  THR142     -0.1937
    143  CA       -13.1820   39.1050   -7.8870 C.3   142  THR142      0.2028
    144  C        -13.9720   38.0920   -8.7010 C.2   142  THR142      0.2643
    145  O        -13.4480   37.5770   -9.6940 O.2   142  THR142     -0.2714
    146  CB       -11.9510   38.4190   -7.2840 C.3   142  THR142      0.1808
    147  OG1      -12.3630   37.3580   -6.4140 O.3   142  THR142     -0.2208
    148  CG2      -11.1110   39.4170   -6.4990 C.3   142  THR142      0.0379
    149  N        -15.2000   37.7780   -8.3050 N.am  143  GLY143     -0.1939
    150  CA       -16.0160   36.8630   -9.0810 C.3   143  GLY143      0.2014
    151  C        -17.4370   36.8650   -8.5730 C.2   143  GLY143      0.2639
    152  O        -17.7230   37.3430   -7.4710 O.2   143  GLY143     -0.2714
    153  N        -18.3310   36.3310   -9.4000 N.am  144  GLY144     -0.1954
    154  CA       -19.7090   36.1800   -8.9820 C.3   144  GLY144      0.1869
    155  C        -19.9840   34.9870   -8.0930 C.2   144  GLY144      0.2309
    156  O        -21.1330   34.7860   -7.6860 O.2   144  GLY144     -0.2863
    157  N        -21.2200   36.0810   -4.5180 N.3   147  PRO147     -0.2116
    158  CA       -22.6290   36.4990   -4.6380 C.3   147  PRO147      0.1372
    159  C        -23.5820   35.3470   -4.9060 C.2   147  PRO147      0.2244
    160  O        -24.6810   35.3140   -4.3400 O.2   147  PRO147     -0.2868
    161  CB       -22.5930   37.4890   -5.8070 C.3   147  PRO147      0.0268
    162  CG       -21.2170   38.0790   -5.7430 C.3   147  PRO147      0.0207
    163  CD       -20.3270   36.9320   -5.3320 C.3   147  PRO147      0.0892
@<TRIPOS>BOND
     1    82    81    2
     2    81    80    1
     3    74    75    1
     4    74    71    1
     5    67    65   ar
     6    67    68   ar
     7    65    63   ar
     8    75    76    1
     9    73    72    2
    10    80    79    1
    11    69    68    1
    12    68    66   ar
    13    63    62    1
    14    63    64   ar
    15    72    79   am
    16    72    71    1
    17    62    59    1
    18    71    70    1
    19    12    11    1
    20    66    64   ar
    21    70    60   am
    22    10    11   ar
    23    10     8   ar
    24    11     9   ar
    25     8     6   ar
    26    50    49    2
    27     9     7   ar
    28    76    77   ar
    29    76    78   ar
    30     6     7   ar
    31     6     5    1
    32     5     2    1
    33    59    60    1
    34    59    58    1
    35    60    61    2
    36    49    58   am
    37    49    48    1
    38    41    40    2
    39    39    40    1
    40    39    38    1
    41    47    48    1
    42    47    45   am
    43    44    45    1
    44    44    43    1
    45    40    42   am
    46    38    35    1
    47     2     1    1
    48     2     3    1
    49    48    51    1
    50    51    52    1
    51    45    46    2
    52    26    25    1
    53    37    36    2
    54    25    22    1
    55    52    53    1
    56     3     4    2
    57     3    13   am
    58    35    36    1
    59    35    34    1
    60    13    14    1
    61    34    29   am
    62    16    15    2
    63    53    54    1
    64    22    21    1
    65    22    23    1
    66    15    21   am
    67    15    14    1
    68    83    84    1
    69    33    27    1
    70    33    32    1
    71    14    17    1
    72    23    27   am
    73    23    24    2
    74    29    30    2
    75    29    28    1
    76    27    28    1
    77    54    55    2
    78    89    91   ar
    79    89    88   ar
    80    91    92   ar
    81    32    31    1
    82   145   144    2
    83    28    31    1
    84    84    85    1
    85    84    87    1
    86    17    18    1
    87    20    18    1
    88   153   154    1
    89   153   151   am
    90    86    85    2
    91   150   151    1
    92   150   149    1
    93    56    55    1
    94    55    57    1
    95   154   155    1
    96    85    97   am
    97    88    87    1
    98    88    90   ar
    99   144   149   am
   100   144   143    1
   101    92    94   ar
   102    92    90   ar
   103    18    19    1
   104   151   152    2
   105   132   131    1
   106   137   136    2
   107    94    96   ar
   108    90    93   ar
   109   155   156    2
   110    97    98    1
   111   143   146    1
   112   143   142    1
   113   133   131    1
   114   101    98    1
   115   101   102    1
   116   146   148    1
   117   146   147    1
   118   131   128    1
   119    98    99    1
   120   136   142   am
   121   136   135    1
   122    96    95   ar
   123    93    95   ar
   124   134   135    1
   125   134   129   am
   126   128   129    1
   127   128   127    1
   128   135   138    1
   129   161   162    1
   130   161   158    1
   131   129   130    2
   132   162   163    1
   133    99   100    2
   134    99   103   am
   135   118   117    2
   136   138   139    1
   137   163   157    1
   138   127   117   am
   139   103   104    1
   140   117   116    1
   141   159   158    1
   142   159   160    2
   143   158   157    1
   144   114   113    2
   145   139   140    1
   146   139   141    1
   147   115   116    1
   148   116   119    1
   149   109   107    1
   150   104   107    1
   151   104   105    1
   152   113   112    1
   153   111   105   am
   154   111   112    1
   155   108   107    1
   156   108   110    1
   157   105   106    2
   158   119   120    1
   159   121   120   ar
   160   121   123   ar
   161   120   122   ar
   162   123   125   ar
   163   122   124   ar
   164   125   124   ar
   165   125   126    1
