@<TRIPOS>MOLECULE
tmp/4yq7A00.pdb
 163 165 0 0 0
SMALL
GASTEIGER

@<TRIPOS>ATOM
      1  N        -27.8380   36.7100  -13.6250 N.3    89  TYR89      -0.1227
      2  CA       -26.4270   37.0890  -13.7000 C.3    89  TYR89       0.1736
      3  C        -26.1160   37.9960  -12.5080 C.2    89  TYR89       0.2595
      4  O        -26.8090   38.9940  -12.2860 O.2    89  TYR89      -0.2718
      5  CB       -26.1790   37.8900  -14.9690 C.3    89  TYR89       0.0548
      6  CG       -24.7480   38.3510  -15.1550 C.ar   89  TYR89      -0.0200
      7  CD1      -23.6610   37.4780  -14.9800 C.ar   89  TYR89      -0.0009
      8  CD2      -24.4870   39.6550  -15.5710 C.ar   89  TYR89      -0.0009
      9  CE1      -22.3470   37.9310  -15.2200 C.ar   89  TYR89       0.0417
     10  CE2      -23.2180   40.0860  -15.8020 C.ar   89  TYR89       0.0417
     11  CZ       -22.1580   39.2380  -15.6130 C.ar   89  TYR89       0.1957
     12  OH       -20.9060   39.7340  -15.8720 O.3    89  TYR89      -0.2866
     13  N        -25.0740   37.6610  -11.7500 N.am   90  LEU90      -0.1966
     14  CA       -24.7700   38.4440  -10.5400 C.3    90  LEU90       0.1728
     15  C        -23.8000   39.5470  -10.9290 C.2    90  LEU90       0.2617
     16  O        -22.7360   39.2650  -11.4940 O.2    90  LEU90      -0.2715
     17  CB       -24.1460   37.5360   -9.4670 C.3    90  LEU90       0.0311
     18  CG       -25.0020   36.5670   -8.6440 C.3    90  LEU90       0.0022
     19  CD1      -26.1860   37.3120   -8.0850 C.3    90  LEU90       0.0001
     20  CD2      -25.4290   35.3680   -9.5430 C.3    90  LEU90       0.0001
     21  N        -24.1770   40.8070  -10.6910 N.am   91  SER91      -0.1936
     22  CA       -23.2630   41.8860  -11.0480 C.3    91  SER91       0.2040
     23  C        -23.6070   43.1190  -10.2360 C.2    91  SER91       0.2485
     24  O        -24.7420   43.2560   -9.7570 O.2    91  SER91      -0.2729
     25  CB       -23.3090   42.2290  -12.5600 C.3    91  SER91       0.2129
     26  OG       -24.3600   43.1010  -12.8430 O.3    91  SER91      -0.2179
     27  N        -22.6680   44.0650  -10.1250 N.am   92  PRO92      -0.2715
     28  CA       -22.9850   45.3480   -9.4660 C.3    92  PRO92       0.1536
     29  C        -23.9960   46.1840  -10.2420 C.2    92  PRO92       0.2598
     30  O        -24.6320   47.0750   -9.6570 O.2    92  PRO92      -0.2715
     31  CB       -21.6220   46.0620   -9.3980 C.3    92  PRO92       0.0310
     32  CG       -20.5850   44.9930   -9.5990 C.3    92  PRO92       0.0237
     33  CD       -21.2500   43.9700  -10.5240 C.3    92  PRO92       0.0939
     34  N        -24.1640   45.9200  -11.5400 N.am   93  GLN93      -0.1978
     35  CA       -25.1550   46.6350  -12.3530 C.3    93  GLN93       0.1601
     36  C        -26.5720   46.1300  -12.1290 C.2    93  GLN93       0.2287
     37  O        -27.5070   46.6750  -12.7150 O.2    93  GLN93      -0.2864
     38  CB       -24.7900   46.5410  -13.8580 C.3    93  GLN93       0.0394
     39  CG       -23.6240   47.4640  -14.2290 C.3    93  GLN93       0.0908
     40  CD       -22.2810   46.8940  -13.7620 C.2    93  GLN93       0.2608
     41  OE1      -22.0030   45.6960  -13.9670 O.2    93  GLN93      -0.2717
     42  NE2      -21.4620   47.7320  -13.0990 N.am   93  GLN93      -0.0878
     43  N        -19.8060   35.7340  -13.1750 N.3   116  GLY116     -0.1210
     44  CA       -18.8240   36.4100  -14.0130 C.3   116  GLY116      0.1956
     45  C        -17.4530   36.4530  -13.3450 C.2   116  GLY116      0.2612
     46  O        -17.3390   36.4440  -12.1230 O.2   116  GLY116     -0.2717
     47  N        -16.3930   36.4360  -14.1720 N.am  117  ARG117     -0.1965
     48  CA       -15.0170   36.6600  -13.7430 C.3   117  ARG117      0.1729
     49  C        -14.4030   37.6710  -14.7050 C.2   117  ARG117      0.2616
     50  O        -15.0690   38.1240  -15.6360 O.2   117  ARG117     -0.2715
     51  CB       -14.1980   35.3590  -13.5960 C.3   117  ARG117      0.0348
     52  CG       -14.5970   34.4400  -12.3610 C.3   117  ARG117      0.0492
     53  CD       -13.5830   34.6040  -11.2390 C.3   117  ARG117      0.2205
     54  NE       -14.1890   34.2370   -9.9650 N.pl3 117  ARG117     -0.0865
     55  CZ       -13.5330   34.3070   -8.8480 C.cat 117  ARG117      0.5346
     56  NH1      -12.2420   34.7230   -8.9090 N.pl3 117  ARG117      0.1354
     57  NH2      -14.1180   33.9330   -7.6950 N.pl3 117  ARG117      0.1354
     58  N        -13.1630   38.0690  -14.4440 N.am  118  TYR118     -0.1960
     59  CA       -12.4600   39.0860  -15.2910 C.3   118  TYR118      0.1771
     60  C        -13.2740   40.3800  -15.2310 C.2   118  TYR118      0.2619
     61  O        -13.7560   40.7670  -14.1560 O.2   118  TYR118     -0.2715
     62  CB       -12.1600   38.5730  -16.7170 C.3   118  TYR118      0.0574
     63  CG       -11.6630   37.1920  -16.6880 C.ar  118  TYR118     -0.0198
     64  CD1      -10.4120   36.9100  -16.1950 C.ar  118  TYR118     -0.0009
     65  CD2      -12.4450   36.1420  -17.1530 C.ar  118  TYR118     -0.0009
     66  CE1       -9.9450   35.6070  -16.1370 C.ar  118  TYR118      0.0417
     67  CE2      -11.9730   34.8430  -17.1020 C.ar  118  TYR118      0.0417
     68  CZ       -10.7340   34.5820  -16.6120 C.ar  118  TYR118      0.1957
     69  OH       -10.2910   33.2900  -16.5340 O.3   118  TYR118     -0.2866
     70  N        -13.4580   41.0930  -16.3340 N.am  119  GLU119     -0.1963
     71  CA       -14.3150   42.2760  -16.2930 C.3   119  GLU119      0.1733
     72  C        -15.7780   41.9520  -16.5430 C.2   119  GLU119      0.2616
     73  O        -16.5870   42.8730  -16.7360 O.2   119  GLU119     -0.2715
     74  CB       -13.8320   43.3770  -17.2550 C.3   119  GLU119      0.0429
     75  CG       -12.3250   43.6200  -17.2160 C.3   119  GLU119      0.1163
     76  CD       -11.8700   44.1410  -15.8750 C.2   119  GLU119      0.3649
     77  OE1      -12.5240   45.0920  -15.3820 O.co2 119  GLU119     -0.2457
     78  OE2      -10.8920   43.5890  -15.2940 O.co2 119  GLU119     -0.2457
     79  N        -16.1340   40.6710  -16.5970 N.am  120  GLY120     -0.1955
     80  CA       -17.5330   40.3340  -16.7710 C.3   120  GLY120      0.1869
     81  C        -17.7990   39.6250  -18.0910 C.2   120  GLY120      0.2309
     82  O        -16.9170   38.9470  -18.6200 O.2   120  GLY120     -0.2863
     83  N        -28.8780   40.7620  -10.8320 N.3   134  TRP134     -0.1227
     84  CA       -29.0550   41.1100   -9.4150 C.3   134  TRP134      0.1737
     85  C        -27.6970   41.4270   -8.8030 C.2   134  TRP134      0.2596
     86  O        -26.6940   40.8200   -9.1960 O.2   134  TRP134     -0.2718
     87  CB       -29.6240   39.9360   -8.6550 C.3   134  TRP134      0.0564
     88  CG       -31.0850   39.7160   -8.8930 C.ar  134  TRP134      0.0003
     89  CD1      -31.6570   39.0660   -9.9470 C.ar  134  TRP134      0.0946
     90  CD2      -32.1730   40.1890   -8.0640 C.ar  134  TRP134      0.0152
     91  NE1      -33.0570   39.0960   -9.8210 N.ar  134  TRP134     -0.2442
     92  CE2      -33.3790   39.7840   -8.6770 C.ar  134  TRP134      0.0810
     93  CE3      -32.2340   40.9150   -6.8590 C.ar  134  TRP134      0.0012
     94  CZ2      -34.6320   40.0360   -8.1000 C.ar  134  TRP134      0.0191
     95  CZ3      -33.4610   41.1850   -6.3070 C.ar  134  TRP134      0.0001
     96  CH2      -34.6540   40.7380   -6.9310 C.ar  134  TRP134      0.0015
     97  N        -27.6600   42.4030   -7.8960 N.am  135  SER135     -0.1938
     98  CA       -26.4720   42.7370   -7.1070 C.3   135  SER135      0.2055
     99  C        -26.7160   42.3900   -5.6390 C.2   135  SER135      0.2643
    100  O        -27.8140   42.6120   -5.1210 O.2   135  SER135     -0.2714
    101  CB       -26.2040   44.2440   -7.1700 C.3   135  SER135      0.2130
    102  OG       -25.1650   44.6300   -6.2730 O.3   135  SER135     -0.2179
    103  N        -25.6710   41.8930   -4.9540 N.am  136  ILE136     -0.1963
    104  CA       -25.7880   41.6900   -3.5050 C.3   136  ILE136      0.1727
    105  C        -25.4850   42.9560   -2.7080 C.2   136  ILE136      0.2616
    106  O        -25.7320   42.9990   -1.4890 O.2   136  ILE136     -0.2715
    107  CB       -25.0120   40.4460   -3.0000 C.3   136  ILE136      0.0290
    108  CG1      -23.5040   40.6210   -3.2130 C.3   136  ILE136      0.0022
    109  CG2      -25.5200   39.1940   -3.7240 C.3   136  ILE136      0.0023
    110  CD1      -22.6350   39.8790   -2.1580 C.3   136  ILE136      0.0001
    111  N        -24.9900   43.9940   -3.3450 N.am  137  GLY137     -0.1955
    112  CA       -24.6700   45.2290   -2.6440 C.3   137  GLY137      0.1869
    113  C        -23.7740   46.0890   -3.5030 C.2   137  GLY137      0.2309
    114  O        -23.1900   45.6270   -4.4780 O.2   137  GLY137     -0.2863
    115  N        -20.7470   47.1880   -4.0080 N.3   139  TYR139     -0.1227
    116  CA       -19.2970   47.0140   -3.8530 C.3   139  TYR139      0.1736
    117  C        -18.8370   46.0170   -4.9040 C.2   139  TYR139      0.2595
    118  O        -19.6570   45.3050   -5.4840 O.2   139  TYR139     -0.2718
    119  CB       -18.9190   46.5280   -2.4330 C.3   139  TYR139      0.0548
    120  CG       -19.8990   45.4960   -1.8680 C.ar  139  TYR139     -0.0200
    121  CD1      -19.8350   44.1650   -2.2690 C.ar  139  TYR139     -0.0009
    122  CD2      -20.8740   45.8680   -0.9250 C.ar  139  TYR139     -0.0009
    123  CE1      -20.7370   43.2220   -1.7500 C.ar  139  TYR139      0.0417
    124  CE2      -21.7820   44.9690   -0.4320 C.ar  139  TYR139      0.0417
    125  CZ       -21.6790   43.6280   -0.8290 C.ar  139  TYR139      0.1957
    126  OH       -22.5680   42.7220   -0.3550 O.3   139  TYR139     -0.2866
    127  N        -17.5280   45.9920   -5.1610 N.am  140  VAL140     -0.1966
    128  CA       -16.9490   45.2210   -6.2600 C.3   140  VAL140      0.1727
    129  C        -16.1650   44.0460   -5.6960 C.2   140  VAL140      0.2616
    130  O        -15.3570   44.2120   -4.7680 O.2   140  VAL140     -0.2715
    131  CB       -16.0420   46.0840   -7.1590 C.3   140  VAL140      0.0290
    132  CG1      -15.4760   45.2300   -8.3150 C.3   140  VAL140      0.0023
    133  CG2      -16.8500   47.2750   -7.6980 C.3   140  VAL140      0.0023
    134  N        -16.3930   42.8700   -6.2720 N.am  141  LEU141     -0.1963
    135  CA       -15.7340   41.6430   -5.8710 C.3   141  LEU141      0.1728
    136  C        -14.9220   41.1140   -7.0390 C.2   141  LEU141      0.2617
    137  O        -15.0350   41.6020   -8.1740 O.2   141  LEU141     -0.2715
    138  CB       -16.7630   40.5910   -5.4410 C.3   141  LEU141      0.0311
    139  CG       -17.6710   41.1020   -4.2890 C.3   141  LEU141      0.0022
    140  CD1      -18.7410   40.0890   -3.9600 C.3   141  LEU141      0.0001
    141  CD2      -16.8910   41.3980   -3.0720 C.3   141  LEU141      0.0001
    142  N        -14.1400   40.0640   -6.7740 N.am  142  THR142     -0.1937
    143  CA       -13.3170   39.4960   -7.8330 C.3   142  THR142      0.2028
    144  C        -14.0890   38.5170   -8.7150 C.2   142  THR142      0.2643
    145  O        -13.5640   38.0970   -9.7580 O.2   142  THR142     -0.2714
    146  CB       -12.1120   38.7630   -7.2430 C.3   142  THR142      0.1808
    147  OG1      -12.5570   37.6300   -6.4590 O.3   142  THR142     -0.2208
    148  CG2      -11.2650   39.7440   -6.3390 C.3   142  THR142      0.0379
    149  N        -15.2990   38.1260   -8.3390 N.am  143  GLY143     -0.1939
    150  CA       -16.0890   37.2810   -9.2370 C.3   143  GLY143      0.2014
    151  C        -17.5010   37.1580   -8.7030 C.2   143  GLY143      0.2639
    152  O        -17.8080   37.5900   -7.5800 O.2   143  GLY143     -0.2714
    153  N        -18.3670   36.5610   -9.5270 N.am  144  GLY144     -0.1954
    154  CA       -19.7380   36.4550   -9.0540 C.3   144  GLY144      0.1869
    155  C        -20.0200   35.2440   -8.1770 C.2   144  GLY144      0.2309
    156  O        -21.1760   35.0290   -7.7980 O.2   144  GLY144     -0.2863
    157  N        -21.3100   36.2910   -4.5690 N.3   147  PRO147     -0.2116
    158  CA       -22.7120   36.7350   -4.6690 C.3   147  PRO147      0.1372
    159  C        -23.6870   35.5910   -4.9300 C.2   147  PRO147      0.2244
    160  O        -24.7940   35.5820   -4.3650 O.2   147  PRO147     -0.2868
    161  CB       -22.6840   37.7430   -5.8270 C.3   147  PRO147      0.0268
    162  CG       -21.2420   38.3380   -5.7510 C.3   147  PRO147      0.0207
    163  CD       -20.3700   37.1650   -5.3200 C.3   147  PRO147      0.0892
@<TRIPOS>BOND
     1    82    81    2
     2    81    80    1
     3    74    75    1
     4    74    71    1
     5    75    76    1
     6    65    67   ar
     7    65    63   ar
     8    67    68   ar
     9    80    79    1
    10    73    72    2
    11    62    63    1
    12    62    59    1
    13    63    64   ar
    14    68    69    1
    15    68    66   ar
    16    79    72   am
    17    72    71    1
    18    70    71    1
    19    70    60   am
    20    64    66   ar
    21    76    77   ar
    22    76    78   ar
    23    12    11    1
    24    10    11   ar
    25    10     8   ar
    26    50    49    2
    27    11     9   ar
    28     8     6   ar
    29    59    60    1
    30    59    58    1
    31    60    61    2
    32     9     7   ar
    33     6     7   ar
    34     6     5    1
    35     5     2    1
    36    49    58   am
    37    49    48    1
    38    39    38    1
    39    39    40    1
    40    47    48    1
    41    47    45   am
    42    44    45    1
    43    44    43    1
    44    41    40    2
    45    38    35    1
    46    40    42   am
    47    48    51    1
    48     2     1    1
    49     2     3    1
    50    51    52    1
    51    45    46    2
    52    26    25    1
    53    37    36    2
    54    25    22    1
    55     3     4    2
    56     3    13   am
    57    52    53    1
    58    35    36    1
    59    35    34    1
    60    13    14    1
    61    34    29   am
    62    16    15    2
    63    53    54    1
    64    22    21    1
    65    22    23    1
    66    15    21   am
    67    15    14    1
    68    83    84    1
    69    14    17    1
    70    33    27    1
    71    33    32    1
    72    29    30    2
    73    29    28    1
    74    23    27   am
    75    23    24    2
    76    27    28    1
    77    54    55    2
    78    89    91   ar
    79    89    88   ar
    80    91    92   ar
    81   145   144    2
    82    32    31    1
    83    20    18    1
    84   153   154    1
    85   153   151   am
    86    17    18    1
    87    28    31    1
    88    84    85    1
    89    84    87    1
    90   150   151    1
    91   150   149    1
    92    86    85    2
    93   154   155    1
    94    56    55    1
    95    88    87    1
    96    88    90   ar
    97    55    57    1
    98    85    97   am
    99   144   149   am
   100   144   143    1
   101   151   152    2
   102    92    94   ar
   103    92    90   ar
   104    18    19    1
   105   132   131    1
   106   155   156    2
   107   137   136    2
   108    94    96   ar
   109    90    93   ar
   110    97    98    1
   111   143   146    1
   112   143   142    1
   113   133   131    1
   114   146   147    1
   115   146   148    1
   116   101    98    1
   117   101   102    1
   118   131   128    1
   119    98    99    1
   120   136   142   am
   121   136   135    1
   122    96    95   ar
   123    93    95   ar
   124   134   135    1
   125   134   129   am
   126   128   129    1
   127   128   127    1
   128   135   138    1
   129   161   162    1
   130   161   158    1
   131   162   163    1
   132   129   130    2
   133    99   100    2
   134    99   103   am
   135   118   117    2
   136   138   139    1
   137   163   157    1
   138   127   117   am
   139   103   104    1
   140   159   158    1
   141   159   160    2
   142   117   116    1
   143   158   157    1
   144   114   113    2
   145   139   140    1
   146   139   141    1
   147   115   116    1
   148   116   119    1
   149   109   107    1
   150   104   107    1
   151   104   105    1
   152   113   112    1
   153   111   105   am
   154   111   112    1
   155   108   107    1
   156   108   110    1
   157   105   106    2
   158   119   120    1
   159   121   120   ar
   160   121   123   ar
   161   120   122   ar
   162   123   125   ar
   163   122   124   ar
   164   125   124   ar
   165   125   126    1
