@<TRIPOS>MOLECULE
tmp/4yq8A00.pdb
 154 156 0 0 0
SMALL
GASTEIGER

@<TRIPOS>ATOM
      1  N        -27.7840   36.3610  -13.6540 N.3    89  TYR89      -0.1227
      2  CA       -26.3890   36.7700  -13.6840 C.3    89  TYR89       0.1736
      3  C        -26.1110   37.6650  -12.4880 C.2    89  TYR89       0.2595
      4  O        -26.7910   38.6700  -12.2900 O.2    89  TYR89      -0.2718
      5  CB       -26.0630   37.4990  -14.9860 C.3    89  TYR89       0.0548
      6  CG       -24.6470   38.0360  -15.0730 C.ar   89  TYR89      -0.0200
      7  CD1      -23.5510   37.2170  -14.8220 C.ar   89  TYR89      -0.0009
      8  CD2      -24.4070   39.3550  -15.4400 C.ar   89  TYR89      -0.0009
      9  CE1      -22.2540   37.7100  -14.9160 C.ar   89  TYR89       0.0417
     10  CE2      -23.1190   39.8520  -15.5370 C.ar   89  TYR89       0.0417
     11  CZ       -22.0480   39.0270  -15.2740 C.ar   89  TYR89       0.1957
     12  OH       -20.7700   39.5240  -15.3750 O.3    89  TYR89      -0.2866
     13  N        -25.1240   37.2970  -11.6790 N.am   90  LEU90      -0.1966
     14  CA       -24.7730   38.1180  -10.5210 C.3    90  LEU90       0.1728
     15  C        -23.7960   39.2110  -10.9390 C.2    90  LEU90       0.2617
     16  O        -22.7350   38.9190  -11.4810 O.2    90  LEU90      -0.2715
     17  CB       -24.1630   37.2650   -9.4020 C.3    90  LEU90       0.0311
     18  CG       -25.0550   36.3350   -8.5700 C.3    90  LEU90       0.0022
     19  CD1      -26.2890   37.0780   -8.0740 C.3    90  LEU90       0.0001
     20  CD2      -25.4410   35.0980   -9.3590 C.3    90  LEU90       0.0001
     21  N        -24.1510   40.4690  -10.7000 N.am   91  SER91      -0.1936
     22  CA       -23.2470   41.5710  -11.0230 C.3    91  SER91       0.2040
     23  C        -23.6760   42.8590  -10.3360 C.2    91  SER91       0.2485
     24  O        -24.8330   42.9950   -9.9380 O.2    91  SER91      -0.2729
     25  CB       -23.1810   41.7960  -12.5350 C.3    91  SER91       0.2129
     26  OG       -24.0160   42.8710  -12.9190 O.3    91  SER91      -0.2179
     27  N        -22.7410   43.8120  -10.2060 N.am   92  PRO92      -0.2726
     28  CA       -23.0080   45.1030   -9.5620 C.3    92  PRO92       0.1402
     29  C        -24.0230   45.9400  -10.3370 C.2    92  PRO92       0.2269
     30  O        -24.5640   46.8970   -9.7870 O.2    92  PRO92      -0.2865
     31  CB       -21.6330   45.7840   -9.5510 C.3    92  PRO92       0.0296
     32  CG       -20.6470   44.6660   -9.6980 C.3    92  PRO92       0.0237
     33  CD       -21.3270   43.6780  -10.5980 C.3    92  PRO92       0.0939
     34  N        -19.7230   35.4520  -13.0450 N.3   116  GLY116     -0.1210
     35  CA       -18.7300   36.1210  -13.8630 C.3   116  GLY116      0.1956
     36  C        -17.3670   36.1340  -13.1910 C.2   116  GLY116      0.2612
     37  O        -17.2680   36.0900  -11.9660 O.2   116  GLY116     -0.2717
     38  N        -16.3150   36.1670  -14.0020 N.am  117  ARG117     -0.1965
     39  CA       -14.9640   36.3960  -13.5110 C.3   117  ARG117      0.1729
     40  C        -14.3280   37.4660  -14.3940 C.2   117  ARG117      0.2616
     41  O        -14.9410   37.9020  -15.3720 O.2   117  ARG117     -0.2715
     42  CB       -14.1430   35.1000  -13.5080 C.3   117  ARG117      0.0348
     43  CG       -14.4510   34.1680  -12.3370 C.3   117  ARG117      0.0492
     44  CD       -13.4780   34.3930  -11.1810 C.3   117  ARG117      0.2205
     45  NE       -14.0230   33.9390   -9.9060 N.pl3 117  ARG117     -0.0865
     46  CZ       -13.3560   33.9690   -8.7610 C.cat 117  ARG117      0.5346
     47  NH1      -12.1070   34.4270   -8.7340 N.pl3 117  ARG117      0.1354
     48  NH2      -13.9320   33.5380   -7.6440 N.pl3 117  ARG117      0.1354
     49  N        -13.1190   37.8950  -14.0470 N.am  118  TYR118     -0.1960
     50  CA       -12.4260   38.9410  -14.7980 C.3   118  TYR118      0.1771
     51  C        -13.2970   40.1920  -14.8310 C.2   118  TYR118      0.2619
     52  O        -13.9400   40.5190  -13.8410 O.2   118  TYR118     -0.2715
     53  CB       -12.0890   38.4570  -16.2150 C.3   118  TYR118      0.0574
     54  CG       -11.6030   37.0220  -16.2450 C.ar  118  TYR118     -0.0198
     55  CD1      -12.3020   36.0410  -16.9420 C.ar  118  TYR118     -0.0009
     56  CD2      -10.4630   36.6410  -15.5490 C.ar  118  TYR118     -0.0009
     57  CE1      -11.8600   34.7220  -16.9610 C.ar  118  TYR118      0.0417
     58  CE2      -10.0190   35.3260  -15.5600 C.ar  118  TYR118      0.0417
     59  CZ       -10.7210   34.3720  -16.2680 C.ar  118  TYR118      0.1957
     60  OH       -10.2750   33.0680  -16.2780 O.3   118  TYR118     -0.2866
     61  N        -13.3470   40.8850  -15.9650 N.am  119  GLU119     -0.1963
     62  CA       -14.1150   42.1280  -16.0080 C.3   119  GLU119      0.1733
     63  C        -15.5990   41.8760  -16.2660 C.2   119  GLU119      0.2616
     64  O        -16.3990   42.8100  -16.2710 O.2   119  GLU119     -0.2715
     65  CB       -13.5470   43.0820  -17.0640 C.3   119  GLU119      0.0429
     66  CG       -12.0660   43.3870  -16.8740 C.3   119  GLU119      0.1163
     67  CD       -11.7430   43.8640  -15.4690 C.2   119  GLU119      0.3649
     68  OE1      -12.5040   44.6970  -14.9330 O.co2 119  GLU119     -0.2457
     69  OE2      -10.7330   43.3990  -14.8960 O.co2 119  GLU119     -0.2457
     70  N        -15.9680   40.6150  -16.4750 N.am  120  GLY120     -0.1955
     71  CA       -17.3670   40.2610  -16.6420 C.3   120  GLY120      0.1869
     72  C        -17.6370   39.4670  -17.9090 C.2   120  GLY120      0.2309
     73  O        -16.7360   38.8260  -18.4470 O.2   120  GLY120     -0.2863
     74  N        -28.8810   40.4500  -10.8870 N.3   134  TRP134     -0.1227
     75  CA       -28.9850   40.7950   -9.4620 C.3   134  TRP134      0.1737
     76  C        -27.6280   41.1460   -8.8560 C.2   134  TRP134      0.2596
     77  O        -26.6160   40.5490   -9.2160 O.2   134  TRP134     -0.2718
     78  CB       -29.5900   39.6360   -8.6640 C.3   134  TRP134      0.0564
     79  CG       -31.0530   39.4260   -8.8710 C.ar  134  TRP134      0.0003
     80  CD1      -31.6490   38.7670   -9.9070 C.ar  134  TRP134      0.0946
     81  CD2      -32.1100   39.8670   -8.0100 C.ar  134  TRP134      0.0152
     82  NE1      -33.0160   38.7780   -9.7480 N.ar  134  TRP134     -0.2442
     83  CE2      -33.3230   39.4450   -8.5880 C.ar  134  TRP134      0.0810
     84  CE3      -32.1470   40.5800   -6.8060 C.ar  134  TRP134      0.0012
     85  CZ2      -34.5590   39.7120   -8.0060 C.ar  134  TRP134      0.0191
     86  CZ3      -33.3750   40.8430   -6.2280 C.ar  134  TRP134      0.0001
     87  CH2      -34.5650   40.4070   -6.8260 C.ar  134  TRP134      0.0015
     88  N        -27.6150   42.1010   -7.9290 N.am  135  SER135     -0.1938
     89  CA       -26.4100   42.4210   -7.1610 C.3   135  SER135      0.2055
     90  C        -26.6080   42.1310   -5.6790 C.2   135  SER135      0.2643
     91  O        -27.6750   42.4120   -5.1290 O.2   135  SER135     -0.2714
     92  CB       -26.0250   43.8900   -7.3340 C.3   135  SER135      0.2130
     93  OG       -25.0080   44.2450   -6.4120 O.3   135  SER135     -0.2179
     94  N        -25.5870   41.5890   -5.0200 N.am  136  ILE136     -0.1963
     95  CA       -25.6960   41.3590   -3.5790 C.3   136  ILE136      0.1727
     96  C        -25.2900   42.5990   -2.7860 C.2   136  ILE136      0.2616
     97  O        -25.4870   42.6630   -1.5700 O.2   136  ILE136     -0.2715
     98  CB       -24.8490   40.1520   -3.1070 C.3   136  ILE136      0.0290
     99  CG1      -23.3690   40.3610   -3.4160 C.3   136  ILE136      0.0022
    100  CG2      -25.3690   38.8630   -3.7210 C.3   136  ILE136      0.0023
    101  CD1      -22.4600   39.6330   -2.4560 C.3   136  ILE136      0.0001
    102  N        -24.7310   43.5920   -3.4700 N.am  137  GLY137     -0.1955
    103  CA       -24.3520   44.8240   -2.7990 C.3   137  GLY137      0.1869
    104  C        -23.4830   45.7320   -3.6470 C.2   137  GLY137      0.2309
    105  O        -22.8890   45.2960   -4.6300 O.2   137  GLY137     -0.2863
    106  N        -20.5320   46.8480   -3.8980 N.3   139  TYR139     -0.1227
    107  CA       -19.0900   46.6930   -3.7330 C.3   139  TYR139      0.1736
    108  C        -18.5910   45.7460   -4.8130 C.2   139  TYR139      0.2595
    109  O        -19.3820   45.0360   -5.4260 O.2   139  TYR139     -0.2718
    110  CB       -18.7460   46.1660   -2.3360 C.3   139  TYR139      0.0548
    111  CG       -19.7340   45.1530   -1.7890 C.ar  139  TYR139     -0.0200
    112  CD1      -19.6670   43.8180   -2.1590 C.ar  139  TYR139     -0.0009
    113  CD2      -20.7230   45.5350   -0.8950 C.ar  139  TYR139     -0.0009
    114  CE1      -20.5670   42.8910   -1.6560 C.ar  139  TYR139      0.0417
    115  CE2      -21.6250   44.6190   -0.3890 C.ar  139  TYR139      0.0417
    116  CZ       -21.5390   43.2960   -0.7670 C.ar  139  TYR139      0.1957
    117  OH       -22.4390   42.3830   -0.2680 O.3   139  TYR139     -0.2866
    118  N        -17.2830   45.7300   -5.0470 N.am  140  VAL140     -0.1966
    119  CA       -16.7370   44.9810   -6.1710 C.3   140  VAL140      0.1727
    120  C        -15.9200   43.7880   -5.7020 C.2   140  VAL140      0.2616
    121  O        -15.0410   43.9200   -4.8500 O.2   140  VAL140     -0.2715
    122  CB       -15.8600   45.8770   -7.0640 C.3   140  VAL140      0.0290
    123  CG1      -15.2980   45.0770   -8.2320 C.3   140  VAL140      0.0023
    124  CG2      -16.6680   47.0690   -7.5610 C.3   140  VAL140      0.0023
    125  N        -16.2270   42.6230   -6.2640 N.am  141  LEU141     -0.1963
    126  CA       -15.5730   41.3760   -5.8880 C.3   141  LEU141      0.1728
    127  C        -14.7460   40.8220   -7.0400 C.2   141  LEU141      0.2617
    128  O        -14.7880   41.3510   -8.1490 O.2   141  LEU141     -0.2715
    129  CB       -16.6150   40.3440   -5.4500 C.3   141  LEU141      0.0311
    130  CG       -17.5870   40.8350   -4.3680 C.3   141  LEU141      0.0022
    131  CD1      -18.6560   39.7940   -4.1080 C.3   141  LEU141      0.0001
    132  CD2      -16.8430   41.1790   -3.0800 C.3   141  LEU141      0.0001
    133  N        -14.0040   39.7500   -6.7770 N.am  142  THR142     -0.1937
    134  CA       -13.1490   39.1530   -7.7990 C.3   142  THR142      0.2028
    135  C        -13.9230   38.1720   -8.6630 C.2   142  THR142      0.2643
    136  O        -13.4330   37.7230   -9.6950 O.2   142  THR142     -0.2714
    137  CB       -11.9500   38.4100   -7.1770 C.3   142  THR142      0.1808
    138  OG1      -12.4280   37.3270   -6.3660 O.3   142  THR142     -0.2208
    139  CG2      -11.1130   39.3580   -6.3290 C.3   142  THR142      0.0379
    140  N        -15.1300   37.8210   -8.2340 N.am  143  GLY143     -0.1939
    141  CA       -15.9360   36.8910   -9.0060 C.3   143  GLY143      0.2014
    142  C        -17.3640   36.8320   -8.5100 C.2   143  GLY143      0.2639
    143  O        -17.6670   37.2990   -7.4090 O.2   143  GLY143     -0.2714
    144  N        -18.2430   36.2500   -9.3180 N.am  144  GLY144     -0.1954
    145  CA       -19.6430   36.1390   -8.9470 C.3   144  GLY144      0.1869
    146  C        -19.9690   34.9510   -8.0520 C.2   144  GLY144      0.2309
    147  O        -21.1270   34.7490   -7.6900 O.2   144  GLY144     -0.2863
    148  N        -21.2120   35.9820   -4.4450 N.3   147  PRO147     -0.2116
    149  CA       -22.6030   36.4310   -4.6080 C.3   147  PRO147      0.1372
    150  C        -23.5920   35.2860   -4.8740 C.2   147  PRO147      0.2244
    151  O        -24.6880   35.2860   -4.3120 O.2   147  PRO147     -0.2868
    152  CB       -22.5200   37.3670   -5.8140 C.3   147  PRO147      0.0268
    153  CG       -21.1450   37.9570   -5.7120 C.3   147  PRO147      0.0207
    154  CD       -20.2690   36.8310   -5.2000 C.3   147  PRO147      0.0892
@<TRIPOS>BOND
     1    73    72    2
     2    72    71    1
     3    65    66    1
     4    65    62    1
     5    57    55   ar
     6    57    59   ar
     7    55    54   ar
     8    66    67    1
     9    71    70    1
    10    70    63   am
    11    60    59    1
    12    64    63    2
    13    59    58   ar
    14    63    62    1
    15    54    53    1
    16    54    56   ar
    17    53    50    1
    18    62    61    1
    19    61    51   am
    20    58    56   ar
    21    10     8   ar
    22    10    11   ar
    23    67    68   ar
    24    67    69   ar
    25     8     6   ar
    26    12    11    1
    27    41    40    2
    28    11     9   ar
    29     6     5    1
    30     6     7   ar
    31     5     2    1
    32     9     7   ar
    33    51    50    1
    34    51    52    2
    35    50    49    1
    36    40    49   am
    37    40    39    1
    38    38    39    1
    39    38    36   am
    40    35    36    1
    41    35    34    1
    42     2     1    1
    43     2     3    1
    44    39    42    1
    45    42    43    1
    46    36    37    2
    47    26    25    1
    48    25    22    1
    49     3     4    2
    50     3    13   am
    51    43    44    1
    52    13    14    1
    53    16    15    2
    54    44    45    1
    55    22    21    1
    56    22    23    1
    57    15    21   am
    58    15    14    1
    59    74    75    1
    60    33    27    1
    61    33    32    1
    62    14    17    1
    63    29    30    2
    64    29    28    1
    65    23    27   am
    66    23    24    2
    67    27    28    1
    68    80    82   ar
    69    80    79   ar
    70    45    46    2
    71    82    83   ar
    72    32    31    1
    73   136   135    2
    74    28    31    1
    75    75    76    1
    76    75    78    1
    77    17    18    1
    78    20    18    1
    79   144   145    1
    80   144   142   am
    81    77    76    2
    82   141   142    1
    83   141   140    1
    84   145   146    1
    85    79    78    1
    86    79    81   ar
    87    76    88   am
    88    46    47    1
    89    46    48    1
    90   135   140   am
    91   135   134    1
    92    83    81   ar
    93    83    85   ar
    94    18    19    1
    95   142   143    2
    96   123   122    1
    97   128   127    2
    98   146   147    2
    99    81    84   ar
   100    85    87   ar
   101    88    89    1
   102   134   137    1
   103   134   133    1
   104   124   122    1
   105    92    89    1
   106    92    93    1
   107   137   138    1
   108   137   139    1
   109    89    90    1
   110   122   119    1
   111   127   133   am
   112   127   126    1
   113    87    86   ar
   114    84    86   ar
   115   125   126    1
   116   125   120   am
   117   119   120    1
   118   119   118    1
   119   126   129    1
   120   152   153    1
   121   152   149    1
   122   153   154    1
   123   120   121    2
   124    90    91    2
   125    90    94   am
   126   129   130    1
   127   109   108    2
   128   154   148    1
   129   118   108   am
   130    94    95    1
   131   150   149    1
   132   150   151    2
   133   108   107    1
   134   105   104    2
   135   149   148    1
   136   130   131    1
   137   130   132    1
   138   106   107    1
   139   107   110    1
   140   100    98    1
   141   104   103    1
   142    95    98    1
   143    95    96    1
   144   102   103    1
   145   102    96   am
   146    99    98    1
   147    99   101    1
   148    96    97    2
   149   110   111    1
   150   112   111   ar
   151   112   114   ar
   152   111   113   ar
   153   114   116   ar
   154   113   115   ar
   155   116   115   ar
   156   116   117    1
