@<TRIPOS>MOLECULE
tmp/4yqaA00.pdb
 141 143 0 0 0
SMALL
GASTEIGER

@<TRIPOS>ATOM
      1  N        -27.8620   36.9150  -13.6690 N.3    88  TYR88      -0.1227
      2  CA       -26.4650   37.3410  -13.6740 C.3    88  TYR88       0.1736
      3  C        -26.2130   38.2470  -12.4810 C.2    88  TYR88       0.2595
      4  O        -26.9380   39.2110  -12.2820 O.2    88  TYR88      -0.2718
      5  CB       -26.1360   38.0790  -14.9720 C.3    88  TYR88       0.0548
      6  CG       -24.7100   38.5830  -15.0810 C.ar   88  TYR88      -0.0200
      7  CD1      -23.6290   37.7290  -14.8840 C.ar   88  TYR88      -0.0009
      8  CD2      -24.4520   39.9010  -15.4140 C.ar   88  TYR88      -0.0009
      9  CE1      -22.3180   38.1870  -15.0090 C.ar   88  TYR88       0.0417
     10  CE2      -23.1490   40.3690  -15.5390 C.ar   88  TYR88       0.0417
     11  CZ       -22.0920   39.5000  -15.3290 C.ar   88  TYR88       0.1957
     12  OH       -20.8020   39.9780  -15.4600 O.3    88  TYR88      -0.2866
     13  N        -25.1930   37.9270  -11.6880 N.am   89  LEU89      -0.1966
     14  CA       -24.8520   38.7410  -10.5270 C.3    89  LEU89       0.1728
     15  C        -23.8330   39.8100  -10.9080 C.2    89  LEU89       0.2617
     16  O        -22.7540   39.4980  -11.4110 O.2    89  LEU89      -0.2715
     17  CB       -24.2900   37.8670   -9.3940 C.3    89  LEU89       0.0311
     18  CG       -25.2170   36.9340   -8.6040 C.3    89  LEU89       0.0022
     19  CD1      -26.4780   37.6590   -8.1520 C.3    89  LEU89       0.0001
     20  CD2      -25.5460   35.6540   -9.3610 C.3    89  LEU89       0.0001
     21  N        -24.1690   41.0700  -10.6660 N.am   90  SER90      -0.1936
     22  CA       -23.2390   42.1530  -10.9640 C.3    90  SER90       0.2040
     23  C        -23.6430   43.4130  -10.2290 C.2    90  SER90       0.2485
     24  O        -24.7960   43.5620   -9.8360 O.2    90  SER90      -0.2729
     25  CB       -23.1810   42.4290  -12.4760 C.3    90  SER90       0.2129
     26  OG       -24.1130   43.4310  -12.8320 O.3    90  SER90      -0.2179
     27  N        -22.6970   44.3420  -10.0400 N.am   91  PRO91      -0.2726
     28  CA       -23.0510   45.6210   -9.4230 C.3    91  PRO91       0.1402
     29  C        -24.0760   46.4490  -10.2100 C.2    91  PRO91       0.2269
     30  O        -24.6510   47.3810   -9.6390 O.2    91  PRO91      -0.2865
     31  CB       -21.7020   46.3550   -9.3450 C.3    91  PRO91       0.0296
     32  CG       -20.6790   45.2630   -9.3590 C.3    91  PRO91       0.0237
     33  CD       -21.2480   44.2170  -10.2820 C.3    91  PRO91       0.0939
     34  N        -19.8010   35.8430  -13.0620 N.3   115  GLY115     -0.1210
     35  CA       -18.7780   36.4920  -13.8640 C.3   115  GLY115      0.1956
     36  C        -17.4230   36.5320  -13.1860 C.2   115  GLY115      0.2612
     37  O        -17.3270   36.5720  -11.9570 O.2   115  GLY115     -0.2717
     38  N        -16.3700   36.5380  -13.9990 N.am  116  ARG116     -0.1965
     39  CA       -15.0070   36.7730  -13.5370 C.3   116  ARG116      0.1729
     40  C        -14.3770   37.7730  -14.4950 C.2   116  ARG116      0.2616
     41  O        -15.0190   38.2040  -15.4520 O.2   116  ARG116     -0.2715
     42  CB       -14.2010   35.4660  -13.4580 C.3   116  ARG116      0.0348
     43  CG       -14.5790   34.5860  -12.2330 C.3   116  ARG116      0.0492
     44  CD       -13.6540   34.8680  -11.0520 C.3   116  ARG116      0.2205
     45  NE       -14.2340   34.4110   -9.7840 N.pl3 116  ARG116     -0.0865
     46  CZ       -13.5650   34.3840   -8.6470 C.cat 116  ARG116      0.5346
     47  NH1      -12.2850   34.7790   -8.6160 N.pl3 116  ARG116      0.1354
     48  NH2      -14.1710   33.9730   -7.5380 N.pl3 116  ARG116      0.1354
     49  N        -13.1370   38.1640  -14.2210 N.am  117  TYR117     -0.1974
     50  CA       -12.4400   39.1820  -15.0100 C.3   117  TYR117      0.1639
     51  C        -13.2550   40.4790  -15.0060 C.2   117  TYR117      0.2290
     52  O        -13.7940   40.8500  -13.9510 O.2   117  TYR117     -0.2864
     53  CB       -12.1650   38.6650  -16.4250 C.3   117  TYR117      0.0560
     54  CG       -11.6430   37.2460  -16.4100 C.ar  117  TYR117     -0.0198
     55  CD1      -10.4880   36.9180  -15.7120 C.ar  117  TYR117     -0.0009
     56  CD2      -12.3240   36.2310  -17.0520 C.ar  117  TYR117     -0.0009
     57  CE1      -10.0170   35.6120  -15.6800 C.ar  117  TYR117      0.0417
     58  CE2      -11.8620   34.9330  -17.0270 C.ar  117  TYR117      0.0417
     59  CZ       -10.7150   34.6250  -16.3480 C.ar  117  TYR117      0.1957
     60  OH       -10.2730   33.3170  -16.3340 O.3   117  TYR117     -0.2866
     61  N        -28.9840   40.9770  -10.9030 N.3   133  TRP133     -0.1227
     62  CA       -29.1010   41.3050   -9.4770 C.3   133  TRP133      0.1737
     63  C        -27.7510   41.6290   -8.8680 C.2   133  TRP133      0.2596
     64  O        -26.7420   41.0370   -9.2380 O.2   133  TRP133     -0.2718
     65  CB       -29.7220   40.1430   -8.6990 C.3   133  TRP133      0.0564
     66  CG       -31.1740   39.9160   -8.9490 C.ar  133  TRP133      0.0003
     67  CD1      -31.7370   39.2840  -10.0220 C.ar  133  TRP133      0.0946
     68  CD2      -32.2580   40.3120   -8.1040 C.ar  133  TRP133      0.0152
     69  NE1      -33.1090   39.2640   -9.8940 N.ar  133  TRP133     -0.2442
     70  CE2      -33.4500   39.8900   -8.7230 C.ar  133  TRP133      0.0810
     71  CE3      -32.3380   40.9820   -6.8760 C.ar  133  TRP133      0.0012
     72  CZ2      -34.6990   40.1090   -8.1580 C.ar  133  TRP133      0.0191
     73  CZ3      -33.5740   41.2020   -6.3240 C.ar  133  TRP133      0.0001
     74  CH2      -34.7420   40.7670   -6.9630 C.ar  133  TRP133      0.0015
     75  N        -27.7550   42.5540   -7.9150 N.am  134  SER134     -0.1938
     76  CA       -26.5810   42.9070   -7.1180 C.3   134  SER134      0.2055
     77  C        -26.8210   42.5750   -5.6560 C.2   134  SER134      0.2643
     78  O        -27.9120   42.7970   -5.1530 O.2   134  SER134     -0.2714
     79  CB       -26.2800   44.3970   -7.2490 C.3   134  SER134      0.2130
     80  OG       -25.2940   44.7960   -6.3080 O.3   134  SER134     -0.2179
     81  N        -25.8000   42.0900   -4.9550 N.am  135  ILE135     -0.1963
     82  CA       -25.9660   41.8890   -3.5150 C.3   135  ILE135      0.1727
     83  C        -25.5920   43.1430   -2.7030 C.2   135  ILE135      0.2616
     84  O        -25.7800   43.1900   -1.4790 O.2   135  ILE135     -0.2715
     85  CB       -25.1560   40.6630   -3.0030 C.3   135  ILE135      0.0290
     86  CG1      -23.6500   40.8560   -3.1760 C.3   135  ILE135      0.0022
     87  CG2      -25.6490   39.3930   -3.6880 C.3   135  ILE135      0.0023
     88  CD1      -22.8240   40.0410   -2.1660 C.3   135  ILE135      0.0001
     89  N        -25.0930   44.1720   -3.3740 N.am  136  GLY136     -0.1955
     90  CA       -24.7560   45.4070   -2.6830 C.3   136  GLY136      0.1869
     91  C        -23.8440   46.2800   -3.5100 C.2   136  GLY136      0.2309
     92  O        -23.2480   45.8110   -4.4840 O.2   136  GLY136     -0.2863
     93  N        -20.8880   47.3380   -4.0250 N.3   138  TYR138     -0.1227
     94  CA       -19.4510   47.1440   -3.8810 C.3   138  TYR138      0.1736
     95  C        -19.0040   46.1620   -4.9320 C.2   138  TYR138      0.2595
     96  O        -19.8260   45.4670   -5.5400 O.2   138  TYR138     -0.2718
     97  CB       -19.0790   46.6570   -2.4650 C.3   138  TYR138      0.0548
     98  CG       -20.0490   45.6430   -1.8920 C.ar  138  TYR138     -0.0200
     99  CD1      -19.9870   44.3070   -2.2640 C.ar  138  TYR138     -0.0009
    100  CD2      -21.0290   46.0290   -0.9880 C.ar  138  TYR138     -0.0009
    101  CE1      -20.8810   43.3800   -1.7540 C.ar  138  TYR138      0.0417
    102  CE2      -21.9240   45.1130   -0.4700 C.ar  138  TYR138      0.0417
    103  CZ       -21.8420   43.7940   -0.8520 C.ar  138  TYR138      0.1957
    104  OH       -22.7300   42.8750   -0.3620 O.3   138  TYR138     -0.2866
    105  N        -17.7000   46.1330   -5.1730 N.am  139  VAL139     -0.1966
    106  CA       -17.1480   45.3370   -6.2560 C.3   139  VAL139      0.1727
    107  C        -16.3110   44.1920   -5.7110 C.2   139  VAL139      0.2616
    108  O        -15.4690   44.3930   -4.8260 O.2   139  VAL139     -0.2715
    109  CB       -16.2990   46.2070   -7.1850 C.3   139  VAL139      0.0290
    110  CG1      -15.7390   45.3850   -8.3370 C.3   139  VAL139      0.0023
    111  CG2      -17.1460   47.3590   -7.7150 C.3   139  VAL139      0.0023
    112  N        -16.5640   43.0020   -6.2430 N.am  140  LEU140     -0.1963
    113  CA       -15.8570   41.7850   -5.8630 C.3   140  LEU140      0.1728
    114  C        -15.0700   41.2220   -7.0340 C.2   140  LEU140      0.2617
    115  O        -15.2570   41.6470   -8.1880 O.2   140  LEU140     -0.2715
    116  CB       -16.8460   40.7370   -5.3520 C.3   140  LEU140      0.0311
    117  CG       -17.7380   41.2460   -4.2210 C.3   140  LEU140      0.0022
    118  CD1      -18.7740   40.1890   -3.9030 C.3   140  LEU140      0.0001
    119  CD2      -16.9280   41.5810   -2.9910 C.3   140  LEU140      0.0001
    120  N        -14.2030   40.2530   -6.7530 N.am  141  THR141     -0.1937
    121  CA       -13.3910   39.6490   -7.8110 C.3   141  THR141      0.2028
    122  C        -14.1520   38.6480   -8.6780 C.2   141  THR141      0.2643
    123  O        -13.6650   38.2450   -9.7400 O.2   141  THR141     -0.2714
    124  CB       -12.1470   38.9220   -7.2550 C.3   141  THR141      0.1808
    125  OG1      -12.5610   37.8360   -6.4130 O.3   141  THR141     -0.2208
    126  CG2      -11.2350   39.8830   -6.4910 C.3   141  THR141      0.0379
    127  N        -15.3390   38.2490   -8.2460 N.am  142  GLY142     -0.1939
    128  CA       -16.1160   37.2900   -9.0060 C.3   142  GLY142      0.2014
    129  C        -17.5460   37.2320   -8.5140 C.2   142  GLY142      0.2639
    130  O        -17.8560   37.6970   -7.4080 O.2   142  GLY142     -0.2714
    131  N        -18.4250   36.6620   -9.3330 N.am  143  GLY143     -0.1954
    132  CA       -19.8190   36.5360   -8.9520 C.3   143  GLY143      0.1869
    133  C        -20.1550   35.3520   -8.0590 C.2   143  GLY143      0.2309
    134  O        -21.3170   35.1930   -7.6740 O.2   143  GLY143     -0.2863
    135  N        -21.4250   36.4630   -4.4990 N.3   146  PRO146     -0.2116
    136  CA       -22.8200   36.9150   -4.6320 C.3   146  PRO146      0.1372
    137  C        -23.8050   35.7730   -4.8920 C.2   146  PRO146      0.2244
    138  O        -24.8940   35.7540   -4.3090 O.2   146  PRO146     -0.2868
    139  CB       -22.7550   37.8750   -5.8280 C.3   146  PRO146      0.0268
    140  CG       -21.3620   38.4670   -5.7150 C.3   146  PRO146      0.0207
    141  CD       -20.4900   37.3300   -5.2550 C.3   146  PRO146      0.0892
@<TRIPOS>BOND
     1    56    58   ar
     2    56    54   ar
     3    58    59   ar
     4    53    54    1
     5    53    50    1
     6    54    55   ar
     7    59    60    1
     8    59    57   ar
     9    55    57   ar
    10    10     8   ar
    11    10    11   ar
    12    12    11    1
    13    41    40    2
    14     8     6   ar
    15    11     9   ar
    16     6     5    1
    17     6     7   ar
    18    50    51    1
    19    50    49    1
    20     9     7   ar
    21    51    52    2
    22     5     2    1
    23    40    49   am
    24    40    39    1
    25    38    39    1
    26    38    36   am
    27    35    36    1
    28    35    34    1
    29     2     1    1
    30     2     3    1
    31    39    42    1
    32    42    43    1
    33    36    37    2
    34    26    25    1
    35     3     4    2
    36     3    13   am
    37    25    22    1
    38    43    44    1
    39    13    14    1
    40    16    15    2
    41    44    45    1
    42    22    21    1
    43    22    23    1
    44    15    21   am
    45    15    14    1
    46    61    62    1
    47    14    17    1
    48    33    27    1
    49    33    32    1
    50    23    27   am
    51    23    24    2
    52    29    30    2
    53    29    28    1
    54    27    28    1
    55    67    69   ar
    56    67    66   ar
    57    69    70   ar
    58    45    46    2
    59   123   122    2
    60    62    63    1
    61    62    65    1
    62    28    31    1
    63    17    18    1
    64    20    18    1
    65    32    31    1
    66   131   132    1
    67   131   129   am
    68    64    63    2
    69   128   129    1
    70   128   127    1
    71   132   133    1
    72    66    65    1
    73    66    68   ar
    74    63    75   am
    75    70    72   ar
    76    70    68   ar
    77   122   127   am
    78   122   121    1
    79    46    47    1
    80    46    48    1
    81    18    19    1
    82   129   130    2
    83   110   109    1
    84   115   114    2
    85    72    74   ar
    86    68    71   ar
    87   133   134    2
    88    75    76    1
    89   121   124    1
    90   121   120    1
    91   111   109    1
    92   124   126    1
    93   124   125    1
    94    79    76    1
    95    79    80    1
    96   109   106    1
    97    76    77    1
    98   114   120   am
    99   114   113    1
   100    74    73   ar
   101    71    73   ar
   102   106   107    1
   103   106   105    1
   104   112   113    1
   105   112   107   am
   106   113   116    1
   107   139   140    1
   108   139   136    1
   109   140   141    1
   110   107   108    2
   111    77    78    2
   112    77    81   am
   113    96    95    2
   114   116   117    1
   115   141   135    1
   116   105    95   am
   117    81    82    1
   118    95    94    1
   119   137   136    1
   120   137   138    2
   121   136   135    1
   122    92    91    2
   123   117   118    1
   124   117   119    1
   125    93    94    1
   126    94    97    1
   127    87    85    1
   128    82    85    1
   129    82    83    1
   130    91    90    1
   131    89    83   am
   132    89    90    1
   133    86    85    1
   134    86    88    1
   135    83    84    2
   136    97    98    1
   137    99    98   ar
   138    99   101   ar
   139    98   100   ar
   140   101   103   ar
   141   100   102   ar
   142   103   102   ar
   143   103   104    1
