@<TRIPOS>MOLECULE
tmp/4yqcA00.pdb
 154 156 0 0 0
SMALL
GASTEIGER

@<TRIPOS>ATOM
      1  N        -27.7900   36.7160  -13.7180 N.3    88  TYR88      -0.1227
      2  CA       -26.3840   37.1110  -13.7400 C.3    88  TYR88       0.1736
      3  C        -26.0650   37.9850  -12.5280 C.2    88  TYR88       0.2595
      4  O        -26.7810   38.9490  -12.2550 O.2    88  TYR88      -0.2718
      5  CB       -26.0640   37.8700  -15.0260 C.3    88  TYR88       0.0548
      6  CG       -24.6500   38.4200  -15.1090 C.ar   88  TYR88      -0.0200
      7  CD1      -23.5430   37.6080  -14.8780 C.ar   88  TYR88      -0.0009
      8  CD2      -24.4260   39.7460  -15.4620 C.ar   88  TYR88      -0.0009
      9  CE1      -22.2480   38.1220  -14.9760 C.ar   88  TYR88       0.0417
     10  CE2      -23.1500   40.2580  -15.5690 C.ar   88  TYR88       0.0417
     11  CZ       -22.0680   39.4460  -15.3180 C.ar   88  TYR88       0.1957
     12  OH       -20.8090   39.9630  -15.4290 O.3    88  TYR88      -0.2866
     13  N        -24.9990   37.6540  -11.8040 N.am   89  LEU89      -0.1966
     14  CA       -24.6300   38.4190  -10.6110 C.3    89  LEU89       0.1728
     15  C        -23.6840   39.5540  -10.9810 C.2    89  LEU89       0.2617
     16  O        -22.6170   39.3120  -11.5350 O.2    89  LEU89      -0.2715
     17  CB       -23.9690   37.5110   -9.5550 C.3    89  LEU89       0.0311
     18  CG       -24.8390   36.5500   -8.7340 C.3    89  LEU89       0.0022
     19  CD1      -25.9990   37.3040   -8.1020 C.3    89  LEU89       0.0001
     20  CD2      -25.3460   35.3870   -9.5730 C.3    89  LEU89       0.0001
     21  N        -24.0660   40.7930  -10.6760 N.am   90  SER90      -0.1936
     22  CA       -23.1900   41.9230  -10.9710 C.3    90  SER90       0.2040
     23  C        -23.6230   43.1650  -10.2070 C.2    90  SER90       0.2485
     24  O        -24.7810   43.2670   -9.8120 O.2    90  SER90      -0.2729
     25  CB       -23.1770   42.2280  -12.4770 C.3    90  SER90       0.2129
     26  OG       -24.0590   43.2930  -12.7610 O.3    90  SER90      -0.2179
     27  N        -22.6980   44.1210  -10.0230 N.am   91  PRO91      -0.2726
     28  CA       -23.0340   45.3920   -9.3640 C.3    91  PRO91       0.1402
     29  C        -24.0380   46.2360  -10.1590 C.2    91  PRO91       0.2269
     30  O        -24.6010   47.1820   -9.6130 O.2    91  PRO91      -0.2865
     31  CB       -21.6810   46.1080   -9.2730 C.3    91  PRO91       0.0296
     32  CG       -20.6660   45.0220   -9.3280 C.3    91  PRO91       0.0237
     33  CD       -21.2450   43.9890  -10.2550 C.3    91  PRO91       0.0939
     34  N        -19.6560   35.6370  -13.1190 N.3   115  GLY115     -0.1210
     35  CA       -18.6240   36.1970  -13.9670 C.3   115  GLY115      0.1956
     36  C        -17.2910   36.2930  -13.2480 C.2   115  GLY115      0.2612
     37  O        -17.2450   36.4190  -12.0190 O.2   115  GLY115     -0.2717
     38  N        -16.2120   36.2260  -14.0260 N.am  116  ARG116     -0.1965
     39  CA       -14.8640   36.5260  -13.5600 C.3   116  ARG116      0.1729
     40  C        -14.2340   37.5740  -14.4840 C.2   116  ARG116      0.2616
     41  O        -14.8860   38.0600  -15.4110 O.2   116  ARG116     -0.2715
     42  CB       -14.0100   35.2470  -13.4930 C.3   116  ARG116      0.0348
     43  CG       -14.3750   34.3370  -12.2880 C.3   116  ARG116      0.0492
     44  CD       -13.5550   34.7210  -11.0580 C.3   116  ARG116      0.2205
     45  NE       -14.1510   34.2390   -9.8090 N.pl3 116  ARG116     -0.0865
     46  CZ       -13.5360   34.2710   -8.6350 C.cat 116  ARG116      0.5346
     47  NH1      -12.2860   34.7320   -8.5480 N.pl3 116  ARG116      0.1354
     48  NH2      -14.1620   33.8210   -7.5510 N.pl3 116  ARG116      0.1354
     49  N        -12.9780   37.9260  -14.2150 N.am  117  TYR117     -0.1960
     50  CA       -12.2630   38.9690  -14.9610 C.3   117  TYR117      0.1771
     51  C        -13.0640   40.2720  -14.9540 C.2   117  TYR117      0.2619
     52  O        -13.5530   40.6790  -13.9030 O.2   117  TYR117     -0.2715
     53  CB       -11.9590   38.4860  -16.3900 C.3   117  TYR117      0.0574
     54  CG       -11.4450   37.0640  -16.3890 C.ar  117  TYR117     -0.0198
     55  CD1      -10.2420   36.7420  -15.7730 C.ar  117  TYR117     -0.0009
     56  CD2      -12.1870   36.0330  -16.9590 C.ar  117  TYR117     -0.0009
     57  CE1       -9.7750   35.4320  -15.7450 C.ar  117  TYR117      0.0417
     58  CE2      -11.7280   34.7230  -16.9270 C.ar  117  TYR117      0.0417
     59  CZ       -10.5250   34.4290  -16.3280 C.ar  117  TYR117      0.1957
     60  OH       -10.0780   33.1200  -16.3080 O.3   117  TYR117     -0.2866
     61  N        -13.2140   40.9380  -16.0980 N.am  118  GLU118     -0.1963
     62  CA       -13.9630   42.2020  -16.0750 C.3   118  GLU118      0.1733
     63  C        -15.4510   42.0100  -16.3600 C.2   118  GLU118      0.2616
     64  O        -16.2030   42.9820  -16.4370 O.2   118  GLU118     -0.2715
     65  CB       -13.3780   43.2200  -17.0610 C.3   118  GLU118      0.0429
     66  CG       -11.9060   43.5550  -16.8200 C.3   118  GLU118      0.1163
     67  CD       -11.5990   43.9140  -15.3700 C.2   118  GLU118      0.3649
     68  OE1      -12.3850   44.6700  -14.7540 O.co2 118  GLU118     -0.2457
     69  OE2      -10.5710   43.4330  -14.8430 O.co2 118  GLU118     -0.2457
     70  N        -15.8780   40.7630  -16.5140 N.am  119  GLY119     -0.1955
     71  CA       -17.2940   40.4790  -16.6770 C.3   119  GLY119      0.1869
     72  C        -17.6020   39.7000  -17.9410 C.2   119  GLY119      0.2309
     73  O        -16.7480   38.9840  -18.4560 O.2   119  GLY119     -0.2863
     74  N        -28.8360   40.7160  -10.8600 N.3   133  TRP133     -0.1227
     75  CA       -28.9960   40.9960   -9.4320 C.3   133  TRP133      0.1737
     76  C        -27.6560   41.3360   -8.8060 C.2   133  TRP133      0.2596
     77  O        -26.6380   40.7330   -9.1650 O.2   133  TRP133     -0.2718
     78  CB       -29.6030   39.7940   -8.7030 C.3   133  TRP133      0.0564
     79  CG       -31.0650   39.6190   -8.9120 C.ar  133  TRP133      0.0003
     80  CD1      -31.6770   39.0260   -9.9780 C.ar  133  TRP133      0.0946
     81  CD2      -32.1110   40.0360   -8.0260 C.ar  133  TRP133      0.0152
     82  NE1      -33.0460   39.0560   -9.8130 N.ar  133  TRP133     -0.2442
     83  CE2      -33.3340   39.6670   -8.6200 C.ar  133  TRP133      0.0810
     84  CE3      -32.1290   40.6870   -6.7860 C.ar  133  TRP133      0.0012
     85  CZ2      -34.5640   39.9280   -8.0180 C.ar  133  TRP133      0.0191
     86  CZ3      -33.3450   40.9380   -6.1910 C.ar  133  TRP133      0.0001
     87  CH2      -34.5480   40.5540   -6.8040 C.ar  133  TRP133      0.0015
     88  N        -27.6640   42.2990   -7.8830 N.am  134  SER134     -0.1938
     89  CA       -26.4950   42.6400   -7.0680 C.3   134  SER134      0.2055
     90  C        -26.7490   42.3220   -5.6040 C.2   134  SER134      0.2643
     91  O        -27.8690   42.4950   -5.1260 O.2   134  SER134     -0.2714
     92  CB       -26.1560   44.1300   -7.1810 C.3   134  SER134      0.2130
     93  OG       -25.1620   44.4910   -6.2370 O.3   134  SER134     -0.2179
     94  N        -25.7170   41.8840   -4.8800 N.am  135  ILE135     -0.1963
     95  CA       -25.8850   41.6820   -3.4340 C.3   135  ILE135      0.1727
     96  C        -25.5230   42.9490   -2.6530 C.2   135  ILE135      0.2616
     97  O        -25.6680   43.0030   -1.4270 O.2   135  ILE135     -0.2715
     98  CB       -25.0490   40.4780   -2.9050 C.3   135  ILE135      0.0290
     99  CG1      -23.5530   40.6860   -3.1470 C.3   135  ILE135      0.0022
    100  CG2      -25.5220   39.1850   -3.5570 C.3   135  ILE135      0.0023
    101  CD1      -22.6560   39.9130   -2.1810 C.3   135  ILE135      0.0001
    102  N        -25.0750   43.9840   -3.3520 N.am  136  GLY136     -0.1955
    103  CA       -24.7140   45.2240   -2.6750 C.3   136  GLY136      0.1869
    104  C        -23.8200   46.1120   -3.5220 C.2   136  GLY136      0.2309
    105  O        -23.2360   45.6590   -4.5070 O.2   136  GLY136     -0.2863
    106  N        -20.8570   47.1860   -4.0580 N.3   138  TYR138     -0.1227
    107  CA       -19.4090   47.0120   -3.9150 C.3   138  TYR138      0.1736
    108  C        -18.9230   46.0210   -4.9570 C.2   138  TYR138      0.2595
    109  O        -19.7150   45.2520   -5.5050 O.2   138  TYR138     -0.2718
    110  CB       -19.0310   46.5370   -2.5030 C.3   138  TYR138      0.0548
    111  CG       -19.9880   45.5130   -1.9340 C.ar  138  TYR138     -0.0200
    112  CD1      -19.9180   44.1800   -2.3200 C.ar  138  TYR138     -0.0009
    113  CD2      -20.9720   45.8860   -1.0260 C.ar  138  TYR138     -0.0009
    114  CE1      -20.7950   43.2430   -1.8170 C.ar  138  TYR138      0.0417
    115  CE2      -21.8560   44.9600   -0.5180 C.ar  138  TYR138      0.0417
    116  CZ       -21.7570   43.6400   -0.9040 C.ar  138  TYR138      0.1957
    117  OH       -22.6410   42.7240   -0.3960 O.3   138  TYR138     -0.2866
    118  N        -17.6210   46.0420   -5.2220 N.am  139  VAL139     -0.1966
    119  CA       -17.0460   45.2620   -6.3090 C.3   139  VAL139      0.1727
    120  C        -16.2160   44.1080   -5.7750 C.2   139  VAL139      0.2616
    121  O        -15.3910   44.2850   -4.8740 O.2   139  VAL139     -0.2715
    122  CB       -16.1720   46.1440   -7.2250 C.3   139  VAL139      0.0290
    123  CG1      -15.5860   45.3200   -8.3790 C.3   139  VAL139      0.0023
    124  CG2      -16.9920   47.3160   -7.7520 C.3   139  VAL139      0.0023
    125  N        -16.4620   42.9230   -6.3280 N.am  140  LEU140     -0.1963
    126  CA       -15.7540   41.7110   -5.9340 C.3   140  LEU140      0.1728
    127  C        -14.9830   41.1290   -7.1080 C.2   140  LEU140      0.2617
    128  O        -15.1870   41.5310   -8.2590 O.2   140  LEU140     -0.2715
    129  CB       -16.7360   40.6620   -5.3890 C.3   140  LEU140      0.0311
    130  CG       -17.6690   41.1430   -4.2690 C.3   140  LEU140      0.0022
    131  CD1      -18.6910   40.0800   -3.9230 C.3   140  LEU140      0.0001
    132  CD2      -16.8930   41.5090   -3.0460 C.3   140  LEU140      0.0001
    133  N        -14.1130   40.1630   -6.8280 N.am  141  THR141     -0.1937
    134  CA       -13.3060   39.5560   -7.8820 C.3   141  THR141      0.2028
    135  C        -14.0950   38.5680   -8.7400 C.2   141  THR141      0.2643
    136  O        -13.6390   38.1660   -9.8130 O.2   141  THR141     -0.2714
    137  CB       -12.0900   38.8160   -7.3060 C.3   141  THR141      0.1808
    138  OG1      -12.5350   37.7240   -6.4880 O.3   141  THR141     -0.2208
    139  CG2      -11.2130   39.7660   -6.5040 C.3   141  THR141      0.0379
    140  N        -15.2690   38.1650   -8.2670 N.am  142  GLY142     -0.1939
    141  CA       -16.0680   37.1940   -8.9960 C.3   142  GLY142      0.2014
    142  C        -17.5060   37.1430   -8.5140 C.2   142  GLY142      0.2639
    143  O        -17.8320   37.5950   -7.4020 O.2   142  GLY142     -0.2714
    144  N        -18.3740   36.5860   -9.3480 N.am  143  GLY143     -0.1954
    145  CA       -19.7750   36.4710   -8.9880 C.3   143  GLY143      0.1869
    146  C        -20.1280   35.2980   -8.0740 C.2   143  GLY143      0.2309
    147  O        -21.2890   35.1470   -7.6980 O.2   143  GLY143     -0.2863
    148  N        -21.3610   36.3470   -4.5000 N.3   146  PRO146     -0.2116
    149  CA       -22.7590   36.7910   -4.6180 C.3   146  PRO146      0.1372
    150  C        -23.7470   35.6610   -4.8860 C.2   146  PRO146      0.2244
    151  O        -24.8400   35.6800   -4.3240 O.2   146  PRO146     -0.2868
    152  CB       -22.7140   37.7620   -5.7990 C.3   146  PRO146      0.0268
    153  CG       -21.3360   38.3730   -5.6940 C.3   146  PRO146      0.0207
    154  CD       -20.4470   37.2240   -5.2680 C.3   146  PRO146      0.0892
@<TRIPOS>BOND
     1    73    72    2
     2    72    71    1
     3    65    66    1
     4    65    62    1
     5    56    58   ar
     6    56    54   ar
     7    58    59   ar
     8    66    67    1
     9    71    70    1
    10    70    63   am
    11    64    63    2
    12    53    54    1
    13    53    50    1
    14    54    55   ar
    15    63    62    1
    16    59    60    1
    17    59    57   ar
    18    61    62    1
    19    61    51   am
    20    55    57   ar
    21    10     8   ar
    22    10    11   ar
    23     8     6   ar
    24    12    11    1
    25    41    40    2
    26    67    69   ar
    27    67    68   ar
    28    11     9   ar
    29     6     5    1
    30     6     7   ar
    31     5     2    1
    32     9     7   ar
    33    50    51    1
    34    50    49    1
    35    51    52    2
    36    40    49   am
    37    40    39    1
    38    38    39    1
    39    38    36   am
    40    35    36    1
    41    35    34    1
    42     2     1    1
    43     2     3    1
    44    39    42    1
    45    42    43    1
    46    36    37    2
    47    26    25    1
    48     3     4    2
    49     3    13   am
    50    25    22    1
    51    43    44    1
    52    13    14    1
    53    16    15    2
    54    44    45    1
    55    15    21   am
    56    15    14    1
    57    22    21    1
    58    22    23    1
    59    74    75    1
    60    14    17    1
    61    33    27    1
    62    33    32    1
    63    23    27   am
    64    23    24    2
    65    29    30    2
    66    29    28    1
    67    27    28    1
    68    80    82   ar
    69    80    79   ar
    70    82    83   ar
    71   136   135    2
    72    45    46    2
    73    20    18    1
    74    17    18    1
    75    75    76    1
    76    75    78    1
    77    28    31    1
    78   144   145    1
    79   144   142   am
    80    32    31    1
    81    77    76    2
    82   141   142    1
    83   141   140    1
    84   145   146    1
    85    79    78    1
    86    79    81   ar
    87    76    88   am
    88   135   140   am
    89   135   134    1
    90    18    19    1
    91    46    47    1
    92    46    48    1
    93    83    81   ar
    94    83    85   ar
    95   142   143    2
    96   123   122    1
    97   128   127    2
    98   146   147    2
    99    81    84   ar
   100    85    87   ar
   101    88    89    1
   102   134   137    1
   103   134   133    1
   104   124   122    1
   105   137   139    1
   106   137   138    1
   107   122   119    1
   108    92    89    1
   109    92    93    1
   110   127   133   am
   111   127   126    1
   112    89    90    1
   113    87    86   ar
   114    84    86   ar
   115   125   126    1
   116   125   120   am
   117   119   120    1
   118   119   118    1
   119   126   129    1
   120   152   153    1
   121   152   149    1
   122   120   121    2
   123   153   154    1
   124    90    91    2
   125    90    94   am
   126   109   108    2
   127   129   130    1
   128   154   148    1
   129   118   108   am
   130   108   107    1
   131   150   149    1
   132   150   151    2
   133    94    95    1
   134   149   148    1
   135   105   104    2
   136   130   131    1
   137   130   132    1
   138   106   107    1
   139   107   110    1
   140   100    98    1
   141   104   103    1
   142    95    98    1
   143    95    96    1
   144   102   103    1
   145   102    96   am
   146    99    98    1
   147    99   101    1
   148    96    97    2
   149   110   111    1
   150   112   111   ar
   151   112   114   ar
   152   111   113   ar
   153   114   116   ar
   154   113   115   ar
   155   116   115   ar
   156   116   117    1
