@<TRIPOS>MOLECULE
tmp/4yqdA00.pdb
 163 165 0 0 0
SMALL
GASTEIGER

@<TRIPOS>ATOM
      1  N        -27.9290   36.8840  -13.6640 N.3    89  TYR89      -0.1227
      2  CA       -26.5590   37.3680  -13.7600 C.3    89  TYR89       0.1736
      3  C        -26.2510   38.2430  -12.5490 C.2    89  TYR89       0.2595
      4  O        -26.9770   39.2080  -12.2740 O.2    89  TYR89      -0.2718
      5  CB       -26.3750   38.1840  -15.0410 C.3    89  TYR89       0.0548
      6  CG       -24.9810   38.7420  -15.2240 C.ar   89  TYR89      -0.0200
      7  CD1      -23.8600   37.9250  -15.0720 C.ar   89  TYR89      -0.0009
      8  CD2      -24.7810   40.0720  -15.5700 C.ar   89  TYR89      -0.0009
      9  CE1      -22.5830   38.4140  -15.2490 C.ar   89  TYR89       0.0417
     10  CE2      -23.4910   40.5780  -15.7590 C.ar   89  TYR89       0.0417
     11  CZ       -22.4000   39.7370  -15.5960 C.ar   89  TYR89       0.1957
     12  OH       -21.1170   40.2040  -15.7870 O.3    89  TYR89      -0.2866
     13  N        -25.1870   37.9080  -11.8270 N.am   90  LEU90      -0.1966
     14  CA       -24.8180   38.6490  -10.6250 C.3    90  LEU90       0.1728
     15  C        -23.7680   39.7100  -10.9410 C.2    90  LEU90       0.2617
     16  O        -22.6700   39.3880  -11.4130 O.2    90  LEU90      -0.2715
     17  CB       -24.2700   37.7020   -9.5460 C.3    90  LEU90       0.0311
     18  CG       -25.1940   36.7910   -8.7290 C.3    90  LEU90       0.0022
     19  CD1      -26.4600   37.5130   -8.2700 C.3    90  LEU90       0.0001
     20  CD2      -25.5340   35.5220   -9.4650 C.3    90  LEU90       0.0001
     21  N        -24.0940   40.9740  -10.6820 N.am   91  SER91      -0.1936
     22  CA       -23.1280   42.0530  -10.8930 C.3    91  SER91       0.2040
     23  C        -23.5780   43.3150  -10.1730 C.2    91  SER91       0.2485
     24  O        -24.7440   43.4270   -9.7900 O.2    91  SER91      -0.2729
     25  CB       -22.9480   42.3500  -12.3870 C.3    91  SER91       0.2129
     26  OG       -23.8340   43.3720  -12.8200 O.3    91  SER91      -0.2179
     27  N        -22.6630   44.2790   -9.9940 N.am   92  PRO92      -0.2715
     28  CA       -23.0610   45.5530   -9.3770 C.3    92  PRO92       0.1536
     29  C        -24.0770   46.3640  -10.1910 C.2    92  PRO92       0.2598
     30  O        -24.6460   47.3280   -9.6660 O.2    92  PRO92      -0.2715
     31  CB       -21.7330   46.3120   -9.2710 C.3    92  PRO92       0.0310
     32  CG       -20.7050   45.2350   -9.1490 C.3    92  PRO92       0.0237
     33  CD       -21.1950   44.1540  -10.0920 C.3    92  PRO92       0.0939
     34  N        -24.3110   45.9800  -11.4420 N.am   93  GLN93      -0.1978
     35  CA       -25.2330   46.7020  -12.3080 C.3    93  GLN93       0.1601
     36  C        -26.6620   46.1970  -12.1490 C.2    93  GLN93       0.2287
     37  O        -27.5890   46.7160  -12.7810 O.2    93  GLN93      -0.2864
     38  CB       -24.8020   46.5460  -13.7720 C.3    93  GLN93       0.0394
     39  CG       -23.6070   47.4240  -14.1970 C.3    93  GLN93       0.0908
     40  CD       -22.3380   47.1760  -13.3900 C.2    93  GLN93       0.2608
     41  OE1      -21.9020   48.0440  -12.6210 O.2    93  GLN93      -0.2717
     42  NE2      -21.7340   46.0030  -13.5650 N.am   93  GLN93      -0.0878
     43  N        -19.6020   35.4950  -13.2280 N.3   116  GLY116     -0.1210
     44  CA       -18.5010   35.9820  -14.0410 C.3   116  GLY116      0.1956
     45  C        -17.1880   36.1210  -13.2920 C.2   116  GLY116      0.2612
     46  O        -17.1580   36.2430  -12.0720 O.2   116  GLY116     -0.2717
     47  N        -16.0970   36.0790  -14.0430 N.am  117  ARG117     -0.1965
     48  CA       -14.7820   36.4520  -13.5630 C.3   117  ARG117      0.1729
     49  C        -14.2060   37.5030  -14.5150 C.2   117  ARG117      0.2616
     50  O        -14.8730   37.9120  -15.4890 O.2   117  ARG117     -0.2715
     51  CB       -13.8790   35.2150  -13.4430 C.3   117  ARG117      0.0348
     52  CG       -14.2590   34.3050  -12.2520 C.3   117  ARG117      0.0492
     53  CD       -13.5060   34.7350  -11.0080 C.3   117  ARG117      0.2205
     54  NE       -14.1270   34.2470   -9.7780 N.pl3 117  ARG117     -0.0865
     55  CZ       -13.5380   34.2870   -8.5920 C.cat 117  ARG117      0.5346
     56  NH1      -12.3050   34.7850   -8.4880 N.pl3 117  ARG117      0.1354
     57  NH2      -14.1730   33.8250   -7.5160 N.pl3 117  ARG117      0.1354
     58  N        -12.9850   37.9510  -14.2350 N.am  118  TYR118     -0.1960
     59  CA       -12.3520   39.0120  -15.0200 C.3   118  TYR118      0.1771
     60  C        -13.1840   40.2990  -14.9730 C.2   118  TYR118      0.2619
     61  O        -13.7480   40.6320  -13.9170 O.2   118  TYR118     -0.2715
     62  CB       -12.0590   38.5380  -16.4620 C.3   118  TYR118      0.0574
     63  CG       -11.5410   37.1180  -16.4840 C.ar  118  TYR118     -0.0198
     64  CD1      -12.2920   36.0860  -17.0310 C.ar  118  TYR118     -0.0009
     65  CD2      -10.3250   36.7990  -15.8920 C.ar  118  TYR118     -0.0009
     66  CE1      -11.8280   34.7810  -17.0180 C.ar  118  TYR118      0.0417
     67  CE2       -9.8550   35.5000  -15.8790 C.ar  118  TYR118      0.0417
     68  CZ       -10.6120   34.4980  -16.4440 C.ar  118  TYR118      0.1957
     69  OH       -10.1510   33.1990  -16.4260 O.3   118  TYR118     -0.2866
     70  N        -13.2570   41.0270  -16.0840 N.am  119  GLU119     -0.1963
     71  CA       -13.8670   42.3570  -16.0530 C.3   119  GLU119      0.1733
     72  C        -15.3410   42.3330  -16.4090 C.2   119  GLU119      0.2616
     73  O        -16.0120   43.3660  -16.3550 O.2   119  GLU119     -0.2715
     74  CB       -13.1310   43.3490  -16.9660 C.3   119  GLU119      0.0429
     75  CG       -11.6640   43.5500  -16.6240 C.3   119  GLU119      0.1163
     76  CD       -11.4160   43.6930  -15.1300 C.2   119  GLU119      0.3649
     77  OE1      -12.1320   44.4770  -14.4630 O.co2 119  GLU119     -0.2457
     78  OE2      -10.5010   43.0120  -14.6150 O.co2 119  GLU119     -0.2457
     79  N        -15.8490   41.1650  -16.7810 N.am  120  GLY120     -0.1955
     80  CA       -17.2580   41.0480  -17.0950 C.3   120  GLY120      0.1869
     81  C        -17.5650   40.0720  -18.2100 C.2   120  GLY120      0.2309
     82  O        -16.7130   39.2750  -18.6140 O.2   120  GLY120     -0.2863
     83  N        -29.0670   40.9070  -10.9270 N.3   134  TRP134     -0.1227
     84  CA       -29.1380   41.1800   -9.4860 C.3   134  TRP134      0.1737
     85  C        -27.7680   41.5070   -8.9050 C.2   134  TRP134      0.2596
     86  O        -26.7490   40.9570   -9.3440 O.2   134  TRP134     -0.2718
     87  CB       -29.6970   39.9620   -8.7430 C.3   134  TRP134      0.0564
     88  CG       -31.1600   39.7320   -8.9480 C.ar  134  TRP134      0.0003
     89  CD1      -31.7520   39.0800   -9.9920 C.ar  134  TRP134      0.0946
     90  CD2      -32.2220   40.1520   -8.0820 C.ar  134  TRP134      0.0152
     91  NE1      -33.1190   39.0740   -9.8300 N.ar  134  TRP134     -0.2442
     92  CE2      -33.4290   39.7230   -8.6620 C.ar  134  TRP134      0.0810
     93  CE3      -32.2660   40.8500   -6.8700 C.ar  134  TRP134      0.0012
     94  CZ2      -34.6680   39.9690   -8.0730 C.ar  134  TRP134      0.0191
     95  CZ3      -33.4950   41.0940   -6.2900 C.ar  134  TRP134      0.0001
     96  CH2      -34.6800   40.6510   -6.8880 C.ar  134  TRP134      0.0015
     97  N        -27.7630   42.3940   -7.9100 N.am  135  SER135     -0.1938
     98  CA       -26.5640   42.7620   -7.1610 C.3   135  SER135      0.2055
     99  C        -26.7740   42.4120   -5.6940 C.2   135  SER135      0.2643
    100  O        -27.8730   42.6030   -5.1610 O.2   135  SER135     -0.2714
    101  CB       -26.3070   44.2680   -7.2590 C.3   135  SER135      0.2130
    102  OG       -25.2670   44.6590   -6.3680 O.3   135  SER135     -0.2179
    103  N        -25.7380   41.9180   -5.0190 N.am  136  ILE136     -0.1963
    104  CA       -25.8740   41.7010   -3.5740 C.3   136  ILE136      0.1727
    105  C        -25.5150   42.9430   -2.7520 C.2   136  ILE136      0.2616
    106  O        -25.6510   42.9490   -1.5220 O.2   136  ILE136     -0.2715
    107  CB       -25.0820   40.4710   -3.0490 C.3   136  ILE136      0.0290
    108  CG1      -23.5700   40.6450   -3.2520 C.3   136  ILE136      0.0022
    109  CG2      -25.6000   39.1800   -3.6950 C.3   136  ILE136      0.0023
    110  CD1      -22.7380   39.9040   -2.2180 C.3   136  ILE136      0.0001
    111  N        -25.0660   43.9980   -3.4220 N.am  137  GLY137     -0.1955
    112  CA       -24.7430   45.2360   -2.7320 C.3   137  GLY137      0.1869
    113  C        -23.8440   46.1280   -3.5610 C.2   137  GLY137      0.2309
    114  O        -23.2660   45.6760   -4.5670 O.2   137  GLY137     -0.2863
    115  N        -20.8550   47.2290   -4.0380 N.3   139  TYR139     -0.1227
    116  CA       -19.4100   47.0510   -3.8880 C.3   139  TYR139      0.1736
    117  C        -18.9380   46.0700   -4.9490 C.2   139  TYR139      0.2595
    118  O        -19.7460   45.3090   -5.5110 O.2   139  TYR139     -0.2718
    119  CB       -19.0320   46.5700   -2.4770 C.3   139  TYR139      0.0548
    120  CG       -19.9760   45.5320   -1.9100 C.ar  139  TYR139     -0.0200
    121  CD1      -19.8880   44.1990   -2.2930 C.ar  139  TYR139     -0.0009
    122  CD2      -20.9410   45.8860   -0.9780 C.ar  139  TYR139     -0.0009
    123  CE1      -20.7460   43.2510   -1.7740 C.ar  139  TYR139      0.0417
    124  CE2      -21.8040   44.9570   -0.4600 C.ar  139  TYR139      0.0417
    125  CZ       -21.6980   43.6410   -0.8490 C.ar  139  TYR139      0.1957
    126  OH       -22.5660   42.7200   -0.3280 O.3   139  TYR139     -0.2866
    127  N        -17.6390   46.0880   -5.2270 N.am  140  VAL140     -0.1966
    128  CA       -17.0770   45.3060   -6.3230 C.3   140  VAL140      0.1727
    129  C        -16.2320   44.1620   -5.7750 C.2   140  VAL140      0.2616
    130  O        -15.3920   44.3590   -4.8870 O.2   140  VAL140     -0.2715
    131  CB       -16.2380   46.1960   -7.2570 C.3   140  VAL140      0.0290
    132  CG1      -15.6440   45.3810   -8.4170 C.3   140  VAL140      0.0023
    133  CG2      -17.1010   47.3230   -7.7930 C.3   140  VAL140      0.0023
    134  N        -16.4860   42.9630   -6.2850 N.am  141  LEU141     -0.1963
    135  CA       -15.7650   41.7550   -5.8790 C.3   141  LEU141      0.1728
    136  C        -14.9700   41.1810   -7.0450 C.2   141  LEU141      0.2617
    137  O        -15.0740   41.6530   -8.1800 O.2   141  LEU141     -0.2715
    138  CB       -16.7470   40.6990   -5.3760 C.3   141  LEU141      0.0311
    139  CG       -17.6690   41.1720   -4.2460 C.3   141  LEU141      0.0022
    140  CD1      -18.6710   40.0960   -3.9130 C.3   141  LEU141      0.0001
    141  CD2      -16.8830   41.5750   -3.0160 C.3   141  LEU141      0.0001
    142  N        -14.1710   40.1520   -6.7710 N.am  142  THR142     -0.1937
    143  CA       -13.3420   39.5530   -7.8130 C.3   142  THR142      0.2028
    144  C        -14.0920   38.5800   -8.7150 C.2   142  THR142      0.2643
    145  O        -13.5700   38.1720   -9.7490 O.2   142  THR142     -0.2714
    146  CB       -12.1240   38.8190   -7.2250 C.3   142  THR142      0.1808
    147  OG1      -12.5740   37.7170   -6.4310 O.3   142  THR142     -0.2208
    148  CG2      -11.2690   39.7650   -6.3890 C.3   142  THR142      0.0379
    149  N        -15.3130   38.2210   -8.3460 N.am  143  GLY143     -0.1939
    150  CA       -16.0970   37.3000   -9.1450 C.3   143  GLY143      0.2014
    151  C        -17.5260   37.2160   -8.6650 C.2   143  GLY143      0.2639
    152  O        -17.8540   37.6830   -7.5670 O.2   143  GLY143     -0.2714
    153  N        -18.3870   36.6230   -9.4850 N.am  144  GLY144     -0.1954
    154  CA       -19.7810   36.4700   -9.1210 C.3   144  GLY144      0.1869
    155  C        -20.0950   35.3060   -8.1910 C.2   144  GLY144      0.2309
    156  O        -21.2510   35.1340   -7.7920 O.2   144  GLY144     -0.2863
    157  N        -21.3610   36.3990   -4.5640 N.3   147  PRO147     -0.2116
    158  CA       -22.7650   36.8170   -4.6990 C.3   147  PRO147      0.1372
    159  C        -23.7460   35.6540   -4.9390 C.2   147  PRO147      0.2244
    160  O        -24.8330   35.6490   -4.3360 O.2   147  PRO147     -0.2868
    161  CB       -22.7280   37.7560   -5.9090 C.3   147  PRO147      0.0268
    162  CG       -21.3710   38.3700   -5.8220 C.3   147  PRO147      0.0207
    163  CD       -20.4620   37.2620   -5.3600 C.3   147  PRO147      0.0892
@<TRIPOS>BOND
     1    82    81    2
     2    81    80    1
     3    80    79    1
     4    64    66   ar
     5    64    63   ar
     6    66    68   ar
     7    74    75    1
     8    74    71    1
     9    79    72   am
    10    75    76    1
    11    63    62    1
    12    63    65   ar
    13    62    59    1
    14    68    69    1
    15    68    67   ar
    16    72    73    2
    17    72    71    1
    18    70    71    1
    19    70    60   am
    20    65    67   ar
    21    12    11    1
    22    10    11   ar
    23    10     8   ar
    24    11     9   ar
    25     8     6   ar
    26    50    49    2
    27     9     7   ar
    28     6     7   ar
    29     6     5    1
    30    76    78   ar
    31    76    77   ar
    32     5     2    1
    33    59    60    1
    34    59    58    1
    35    60    61    2
    36    49    58   am
    37    49    48    1
    38    39    38    1
    39    39    40    1
    40    47    48    1
    41    47    45   am
    42    44    45    1
    43    44    43    1
    44    38    35    1
    45     2     1    1
    46     2     3    1
    47    42    40   am
    48    48    51    1
    49    51    52    1
    50    40    41    2
    51    45    46    2
    52    26    25    1
    53    37    36    2
    54     3     4    2
    55     3    13   am
    56    25    22    1
    57    35    36    1
    58    35    34    1
    59    52    53    1
    60    13    14    1
    61    34    29   am
    62    16    15    2
    63    53    54    1
    64    15    21   am
    65    15    14    1
    66    83    84    1
    67    22    21    1
    68    22    23    1
    69    14    17    1
    70    29    30    2
    71    29    28    1
    72    23    27   am
    73    23    24    2
    74    33    27    1
    75    33    32    1
    76    27    28    1
    77    89    91   ar
    78    89    88   ar
    79    91    92   ar
    80    54    55    2
    81   145   144    2
    82    17    18    1
    83    84    85    1
    84    84    87    1
    85   153   154    1
    86   153   151   am
    87    20    18    1
    88    28    31    1
    89    86    85    2
    90    31    32    1
    91   150   151    1
    92   150   149    1
    93   154   155    1
    94    88    87    1
    95    88    90   ar
    96    85    97   am
    97    18    19    1
    98   144   149   am
    99   144   143    1
   100   151   152    2
   101    92    90   ar
   102    92    94   ar
   103    55    56    1
   104    55    57    1
   105   132   131    1
   106   155   156    2
   107   137   136    2
   108    90    93   ar
   109    94    96   ar
   110    97    98    1
   111   143   146    1
   112   143   142    1
   113   133   131    1
   114   101    98    1
   115   101   102    1
   116   131   128    1
   117   146   147    1
   118   146   148    1
   119    98    99    1
   120   136   142   am
   121   136   135    1
   122    96    95   ar
   123    93    95   ar
   124   128   129    1
   125   128   127    1
   126   134   135    1
   127   134   129   am
   128   161   162    1
   129   161   158    1
   130   135   138    1
   131   162   163    1
   132   129   130    2
   133    99   100    2
   134    99   103   am
   135   118   117    2
   136   138   139    1
   137   163   157    1
   138   127   117   am
   139   103   104    1
   140   117   116    1
   141   159   158    1
   142   159   160    2
   143   158   157    1
   144   114   113    2
   145   139   140    1
   146   139   141    1
   147   115   116    1
   148   116   119    1
   149   109   107    1
   150   104   107    1
   151   104   105    1
   152   113   112    1
   153   111   105   am
   154   111   112    1
   155   108   107    1
   156   108   110    1
   157   105   106    2
   158   119   120    1
   159   121   120   ar
   160   121   123   ar
   161   120   122   ar
   162   123   125   ar
   163   122   124   ar
   164   125   124   ar
   165   125   126    1
