@<TRIPOS>MOLECULE
tmp/4yqhA00.pdb
 170 164 0 0 0
SMALL
GASTEIGER

@<TRIPOS>ATOM
      1  N        -10.5170  -15.2710   30.7960 N.3    76  TYR76      -0.1241
      2  CA       -11.7630  -14.6990   30.2770 C.3    76  TYR76       0.1605
      3  C        -11.6410  -13.3060   29.6570 C.2    76  TYR76       0.2264
      4  O        -12.1220  -13.0630   28.5520 O.2    76  TYR76      -0.2867
      5  CB       -12.8610  -14.7030   31.3610 C.3    76  TYR76       0.0534
      6  CG       -14.1630  -14.0500   30.9150 C.ar   76  TYR76      -0.0201
      7  CD1      -14.9620  -14.6420   29.9340 C.ar   76  TYR76      -0.0009
      8  CD2      -14.5710  -12.8330   31.4450 C.ar   76  TYR76      -0.0009
      9  CE1      -16.1580  -14.0400   29.4990 C.ar   76  TYR76       0.0417
     10  CE2      -15.7620  -12.2260   31.0270 C.ar   76  TYR76       0.0417
     11  CZ       -16.5530  -12.8340   30.0520 C.ar   76  TYR76       0.1957
     12  OH       -17.7340  -12.2420   29.6340 O.3    76  TYR76      -0.2866
     13  N        -19.6480   -3.1060   36.3280 N.3   187  LEU187     -0.1245
     14  CA       -20.9320   -3.6480   36.7570 C.3   187  LEU187      0.1561
     15  C        -21.5250   -3.0090   38.0090 C.2   187  LEU187      0.2260
     16  O        -22.7480   -2.9700   38.1520 O.2   187  LEU187     -0.2867
     17  CB       -20.8460   -5.1630   36.9530 C.3   187  LEU187      0.0270
     18  CG       -22.1790   -5.8860   36.7650 C.3   187  LEU187      0.0019
     19  CD1      -22.5480   -5.8200   35.2970 C.3   187  LEU187      0.0001
     20  CD2      -22.1330   -7.3490   37.2660 C.3   187  LEU187      0.0001
     21  N        -21.2720   -6.3940   27.2410 N.3   226  ASP226     -0.1225
     22  CA       -20.3480   -7.0650   28.1570 C.3   226  ASP226      0.1805
     23  C        -20.8170   -8.4360   28.6560 C.2   226  ASP226      0.2597
     24  O        -19.9940   -9.2930   28.9660 O.2   226  ASP226     -0.2718
     25  CB       -20.0320   -6.1670   29.3600 C.3   226  ASP226      0.1424
     26  CG       -18.5760   -6.3030   29.8130 C.2   226  ASP226      0.3668
     27  OD1      -17.8500   -7.0180   29.1260 O.co2 226  ASP226     -0.2456
     28  OD2      -18.1680   -5.7170   30.8360 O.co2 226  ASP226     -0.2456
     29  N        -22.1330   -8.6520   28.7130 N.am  227  LEU227     -0.1979
     30  CA       -22.6750   -9.8870   29.2550 C.3   227  LEU227      0.1596
     31  C        -23.1330  -10.9040   28.1850 C.2   227  LEU227      0.2287
     32  O        -23.5780  -12.0010   28.5380 O.2   227  LEU227     -0.2864
     33  CB       -23.8020   -9.5890   30.2680 C.3   227  LEU227      0.0297
     34  CG       -23.6000   -8.5950   31.4430 C.3   227  LEU227      0.0022
     35  CD1      -24.8600   -8.5550   32.3060 C.3   227  LEU227      0.0001
     36  CD2      -22.3670   -8.8720   32.3250 C.3   227  LEU227      0.0001
     37  N        -22.4050  -13.3150   26.3850 N.3   229  SER229     -0.1202
     38  CA       -22.2480  -14.7630   26.3510 C.3   229  SER229      0.2020
     39  C        -23.5610  -15.4290   26.7400 C.2   229  SER229      0.2618
     40  O        -23.8440  -16.5310   26.2610 O.2   229  SER229     -0.2717
     41  CB       -21.1530  -15.2380   27.2790 C.3   229  SER229      0.2103
     42  OG       -21.5140  -14.9840   28.6120 O.3   229  SER229     -0.2182
     43  N        -24.3530  -14.7640   27.5870 N.am  230  VAL230     -0.1979
     44  CA       -25.6550  -15.2790   28.0480 C.3   230  VAL230      0.1595
     45  C        -26.7590  -15.2250   26.9830 C.2   230  VAL230      0.2287
     46  O        -27.8900  -15.6780   27.2180 O.2   230  VAL230     -0.2864
     47  CB       -26.1500  -14.5460   29.3560 C.3   230  VAL230      0.0276
     48  CG1      -25.0660  -14.5160   30.4330 C.3   230  VAL230      0.0022
     49  CG2      -26.6350  -13.1230   29.0570 C.3   230  VAL230      0.0022
     50  N        -22.6310  -20.5530   25.5950 N.3   237  THR237     -0.1218
     51  CA       -22.7720  -19.9980   26.9520 C.3   237  THR237      0.1862
     52  C        -22.0440  -20.8070   28.0510 C.2   237  THR237      0.2287
     53  O        -21.3220  -20.2330   28.8960 O.2   237  THR237     -0.2866
     54  CB       -24.2580  -19.8700   27.3490 C.3   237  THR237      0.1770
     55  OG1      -24.9860  -19.2190   26.2970 O.3   237  THR237     -0.2211
     56  CG2      -24.4130  -19.0550   28.6390 C.3   237  THR237      0.0375
     57  N        -18.8370  -19.6140   30.5640 N.3   241  ALA241     -0.1245
     58  CA       -18.8930  -19.7800   32.0260 C.3   241  ALA241      0.1562
     59  C        -17.6340  -20.4400   32.5900 C.2   241  ALA241      0.2260
     60  O        -17.0570  -19.9560   33.5680 O.2   241  ALA241     -0.2867
     61  CB       -20.0960  -20.5650   32.4130 C.3   241  ALA241      0.0290
     62  N        -14.8460  -17.8820   32.5460 N.3   244  ILE244     -0.1231
     63  CA       -15.1600  -16.9230   33.6010 C.3   244  ILE244      0.1692
     64  C        -14.7110  -17.4440   34.9750 C.2   244  ILE244      0.2592
     65  O        -13.9450  -16.7800   35.6890 O.2   244  ILE244     -0.2718
     66  CB       -16.6870  -16.6310   33.6240 C.3   244  ILE244      0.0266
     67  CG1      -17.1090  -15.9040   32.3470 C.3   244  ILE244      0.0019
     68  CG2      -17.0580  -15.8150   34.8380 C.3   244  ILE244      0.0020
     69  CD1      -18.6060  -15.7520   32.1480 C.3   244  ILE244      0.0001
     70  N        -15.1840  -18.6400   35.3430 N.am  245  TYR245     -0.1976
     71  CA       -14.8900  -19.1950   36.6710 C.3   245  TYR245      0.1639
     72  C        -13.4210  -19.6060   36.7540 C.2   245  TYR245      0.2290
     73  O        -12.7480  -19.3590   37.7520 O.2   245  TYR245     -0.2864
     74  CB       -15.8510  -20.3310   37.0160 C.3   245  TYR245      0.0560
     75  CG       -17.2710  -19.8640   37.3220 C.ar  245  TYR245     -0.0198
     76  CD1      -18.3280  -20.1650   36.4740 C.ar  245  TYR245     -0.0009
     77  CD2      -17.5440  -19.1100   38.4590 C.ar  245  TYR245     -0.0009
     78  CE1      -19.6360  -19.7280   36.7590 C.ar  245  TYR245      0.0417
     79  CE2      -18.8240  -18.6710   38.7460 C.ar  245  TYR245      0.0417
     80  CZ       -19.8700  -18.9890   37.9050 C.ar  245  TYR245      0.1957
     81  OH       -21.1330  -18.5410   38.2140 O.3   245  TYR245     -0.2866
     82  N        -12.2120  -16.3550   37.8220 N.3   248  PHE248     -0.1227
     83  CA       -12.6420  -16.0780   39.2020 C.3   248  PHE248      0.1736
     84  C        -11.8960  -16.9390   40.2120 C.2   248  PHE248      0.2595
     85  O        -11.5090  -16.4530   41.2730 O.2   248  PHE248     -0.2718
     86  CB       -14.1410  -16.3200   39.4000 C.3   248  PHE248      0.0547
     87  CG       -15.0290  -15.2800   38.7760 C.ar  248  PHE248     -0.0202
     88  CD1      -14.5790  -13.9760   38.5570 C.ar  248  PHE248     -0.0042
     89  CD2      -16.3410  -15.5960   38.4480 C.ar  248  PHE248     -0.0042
     90  CE1      -15.4230  -13.0120   37.9860 C.ar  248  PHE248     -0.0003
     91  CE2      -17.1970  -14.6340   37.8740 C.ar  248  PHE248     -0.0003
     92  CZ       -16.7410  -13.3420   37.6460 C.ar  248  PHE248     -0.0000
     93  N        -11.7190  -18.2220   39.8850 N.am  249  TRP249     -0.1976
     94  CA       -11.0810  -19.1810   40.7900 C.3   249  TRP249      0.1640
     95  C         -9.5990  -18.9600   40.9190 C.2   249  TRP249      0.2290
     96  O         -9.0350  -19.2270   41.9770 O.2   249  TRP249     -0.2864
     97  CB       -11.3390  -20.6240   40.3600 C.3   249  TRP249      0.0576
     98  CG       -12.7820  -21.0090   40.3890 C.ar  249  TRP249      0.0006
     99  CD1      -13.7750  -20.4510   41.1510 C.ar  249  TRP249      0.0946
    100  CD2      -13.3940  -22.0410   39.6250 C.ar  249  TRP249      0.0152
    101  NE1      -14.9710  -21.0670   40.8950 N.ar  249  TRP249     -0.2442
    102  CE2      -14.7660  -22.0530   39.9630 C.ar  249  TRP249      0.0810
    103  CE3      -12.9150  -22.9710   38.6900 C.ar  249  TRP249      0.0012
    104  CZ2      -15.6690  -22.9630   39.3990 C.ar  249  TRP249      0.0191
    105  CZ3      -13.8120  -23.8670   38.1210 C.ar  249  TRP249      0.0001
    106  CH2      -15.1750  -23.8520   38.4750 C.ar  249  TRP249      0.0015
    107  N        -17.9840  -17.1350   47.6480 N.3   264  PRO264     -0.2102
    108  CA       -18.2040  -18.4160   46.9480 C.3   264  PRO264      0.1504
    109  C        -18.0180  -18.3910   45.4140 C.2   264  PRO264      0.2575
    110  O        -17.6460  -19.4070   44.8300 O.2   264  PRO264     -0.2718
    111  CB       -19.6450  -18.7800   47.3350 C.3   264  PRO264      0.0282
    112  CG       -19.8570  -18.1100   48.6470 C.3   264  PRO264      0.0208
    113  CD       -19.1060  -16.8170   48.5580 C.3   264  PRO264      0.0893
    114  N        -18.2500  -17.2430   44.7840 N.am  265  MET265     -0.1980
    115  CA       -18.1010  -17.0900   43.3330 C.3   265  MET265      0.1605
    116  C        -16.6780  -17.3170   42.8470 C.2   265  MET265      0.2287
    117  O        -16.4700  -17.7960   41.7410 O.2   265  MET265     -0.2864
    118  CB       -18.5550  -15.6940   42.9160 C.3   265  MET265      0.0413
    119  CG       -18.6090  -15.4290   41.4200 C.3   265  MET265      0.0598
    120  SD       -19.2570  -13.7770   41.1070 S.3   265  MET265     -0.1393
    121  CE       -17.8960  -12.7520   41.6010 C.3   265  MET265      0.0692
    122  N        -16.2630  -24.6670   45.7650 N.3   270  LYS270     -0.1245
    123  CA       -17.6910  -24.3830   45.8590 C.3   270  LYS270      0.1561
    124  C        -18.3740  -24.3940   44.5070 C.2   270  LYS270      0.2260
    125  O        -19.4680  -23.8500   44.3860 O.2   270  LYS270     -0.2867
    126  CB       -17.9410  -23.0620   46.5910 C.3   270  LYS270      0.0271
    127  CG       -17.4760  -23.0930   48.0320 C.3   270  LYS270      0.0035
    128  CD       -18.0180  -21.9400   48.8000 C.3   270  LYS270      0.0206
    129  CE       -17.8480  -22.1440   50.2970 C.3   270  LYS270      0.1093
    130  NZ       -17.9080  -20.8290   50.9990 N.3   270  LYS270     -0.1314
    131  N        -22.1940  -24.8760   43.8110 N.3   273  GLU273     -0.1231
    132  CA       -23.1270  -23.7670   43.8700 C.3   273  GLU273      0.1699
    133  C        -23.1710  -22.8830   42.5940 C.2   273  GLU273      0.2592
    134  O        -23.9090  -21.8830   42.5590 O.2   273  GLU273     -0.2718
    135  CB       -22.8120  -22.9120   45.1040 C.3   273  GLU273      0.0402
    136  CG       -22.7570  -23.6870   46.4290 C.3   273  GLU273      0.1161
    137  CD       -22.3850  -22.8070   47.6360 C.2   273  GLU273      0.3649
    138  OE1      -22.2650  -21.5540   47.4920 O.co2 273  GLU273     -0.2457
    139  OE2      -22.2180  -23.3770   48.7440 O.co2 273  GLU273     -0.2457
    140  N        -22.4060  -23.2530   41.5640 N.am  274  VAL274     -0.1980
    141  CA       -22.3720  -22.5030   40.2840 C.3   274  VAL274      0.1595
    142  C        -23.7570  -22.2970   39.6190 C.2   274  VAL274      0.2287
    143  O        -24.1450  -21.1540   39.3780 O.2   274  VAL274     -0.2864
    144  CB       -21.2950  -23.0620   39.2770 C.3   274  VAL274      0.0276
    145  CG1      -21.5570  -22.6070   37.8570 C.3   274  VAL274      0.0022
    146  CG2      -19.8910  -22.6440   39.7000 C.3   274  VAL274      0.0022
    147  N        -25.7660  -19.8210   41.4080 N.3   277  GLY277     -0.1210
    148  CA       -25.2030  -18.4890   41.1690 C.3   277  GLY277      0.1956
    149  C        -25.5490  -17.9280   39.7920 C.2   277  GLY277      0.2611
    150  O        -25.9280  -16.7670   39.6630 O.2   277  GLY277     -0.2717
    151  N        -25.4130  -18.7470   38.7530 N.am  278  GLN278     -0.1979
    152  CA       -25.9090  -18.3900   37.4230 C.3   278  GLN278      0.1601
    153  C        -27.4090  -18.1080   37.4450 C.2   278  GLN278      0.2287
    154  O        -27.8700  -17.1250   36.8670 O.2   278  GLN278     -0.2864
    155  CB       -25.5990  -19.4830   36.4090 C.3   278  GLN278      0.0394
    156  CG       -24.1170  -19.5950   36.0530 C.3   278  GLN278      0.0908
    157  CD       -23.5690  -18.3590   35.3780 C.2   278  GLN278      0.2608
    158  OE1      -22.4800  -17.8950   35.7070 O.2   278  GLN278     -0.2717
    159  NE2      -24.3230  -17.8100   34.4500 N.am  278  GLN278     -0.0878
    160  N        -27.7630  -14.6170   39.1220 N.3   281  PHE281     -0.1241
    161  CA       -27.1720  -13.6520   38.1940 C.3   281  PHE281      0.1605
    162  C        -28.1090  -13.3270   37.0170 C.2   281  PHE281      0.2264
    163  O        -28.3070  -12.1580   36.6820 O.2   281  PHE281     -0.2867
    164  CB       -25.8150  -14.1710   37.6970 C.3   281  PHE281      0.0534
    165  CG       -25.1070  -13.2410   36.7470 C.ar  281  PHE281     -0.0203
    166  CD1      -24.4160  -12.1340   37.2200 C.ar  281  PHE281     -0.0042
    167  CD2      -25.1280  -13.4790   35.3740 C.ar  281  PHE281     -0.0042
    168  CE1      -23.7700  -11.2680   36.3450 C.ar  281  PHE281     -0.0003
    169  CE2      -24.4860  -12.6160   34.4970 C.ar  281  PHE281     -0.0003
    170  CZ       -23.8060  -11.5070   34.9860 C.ar  281  PHE281     -0.0000
@<TRIPOS>BOND
     1    50    51    1
     2    40    39    2
     3    55    54    1
     4    38    37    1
     5    38    39    1
     6    38    41    1
     7    39    43   am
     8    51    54    1
     9    51    52    1
    10    45    46    2
    11    45    44    1
    12    21    22    1
    13    41    42    1
    14    54    56    1
    15    43    44    1
    16    44    47    1
    17    52    53    2
    18    22    23    1
    19    22    25    1
    20    31    32    2
    21    31    30    1
    22     4     3    2
    23    23    29   am
    24    23    24    2
    25    29    30    1
    26    49    47    1
    27    27    26   ar
    28    30    33    1
    29    47    48    1
    30    25    26    1
    31     9     7   ar
    32     9    11   ar
    33    12    11    1
    34     3     2    1
    35    26    28   ar
    36     7     6   ar
    37    11    10   ar
    38    33    34    1
    39     2     1    1
    40     2     5    1
    41    57    58    1
    42     6     5    1
    43     6     8   ar
    44    10     8   ar
    45    34    35    1
    46    34    36    1
    47    58    61    1
    48    58    59    1
    49    69    67    1
    50    67    66    1
    51    62    63    1
    52    59    60    2
    53    63    66    1
    54    63    64    1
    55    66    68    1
    56   159   157   am
    57   169   170   ar
    58   169   167   ar
    59    64    70   am
    60    64    65    2
    61   170   168   ar
    62    19    18    1
    63    70    71    1
    64   167   165   ar
    65   157   158    2
    66   157   156    1
    67   156   155    1
    68    13    14    1
    69   168   166   ar
    70   155   152    1
    71    76    78   ar
    72    76    75   ar
    73    71    72    1
    74    71    74    1
    75   163   162    2
    76   165   166   ar
    77   165   164    1
    78    72    73    2
    79    14    17    1
    80    14    15    1
    81    78    80   ar
    82    18    17    1
    83    18    20    1
    84   154   153    2
    85    74    75    1
    86   162   161    1
    87    75    77   ar
    88   152   153    1
    89   152   151    1
    90    92    91   ar
    91    92    90   ar
    92   164   161    1
    93    82    83    1
    94   145   144    1
    95    91    89   ar
    96    80    81    1
    97    80    79   ar
    98    90    88   ar
    99    15    16    2
   100   105   106   ar
   101   105   103   ar
   102   161   160    1
   103    89    87   ar
   104    77    79   ar
   105   106   104   ar
   106    88    87   ar
   107   103   100   ar
   108   151   149   am
   109    87    86    1
   110    83    86    1
   111    83    84    1
   112   144   146    1
   113   144   141    1
   114   143   142    2
   115   104   102   ar
   116   142   141    1
   117   100   102   ar
   118   100    98   ar
   119   150   149    2
   120   149   148    1
   121    93    84   am
   122    93    94    1
   123   102   101   ar
   124    84    85    2
   125   141   140    1
   126    97    98    1
   127    97    94    1
   128    98    99   ar
   129    94    95    1
   130   101    99   ar
   131    95    96    2
   132   120   119    1
   133   120   121    1
   134   148   147    1
   135   119   118    1
   136   140   133   am
   137   117   116    2
   138   134   133    2
   139   133   132    1
   140   116   115    1
   141   118   115    1
   142   115   114    1
   143   131   132    1
   144   132   135    1
   145   125   124    2
   146   124   123    1
   147   114   109   am
   148   110   109    2
   149   135   136    1
   150   109   108    1
   151   122   123    1
   152   123   126    1
   153   136   137    1
   154   126   127    1
   155   108   111    1
   156   108   107    1
   157   111   112    1
   158   138   137   ar
   159   137   139   ar
   160   107   113    1
   161   127   128    1
   162   113   112    1
   163   128   129    1
   164   129   130    1
