@<TRIPOS>MOLECULE
tmp/4yqiA00.pdb
 180 182 0 0 0
SMALL
GASTEIGER

@<TRIPOS>ATOM
      1  N        -27.5770   36.5570  -13.8150 N.3    89  TYR89      -0.1227
      2  CA       -26.1920   36.9910  -13.7980 C.3    89  TYR89       0.1736
      3  C        -25.9720   37.8810  -12.5750 C.2    89  TYR89       0.2595
      4  O        -26.7380   38.8060  -12.3320 O.2    89  TYR89      -0.2718
      5  CB       -25.8120   37.7420  -15.0840 C.3    89  TYR89       0.0548
      6  CG       -24.3430   38.1130  -15.0900 C.ar   89  TYR89      -0.0200
      7  CD1      -23.3650   37.1240  -15.0640 C.ar   89  TYR89      -0.0009
      8  CD2      -23.9320   39.4450  -15.1130 C.ar   89  TYR89      -0.0009
      9  CE1      -22.0160   37.4490  -15.0580 C.ar   89  TYR89       0.0417
     10  CE2      -22.5840   39.7780  -15.1180 C.ar   89  TYR89       0.0417
     11  CZ       -21.6330   38.7740  -15.0710 C.ar   89  TYR89       0.1957
     12  OH       -20.2900   39.0870  -15.0600 O.3    89  TYR89      -0.2866
     13  N        -24.9300   37.5880  -11.8070 N.am   90  LEU90      -0.1966
     14  CA       -24.6060   38.3890  -10.6230 C.3    90  LEU90       0.1728
     15  C        -23.5540   39.4500  -10.9570 C.2    90  LEU90       0.2617
     16  O        -22.4910   39.1210  -11.4690 O.2    90  LEU90      -0.2715
     17  CB       -24.0990   37.4890   -9.4880 C.3    90  LEU90       0.0311
     18  CG       -25.0750   36.6310   -8.6690 C.3    90  LEU90       0.0022
     19  CD1      -26.4130   37.3290   -8.4960 C.3    90  LEU90       0.0001
     20  CD2      -25.2460   35.2440   -9.2430 C.3    90  LEU90       0.0001
     21  N        -23.8470   40.7160  -10.6670 N.am   91  SER91      -0.1936
     22  CA       -22.8960   41.7960  -10.9350 C.3    91  SER91       0.2040
     23  C        -23.3190   43.0550  -10.1970 C.2    91  SER91       0.2485
     24  O        -24.4720   43.1570   -9.7940 O.2    91  SER91      -0.2729
     25  CB       -22.8010   42.0900  -12.4380 C.3    91  SER91       0.2129
     26  OG       -23.6660   43.1520  -12.7970 O.3    91  SER91      -0.2179
     27  N        -22.4000   44.0280  -10.0490 N.am   92  PRO92      -0.2715
     28  CA       -22.7550   45.2990   -9.4040 C.3    92  PRO92       0.1536
     29  C        -23.7520   46.1300  -10.2240 C.2    92  PRO92       0.2598
     30  O        -24.2920   47.1050   -9.7090 O.2    92  PRO92      -0.2715
     31  CB       -21.4080   46.0290   -9.2930 C.3    92  PRO92       0.0310
     32  CG       -20.3740   44.9590   -9.3590 C.3    92  PRO92       0.0237
     33  CD       -20.9510   43.9330  -10.3100 C.3    92  PRO92       0.0939
     34  N        -23.9780   45.7540  -11.4790 N.am   93  GLN93      -0.1978
     35  CA       -24.9010   46.4860  -12.3430 C.3    93  GLN93       0.1601
     36  C        -26.3230   45.9280  -12.2600 C.2    93  GLN93       0.2287
     37  O        -27.2100   46.3740  -12.9840 O.2    93  GLN93      -0.2864
     38  CB       -24.4160   46.4560  -13.8000 C.3    93  GLN93       0.0394
     39  CG       -23.2440   47.3890  -14.0980 C.3    93  GLN93       0.0908
     40  CD       -21.9570   46.9650  -13.4090 C.2    93  GLN93       0.2608
     41  OE1      -21.5120   45.8220  -13.5440 O.2    93  GLN93      -0.2717
     42  NE2      -21.3560   47.8850  -12.6580 N.am   93  GLN93      -0.0878
     43  N        -19.5930   35.4850  -13.1690 N.3   116  GLY116     -0.1210
     44  CA       -18.6270   36.1810  -13.9950 C.3   116  GLY116      0.1956
     45  C        -17.2730   36.2900  -13.3270 C.2   116  GLY116      0.2612
     46  O        -17.1640   36.2760  -12.0990 O.2   116  GLY116     -0.2717
     47  N        -16.2370   36.3740  -14.1520 N.am  117  ARG117     -0.1965
     48  CA       -14.8870   36.6740  -13.7010 C.3   117  ARG117      0.1729
     49  C        -14.3540   37.7460  -14.6350 C.2   117  ARG117      0.2616
     50  O        -15.0430   38.1200  -15.5820 O.2   117  ARG117     -0.2715
     51  CB       -13.9970   35.4260  -13.7390 C.3   117  ARG117      0.0348
     52  CG       -14.3730   34.3640  -12.7230 C.3   117  ARG117      0.0492
     53  CD       -13.3430   34.3450  -11.6280 C.3   117  ARG117      0.2205
     54  NE       -13.9400   34.0850  -10.3390 N.pl3 117  ARG117     -0.0865
     55  CZ       -13.3040   34.2460   -9.1930 C.cat 117  ARG117      0.5346
     56  NH1      -12.0290   34.6660   -9.1860 N.pl3 117  ARG117      0.1354
     57  NH2      -13.9330   33.9760   -8.0610 N.pl3 117  ARG117      0.1354
     58  N        -13.1310   38.2150  -14.3920 N.am  118  TYR118     -0.1960
     59  CA       -12.5070   39.2490  -15.2330 C.3   118  TYR118      0.1771
     60  C        -13.3970   40.4950  -15.2340 C.2   118  TYR118      0.2619
     61  O        -13.9260   40.8720  -14.1860 O.2   118  TYR118     -0.2715
     62  CB       -12.2560   38.7250  -16.6600 C.3   118  TYR118      0.0574
     63  CG       -11.7260   37.3100  -16.6630 C.ar  118  TYR118     -0.0198
     64  CD1      -10.4540   37.0240  -16.1800 C.ar  118  TYR118     -0.0009
     65  CD2      -12.5100   36.2500  -17.1150 C.ar  118  TYR118     -0.0009
     66  CE1       -9.9720   35.7180  -16.1550 C.ar  118  TYR118      0.0417
     67  CE2      -12.0350   34.9430  -17.0940 C.ar  118  TYR118      0.0417
     68  CZ       -10.7690   34.6840  -16.6130 C.ar  118  TYR118      0.1957
     69  OH       -10.3020   33.3840  -16.5900 O.3   118  TYR118     -0.2866
     70  N        -13.5620   41.1430  -16.3850 N.am  119  GLU119     -0.1963
     71  CA       -14.4510   42.3070  -16.4470 C.3   119  GLU119      0.1733
     72  C        -15.8630   41.8990  -16.8720 C.2   119  GLU119      0.2617
     73  O        -16.6740   42.7340  -17.2910 O.2   119  GLU119     -0.2715
     74  CB       -13.9060   43.3870  -17.3900 C.3   119  GLU119      0.0429
     75  CG       -12.5100   43.8800  -17.0350 C.3   119  GLU119      0.1163
     76  CD       -12.3730   44.2570  -15.5740 C.2   119  GLU119      0.3649
     77  OE1      -13.2780   44.9360  -15.0370 O.co2 119  GLU119     -0.2457
     78  OE2      -11.3600   43.8640  -14.9570 O.co2 119  GLU119     -0.2457
     79  N        -16.1540   40.6120  -16.7480 N.am  120  GLY120     -0.1940
     80  CA       -17.5240   40.1440  -16.8630 C.3   120  GLY120      0.2014
     81  C        -17.7980   39.4490  -18.1780 C.2   120  GLY120      0.2638
     82  O        -16.8910   38.8670  -18.7780 O.2   120  GLY120     -0.2714
     83  N        -19.0470   39.5080  -18.6290 N.am  121  ILE121     -0.1977
     84  CA       -19.4420   38.7690  -19.8260 C.3   121  ILE121      0.1596
     85  C        -19.9290   39.7260  -20.9030 C.2   121  ILE121      0.2287
     86  O        -20.3250   40.8590  -20.6180 O.2   121  ILE121     -0.2864
     87  CB       -20.5360   37.7230  -19.5150 C.3   121  ILE121      0.0276
     88  CG1      -21.8880   38.3960  -19.2880 C.3   121  ILE121      0.0022
     89  CG2      -20.1470   36.8880  -18.2780 C.3   121  ILE121      0.0022
     90  CD1      -23.0100   37.4270  -18.9720 C.3   121  ILE121      0.0001
     91  N        -30.5650   40.3010  -13.9200 N.3   133  GLU133     -0.1231
     92  CA       -29.2690   40.6330  -13.3380 C.3   133  GLU133      0.1699
     93  C        -29.4690   41.1400  -11.9070 C.2   133  GLU133      0.2592
     94  O        -30.2900   42.0220  -11.6720 O.2   133  GLU133     -0.2718
     95  CB       -28.5500   41.6760  -14.1980 C.3   133  GLU133      0.0402
     96  CG       -27.0640   41.8340  -13.9000 C.3   133  GLU133      0.1161
     97  CD       -26.3090   42.5140  -15.0460 C.2   133  GLU133      0.3649
     98  OE1      -26.9460   42.8670  -16.0620 O.co2 133  GLU133     -0.2457
     99  OE2      -25.0790   42.6980  -14.9280 O.co2 133  GLU133     -0.2457
    100  N        -28.7340   40.5720  -10.9580 N.am  134  TRP134     -0.1962
    101  CA       -28.8610   40.9590   -9.5440 C.3   134  TRP134      0.1771
    102  C        -27.5070   41.2900   -8.9200 C.2   134  TRP134      0.2620
    103  O        -26.4910   40.6890   -9.2770 O.2   134  TRP134     -0.2715
    104  CB       -29.4980   39.8380   -8.7220 C.3   134  TRP134      0.0590
    105  CG       -30.9310   39.5580   -9.0160 C.ar  134  TRP134      0.0006
    106  CD1      -31.4260   38.8460  -10.0630 C.ar  134  TRP134      0.0946
    107  CD2      -32.0600   39.9620   -8.2290 C.ar  134  TRP134      0.0152
    108  NE1      -32.8000   38.7960   -9.9900 N.ar  134  TRP134     -0.2442
    109  CE2      -33.2110   39.4700   -8.8700 C.ar  134  TRP134      0.0810
    110  CE3      -32.2050   40.6970   -7.0470 C.ar  134  TRP134      0.0012
    111  CZ2      -34.4930   39.6860   -8.3710 C.ar  134  TRP134      0.0191
    112  CZ3      -33.4740   40.9100   -6.5540 C.ar  134  TRP134      0.0001
    113  CH2      -34.6040   40.4010   -7.2100 C.ar  134  TRP134      0.0015
    114  N        -27.5120   42.2320   -7.9840 N.am  135  SER135     -0.1936
    115  CA       -26.3320   42.5730   -7.1930 C.3   135  SER135      0.2055
    116  C        -26.5560   42.2530   -5.7270 C.2   135  SER135      0.2643
    117  O        -27.6260   42.5350   -5.1880 O.2   135  SER135     -0.2714
    118  CB       -25.9950   44.0580   -7.3310 C.3   135  SER135      0.2130
    119  OG       -25.0410   44.4350   -6.3560 O.3   135  SER135     -0.2179
    120  N        -25.5370   41.7030   -5.0660 N.am  136  ILE136     -0.1963
    121  CA       -25.6540   41.4140   -3.6420 C.3   136  ILE136      0.1727
    122  C        -25.2240   42.6180   -2.7980 C.2   136  ILE136      0.2616
    123  O        -25.3880   42.6260   -1.5780 O.2   136  ILE136     -0.2715
    124  CB       -24.8460   40.1430   -3.2570 C.3   136  ILE136      0.0290
    125  CG1      -23.4480   40.1610   -3.8630 C.3   136  ILE136      0.0022
    126  CG2      -25.5430   38.9140   -3.8030 C.3   136  ILE136      0.0023
    127  CD1      -22.4390   40.7970   -3.0120 C.3   136  ILE136      0.0001
    128  N        -24.6960   43.6470   -3.4490 N.am  137  GLY137     -0.1955
    129  CA       -24.3540   44.8710   -2.7490 C.3   137  GLY137      0.1869
    130  C        -23.4990   45.8020   -3.5790 C.2   137  GLY137      0.2309
    131  O        -22.8720   45.3790   -4.5350 O.2   137  GLY137     -0.2863
    132  N        -20.5620   46.8960   -3.8360 N.3   139  TYR139     -0.1227
    133  CA       -19.1260   46.7500   -3.6590 C.3   139  TYR139      0.1736
    134  C        -18.6360   45.7640   -4.6970 C.2   139  TYR139      0.2595
    135  O        -19.4310   45.0280   -5.2870 O.2   139  TYR139     -0.2718
    136  CB       -18.7670   46.2890   -2.2350 C.3   139  TYR139      0.0548
    137  CG       -19.7140   45.2490   -1.6700 C.ar  139  TYR139     -0.0200
    138  CD1      -19.5760   43.9100   -2.0000 C.ar  139  TYR139     -0.0009
    139  CD2      -20.7440   45.6080   -0.8090 C.ar  139  TYR139     -0.0009
    140  CE1      -20.4330   42.9610   -1.4930 C.ar  139  TYR139      0.0417
    141  CE2      -21.6130   44.6600   -0.2960 C.ar  139  TYR139      0.0417
    142  CZ       -21.4480   43.3360   -0.6430 C.ar  139  TYR139      0.1957
    143  OH       -22.3070   42.3820   -0.1560 O.3   139  TYR139     -0.2866
    144  N        -17.3300   45.7550   -4.9330 N.am  140  VAL140     -0.1966
    145  CA       -16.7750   44.9970   -6.0440 C.3   140  VAL140      0.1727
    146  C        -15.9580   43.8080   -5.5600 C.2   140  VAL140      0.2616
    147  O        -15.0420   43.9560   -4.7420 O.2   140  VAL140     -0.2715
    148  CB       -15.8880   45.8800   -6.9300 C.3   140  VAL140      0.0290
    149  CG1      -15.3340   45.0690   -8.0900 C.3   140  VAL140      0.0023
    150  CG2      -16.6670   47.1080   -7.4340 C.3   140  VAL140      0.0023
    151  N        -16.3060   42.6320   -6.0680 N.am  141  LEU141     -0.1963
    152  CA       -15.6230   41.3970   -5.7070 C.3   141  LEU141      0.1728
    153  C        -14.7880   40.8860   -6.8710 C.2   141  LEU141      0.2617
    154  O        -14.8030   41.4830   -7.9540 O.2   141  LEU141     -0.2715
    155  CB       -16.6350   40.3440   -5.2780 C.3   141  LEU141      0.0311
    156  CG       -17.5440   40.8210   -4.1370 C.3   141  LEU141      0.0022
    157  CD1      -18.5920   39.7710   -3.8540 C.3   141  LEU141      0.0001
    158  CD2      -16.7210   41.1200   -2.8960 C.3   141  LEU141      0.0001
    159  N        -14.0500   39.7960   -6.6560 N.am  142  THR142     -0.1937
    160  CA       -13.1740   39.2740   -7.7090 C.3   142  THR142      0.2028
    161  C        -13.9320   38.3580   -8.6620 C.2   142  THR142      0.2643
    162  O        -13.4120   37.9570   -9.7020 O.2   142  THR142     -0.2714
    163  CB       -11.9610   38.4970   -7.1250 C.3   142  THR142      0.1808
    164  OG1      -12.4280   37.3940   -6.3410 O.3   142  THR142     -0.2208
    165  CG2      -11.0970   39.4050   -6.2520 C.3   142  THR142      0.0379
    166  N        -15.1640   38.0090   -8.3200 N.am  143  GLY143     -0.1939
    167  CA       -15.9540   37.1990   -9.2370 C.3   143  GLY143      0.2014
    168  C        -17.3460   36.9630   -8.6970 C.2   143  GLY143      0.2639
    169  O        -17.6470   37.3740   -7.5670 O.2   143  GLY143     -0.2714
    170  N        -18.1870   36.2950   -9.4840 N.am  144  GLY144     -0.1954
    171  CA       -19.5750   36.0720   -9.0830 C.3   144  GLY144      0.1869
    172  C        -19.8330   34.8890   -8.1550 C.2   144  GLY144      0.2309
    173  O        -20.9760   34.6580   -7.7340 O.2   144  GLY144     -0.2863
    174  N        -21.0480   35.9520   -4.5490 N.3   147  PRO147     -0.2116
    175  CA       -22.4520   36.3730   -4.6880 C.3   147  PRO147      0.1372
    176  C        -23.4230   35.2240   -4.9390 C.2   147  PRO147      0.2244
    177  O        -24.5180   35.2340   -4.3860 O.2   147  PRO147     -0.2868
    178  CB       -22.4100   37.3030   -5.9030 C.3   147  PRO147      0.0268
    179  CG       -21.0450   37.9390   -5.8140 C.3   147  PRO147      0.0207
    180  CD       -20.1390   36.8380   -5.3150 C.3   147  PRO147      0.0892
@<TRIPOS>BOND
     1    85    86    2
     2    85    84    1
     3    84    87    1
     4    84    83    1
     5    87    88    1
     6    87    89    1
     7    88    90    1
     8    82    81    2
     9    83    81   am
    10    81    80    1
    11    74    75    1
    12    74    71    1
    13    73    72    2
    14    65    67   ar
    15    65    63   ar
    16    67    68   ar
    17    75    76    1
    18    72    79   am
    19    72    71    1
    20    80    79    1
    21    63    62    1
    22    63    64   ar
    23    62    59    1
    24    68    69    1
    25    68    66   ar
    26    71    70    1
    27    70    60   am
    28    64    66   ar
    29    98    97   ar
    30    50    49    2
    31    76    77   ar
    32    76    78   ar
    33    60    59    1
    34    60    61    2
    35    59    58    1
    36    10     8   ar
    37    10    11   ar
    38     8     6   ar
    39     6     5    1
    40     6     7   ar
    41     5     2    1
    42    11    12    1
    43    11     9   ar
    44     7     9   ar
    45    97    99   ar
    46    97    96    1
    47    49    58   am
    48    49    48    1
    49    95    96    1
    50    95    92    1
    51    47    48    1
    52    47    45   am
    53    39    38    1
    54    39    40    1
    55    44    45    1
    56    44    43    1
    57    91    92    1
    58     1     2    1
    59    38    35    1
    60     2     3    1
    61    51    48    1
    62    51    52    1
    63    41    40    2
    64    40    42   am
    65    92    93    1
    66    45    46    2
    67    37    36    2
    68    26    25    1
    69    52    53    1
    70     3     4    2
    71     3    13   am
    72    25    22    1
    73    35    36    1
    74    35    34    1
    75    93    94    2
    76    93   100   am
    77    13    14    1
    78    53    54    1
    79    34    29   am
    80    16    15    2
    81   100   101    1
    82    15    21   am
    83    15    14    1
    84    22    21    1
    85    22    23    1
    86    14    17    1
    87    54    55    2
    88    33    27    1
    89    33    32    1
    90    29    30    2
    91    29    28    1
    92    23    27   am
    93    23    24    2
    94   106   108   ar
    95   106   105   ar
    96    27    28    1
    97   108   109   ar
    98   162   161    2
    99   101   102    1
   100   101   104    1
   101    17    18    1
   102   170   171    1
   103   170   168   am
   104    28    31    1
   105    32    31    1
   106   103   102    2
   107    20    18    1
   108   167   168    1
   109   167   166    1
   110    55    56    1
   111    55    57    1
   112   171   172    1
   113   105   104    1
   114   105   107   ar
   115   102   114   am
   116   109   111   ar
   117   109   107   ar
   118   168   169    2
   119    18    19    1
   120   161   166   am
   121   161   160    1
   122   111   113   ar
   123   107   110   ar
   124   172   173    2
   125   149   148    1
   126   114   115    1
   127   154   153    2
   128   160   163    1
   129   160   159    1
   130   150   148    1
   131   118   115    1
   132   118   119    1
   133   113   112   ar
   134   115   116    1
   135   163   164    1
   136   163   165    1
   137   110   112   ar
   138   148   145    1
   139   153   159   am
   140   153   152    1
   141   151   152    1
   142   151   146   am
   143   145   146    1
   144   145   144    1
   145   178   179    1
   146   178   175    1
   147   179   180    1
   148   116   117    2
   149   116   120   am
   150   152   155    1
   151   146   147    2
   152   180   174    1
   153   135   134    2
   154   155   156    1
   155   120   121    1
   156   176   175    1
   157   176   177    2
   158   144   134   am
   159   134   133    1
   160   175   174    1
   161   131   130    2
   162   156   157    1
   163   156   158    1
   164   125   124    1
   165   125   127    1
   166   132   133    1
   167   126   124    1
   168   133   136    1
   169   121   124    1
   170   121   122    1
   171   130   129    1
   172   128   122   am
   173   128   129    1
   174   122   123    2
   175   136   137    1
   176   138   137   ar
   177   138   140   ar
   178   137   139   ar
   179   140   142   ar
   180   139   141   ar
   181   142   141   ar
   182   142   143    1
