@<TRIPOS>MOLECULE
tmp/4yqjA00.pdb
 140 140 0 0 0
SMALL
GASTEIGER

@<TRIPOS>ATOM
      1  N        -27.8250   36.6070  -13.8570 N.3    88  TYR88      -0.1227
      2  CA       -26.4270   36.9830  -13.8440 C.3    88  TYR88       0.1736
      3  C        -26.1660   37.8900  -12.6500 C.2    88  TYR88       0.2595
      4  O        -26.8800   38.8650  -12.4400 O.2    88  TYR88      -0.2718
      5  CB       -26.0330   37.7060  -15.1280 C.3    88  TYR88       0.0548
      6  CG       -24.6050   38.2290  -15.1390 C.ar   88  TYR88      -0.0200
      7  CD1      -23.5340   37.3810  -14.9020 C.ar   88  TYR88      -0.0009
      8  CD2      -24.3270   39.5690  -15.4430 C.ar   88  TYR88      -0.0009
      9  CE1      -22.2360   37.8700  -14.9340 C.ar   88  TYR88       0.0417
     10  CE2      -23.0230   40.0590  -15.4780 C.ar   88  TYR88       0.0417
     11  CZ       -21.9950   39.2000  -15.2050 C.ar   88  TYR88       0.1957
     12  OH       -20.6980   39.6180  -15.2390 O.3    88  TYR88      -0.2866
     13  N        -25.1450   37.5890  -11.8630 N.am   89  LEU89      -0.1966
     14  CA       -24.8710   38.4690  -10.7200 C.3    89  LEU89       0.1728
     15  C        -23.8460   39.5350  -11.0190 C.2    89  LEU89       0.2617
     16  O        -22.7320   39.2220  -11.4350 O.2    89  LEU89      -0.2715
     17  CB       -24.4050   37.6200   -9.5300 C.3    89  LEU89       0.0311
     18  CG       -25.5760   36.6780   -9.2640 C.3    89  LEU89       0.0022
     19  CD1      -25.1150   35.2590   -8.9940 C.3    89  LEU89       0.0001
     20  CD2      -26.3900   37.2360   -8.1310 C.3    89  LEU89       0.0001
     21  N        -24.1950   40.8050  -10.8140 N.am   90  SER90      -0.1936
     22  CA       -23.1840   41.8520  -10.9730 C.3    90  SER90       0.2040
     23  C        -23.6290   43.0940  -10.2320 C.2    90  SER90       0.2485
     24  O        -24.7980   43.1760   -9.8800 O.2    90  SER90      -0.2729
     25  CB       -22.9640   42.1940  -12.4580 C.3    90  SER90       0.2129
     26  OG       -23.9830   43.0810  -12.8400 O.3    90  SER90      -0.2179
     27  N        -22.7100   44.0660  -10.0300 N.am   91  PRO91      -0.2726
     28  CA       -23.0630   45.3360   -9.3830 C.3    91  PRO91       0.1402
     29  C        -24.0960   46.1290  -10.2040 C.2    91  PRO91       0.2269
     30  O        -24.7020   47.0680   -9.6940 O.2    91  PRO91      -0.2865
     31  CB       -21.7170   46.0830   -9.3260 C.3    91  PRO91       0.0296
     32  CG       -20.6910   44.9500   -9.1670 C.3    91  PRO91       0.0237
     33  CD       -21.2410   43.9550  -10.2350 C.3    91  PRO91       0.0939
     34  N        -19.7870   35.7270  -12.9570 N.3   115  GLY115     -0.1210
     35  CA       -18.8040   36.4260  -13.7730 C.3   115  GLY115      0.1956
     36  C        -17.4060   36.3620  -13.1380 C.2   115  GLY115      0.2612
     37  O        -17.2800   36.3450  -11.8960 O.2   115  GLY115     -0.2717
     38  N        -16.3710   36.3110  -13.9870 N.am  116  ARG116     -0.1965
     39  CA       -14.9740   36.4830  -13.5700 C.3   116  ARG116      0.1729
     40  C        -14.2900   37.5080  -14.5070 C.2   116  ARG116      0.2616
     41  O        -14.9180   38.0240  -15.4430 O.2   116  ARG116     -0.2715
     42  CB       -14.2330   35.1340  -13.5520 C.3   116  ARG116      0.0348
     43  CG       -14.5690   34.2940  -12.2860 C.3   116  ARG116      0.0492
     44  CD       -13.5780   34.6100  -11.1300 C.3   116  ARG116      0.2205
     45  NE       -14.1530   34.1590   -9.8540 N.pl3 116  ARG116     -0.0865
     46  CZ       -13.5200   34.1980   -8.6990 C.cat 116  ARG116      0.5346
     47  NH1      -12.2400   34.6100   -8.6480 N.pl3 116  ARG116      0.1354
     48  NH2      -14.1490   33.7720   -7.5910 N.pl3 116  ARG116      0.1354
     49  N        -13.0210   37.7830  -14.2440 N.am  117  TYR117     -0.1960
     50  CA       -12.2540   38.8150  -14.9570 C.3   117  TYR117      0.1771
     51  C        -13.0320   40.1200  -14.9310 C.2   117  TYR117      0.2619
     52  O        -13.5060   40.5170  -13.8740 O.2   117  TYR117     -0.2715
     53  CB       -11.9360   38.3490  -16.4020 C.3   117  TYR117      0.0574
     54  CG       -11.4360   36.9200  -16.4270 C.ar  117  TYR117     -0.0198
     55  CD1      -10.2070   36.5850  -15.8940 C.ar  117  TYR117     -0.0009
     56  CD2      -12.2160   35.8900  -16.9420 C.ar  117  TYR117     -0.0009
     57  CE1       -9.7610   35.2580  -15.8820 C.ar  117  TYR117      0.0417
     58  CE2      -11.7660   34.5580  -16.9340 C.ar  117  TYR117      0.0417
     59  CZ       -10.5530   34.2530  -16.4020 C.ar  117  TYR117      0.1957
     60  OH       -10.1390   32.9290  -16.3990 O.3   117  TYR117     -0.2866
     61  N        -13.2060   40.8010  -16.0640 N.am  118  GLU118     -0.1963
     62  CA       -13.9260   42.0740  -15.9840 C.3   118  GLU118      0.1733
     63  C        -15.4150   41.9090  -16.2560 C.2   118  GLU118      0.2616
     64  O        -16.1510   42.8960  -16.2880 O.2   118  GLU118     -0.2715
     65  CB       -13.3560   43.1470  -16.9430 C.3   118  GLU118      0.0429
     66  CG       -11.8560   43.5150  -16.7050 C.3   118  GLU118      0.1163
     67  CD       -11.4980   43.7330  -15.2240 C.2   118  GLU118      0.3649
     68  OE1      -12.2840   44.4050  -14.5090 O.co2 118  GLU118     -0.2457
     69  OE2      -10.4420   43.2230  -14.7590 O.co2 118  GLU118     -0.2457
     70  N        -15.8560   40.6790  -16.4800 N.am  119  GLY119     -0.1955
     71  CA       -17.2790   40.4560  -16.6810 C.3   119  GLY119      0.1869
     72  C        -17.5830   39.6510  -17.9280 C.2   119  GLY119      0.2309
     73  O        -16.7430   38.8820  -18.3630 O.2   119  GLY119     -0.2863
     74  N        -27.6470   42.2330   -7.9000 N.3   134  SER134     -0.1202
     75  CA       -26.4430   42.5440   -7.1390 C.3   134  SER134      0.2020
     76  C        -26.6680   42.1780   -5.6650 C.2   134  SER134      0.2619
     77  O        -27.7940   42.3390   -5.1540 O.2   134  SER134     -0.2717
     78  CB       -26.1260   44.0430   -7.1980 C.3   134  SER134      0.2103
     79  OG       -25.1170   44.3240   -6.2510 O.3   134  SER134     -0.2182
     80  N        -25.6170   41.7120   -4.9800 N.am  135  ILE135     -0.1965
     81  CA       -25.7860   41.4870   -3.5350 C.3   135  ILE135      0.1727
     82  C        -25.4600   42.7580   -2.7330 C.2   135  ILE135      0.2616
     83  O        -25.6680   42.8210   -1.4970 O.2   135  ILE135     -0.2715
     84  CB       -24.9620   40.2940   -3.0420 C.3   135  ILE135      0.0290
     85  CG1      -23.4570   40.5140   -3.2610 C.3   135  ILE135      0.0022
     86  CG2      -25.5280   39.0080   -3.6980 C.3   135  ILE135      0.0023
     87  CD1      -22.5690   39.8130   -2.1890 C.3   135  ILE135      0.0001
     88  N        -24.9920   43.7920   -3.4240 N.am  136  GLY136     -0.1955
     89  CA       -24.7580   45.0820   -2.7710 C.3   136  GLY136      0.1869
     90  C        -23.7970   45.9660   -3.5700 C.2   136  GLY136      0.2309
     91  O        -23.1610   45.5130   -4.5290 O.2   136  GLY136     -0.2863
     92  N        -20.8080   47.0680   -4.0030 N.3   138  TYR138     -0.1227
     93  CA       -19.3540   46.8890   -3.8630 C.3   138  TYR138      0.1736
     94  C        -18.8690   45.9010   -4.9010 C.2   138  TYR138      0.2595
     95  O        -19.6650   45.1390   -5.4510 O.2   138  TYR138     -0.2718
     96  CB       -18.9790   46.4050   -2.4520 C.3   138  TYR138      0.0548
     97  CG       -19.9420   45.3510   -1.8690 C.ar  138  TYR138     -0.0200
     98  CD1      -19.8690   44.0270   -2.2650 C.ar  138  TYR138     -0.0009
     99  CD2      -20.9230   45.7070   -0.9470 C.ar  138  TYR138     -0.0009
    100  CE1      -20.7570   43.0660   -1.7650 C.ar  138  TYR138      0.0417
    101  CE2      -21.8020   44.7740   -0.4420 C.ar  138  TYR138      0.0417
    102  CZ       -21.6990   43.4420   -0.8340 C.ar  138  TYR138      0.1957
    103  OH       -22.5800   42.5190   -0.3290 O.3   138  TYR138     -0.2866
    104  N        -17.5650   45.9280   -5.1480 N.am  139  VAL139     -0.1966
    105  CA       -16.9320   45.1830   -6.2530 C.3   139  VAL139      0.1727
    106  C        -16.0900   44.0410   -5.7280 C.2   139  VAL139      0.2616
    107  O        -15.2680   44.2110   -4.8130 O.2   139  VAL139     -0.2715
    108  CB       -16.0250   46.1020   -7.0870 C.3   139  VAL139      0.0290
    109  CG1      -15.3900   45.3150   -8.2490 C.3   139  VAL139      0.0023
    110  CG2      -16.8470   47.3020   -7.5870 C.3   139  VAL139      0.0023
    111  N        -16.3250   42.8690   -6.2890 N.am  140  LEU140     -0.1963
    112  CA       -15.6060   41.6670   -5.9250 C.3   140  LEU140      0.1728
    113  C        -14.8410   41.0820   -7.0930 C.2   140  LEU140      0.2617
    114  O        -15.0780   41.4630   -8.2400 O.2   140  LEU140     -0.2715
    115  CB       -16.5960   40.6210   -5.4120 C.3   140  LEU140      0.0311
    116  CG       -17.5340   41.1430   -4.3080 C.3   140  LEU140      0.0022
    117  CD1      -18.5960   40.0920   -4.0680 C.3   140  LEU140      0.0001
    118  CD2      -16.7710   41.3890   -3.0490 C.3   140  LEU140      0.0001
    119  N        -14.0090   40.0710   -6.8260 N.am  141  THR141     -0.1937
    120  CA       -13.2300   39.4510   -7.8890 C.3   141  THR141      0.2028
    121  C        -14.0470   38.4520   -8.6960 C.2   141  THR141      0.2643
    122  O        -13.6250   38.0310   -9.7680 O.2   141  THR141     -0.2714
    123  CB       -12.0150   38.6920   -7.3290 C.3   141  THR141      0.1808
    124  OG1      -12.5050   37.6190   -6.4990 O.3   141  THR141     -0.2208
    125  CG2      -11.1060   39.6460   -6.5710 C.3   141  THR141      0.0379
    126  N        -15.2240   38.0790   -8.2030 N.am  142  GLY142     -0.1939
    127  CA       -16.0450   37.1140   -8.9290 C.3   142  GLY142      0.2014
    128  C        -17.4710   37.0510   -8.4030 C.2   142  GLY142      0.2639
    129  O        -17.7350   37.4700   -7.2580 O.2   142  GLY142     -0.2714
    130  N        -18.3750   36.5270   -9.2320 N.am  143  GLY143     -0.1954
    131  CA       -19.7640   36.3670   -8.8360 C.3   143  GLY143      0.1869
    132  C        -20.0760   35.1590   -7.9480 C.2   143  GLY143      0.2309
    133  O        -21.2420   34.9440   -7.5950 O.2   143  GLY143     -0.2863
    134  N        -21.3060   36.1940   -4.4070 N.3   146  PRO146     -0.2116
    135  CA       -22.7020   36.6250   -4.5860 C.3   146  PRO146      0.1372
    136  C        -23.6640   35.4820   -4.8640 C.2   146  PRO146      0.2244
    137  O        -24.7590   35.4970   -4.3300 O.2   146  PRO146     -0.2868
    138  CB       -22.6190   37.5640   -5.7880 C.3   146  PRO146      0.0268
    139  CG       -21.2800   38.2280   -5.6290 C.3   146  PRO146      0.0207
    140  CD       -20.3710   37.0930   -5.1500 C.3   146  PRO146      0.0892
@<TRIPOS>BOND
     1    73    72    2
     2    72    71    1
     3    65    66    1
     4    65    62    1
     5    56    58   ar
     6    56    54   ar
     7    58    59   ar
     8    66    67    1
     9    71    70    1
    10    70    63   am
    11    54    53    1
    12    54    55   ar
    13    53    50    1
    14    59    60    1
    15    59    57   ar
    16    64    63    2
    17    63    62    1
    18    61    62    1
    19    61    51   am
    20    55    57   ar
    21    10     8   ar
    22    10    11   ar
    23    41    40    2
    24     8     6   ar
    25    12    11    1
    26    67    69   ar
    27    67    68   ar
    28    11     9   ar
    29     6     5    1
    30     6     7   ar
    31     5     2    1
    32    50    51    1
    33    50    49    1
    34     9     7   ar
    35    51    52    2
    36    40    49   am
    37    40    39    1
    38    38    39    1
    39    38    36   am
    40     1     2    1
    41     2     3    1
    42    35    36    1
    43    35    34    1
    44    39    42    1
    45    42    43    1
    46    36    37    2
    47    26    25    1
    48     3     4    2
    49     3    13   am
    50    25    22    1
    51    43    44    1
    52    13    14    1
    53    16    15    2
    54    44    45    1
    55    15    21   am
    56    15    14    1
    57    22    21    1
    58    22    23    1
    59    14    17    1
    60    33    27    1
    61    33    32    1
    62    23    27   am
    63    23    24    2
    64    29    30    2
    65    29    28    1
    66    27    28    1
    67    45    46    2
    68   122   121    2
    69    17    18    1
    70    28    31    1
    71    31    32    1
    72    18    19    1
    73    18    20    1
    74   130   131    1
    75   130   128   am
    76   127   128    1
    77   127   126    1
    78   131   132    1
    79    46    47    1
    80    46    48    1
    81   121   126   am
    82   121   120    1
    83   128   129    2
    84   109   108    1
    85   114   113    2
    86   132   133    2
    87    74    75    1
    88   120   123    1
    89   120   119    1
    90   110   108    1
    91   123   125    1
    92   123   124    1
    93    78    75    1
    94    78    79    1
    95    75    76    1
    96   113   119   am
    97   113   112    1
    98   108   105    1
    99   111   112    1
   100   111   106   am
   101   105   106    1
   102   105   104    1
   103   112   115    1
   104   138   139    1
   105   138   135    1
   106   106   107    2
   107    76    77    2
   108    76    80   am
   109   139   140    1
   110    95    94    2
   111   115   116    1
   112   140   134    1
   113   104    94   am
   114    80    81    1
   115    94    93    1
   116   136   135    1
   117   136   137    2
   118   135   134    1
   119    91    90    2
   120   116   117    1
   121   116   118    1
   122    92    93    1
   123    93    96    1
   124    86    84    1
   125    90    89    1
   126    81    84    1
   127    81    82    1
   128    88    89    1
   129    88    82   am
   130    85    84    1
   131    85    87    1
   132    82    83    2
   133    96    97    1
   134    98    97   ar
   135    98   100   ar
   136    97    99   ar
   137   100   102   ar
   138    99   101   ar
   139   102   101   ar
   140   102   103    1
