@<TRIPOS>MOLECULE
tmp/4yqkA00.pdb
 128 127 0 0 0
SMALL
GASTEIGER

@<TRIPOS>ATOM
      1  N        -25.2040   37.5180  -11.7410 N.3    90  LEU90      -0.1231
      2  CA       -24.8780   38.3520  -10.5800 C.3    90  LEU90       0.1693
      3  C        -23.9150   39.4550  -10.9960 C.2    90  LEU90       0.2593
      4  O        -22.8500   39.1660  -11.5190 O.2    90  LEU90      -0.2718
      5  CB       -24.2580   37.5090   -9.4490 C.3    90  LEU90       0.0284
      6  CG       -25.0970   36.5830   -8.5460 C.3    90  LEU90       0.0019
      7  CD1      -26.3200   37.3310   -8.0360 C.3    90  LEU90       0.0001
      8  CD2      -25.4890   35.2980   -9.2970 C.3    90  LEU90       0.0001
      9  N        -24.2650   40.7280  -10.7490 N.am   91  SER91      -0.1939
     10  CA       -23.3250   41.8140  -11.1180 C.3    91  SER91       0.2040
     11  C        -23.7030   43.0900  -10.4050 C.2    91  SER91       0.2485
     12  O        -24.8330   43.2390   -9.9610 O.2    91  SER91      -0.2729
     13  CB       -23.3020   42.0610  -12.6350 C.3    91  SER91       0.2129
     14  OG       -24.0860   43.1680  -12.9540 O.3    91  SER91      -0.2179
     15  N        -22.7510   44.0220  -10.2960 N.am   92  PRO92      -0.2726
     16  CA       -23.0780   45.2980   -9.6400 C.3    92  PRO92       0.1402
     17  C        -24.1160   46.1390  -10.4150 C.2    92  PRO92       0.2269
     18  O        -24.6180   47.1030   -9.8470 O.2    92  PRO92      -0.2865
     19  CB       -21.7300   46.0150   -9.5980 C.3    92  PRO92       0.0296
     20  CG       -20.7120   44.8890   -9.5850 C.3    92  PRO92       0.0237
     21  CD       -21.3060   43.8890  -10.5880 C.3    92  PRO92       0.0939
     22  N        -19.7080   35.5740  -12.9960 N.3   116  GLY116     -0.1210
     23  CA       -18.7160   36.1810  -13.8830 C.3   116  GLY116      0.1956
     24  C        -17.3500   36.2500  -13.1940 C.2   116  GLY116      0.2612
     25  O        -17.2760   36.3200  -11.9480 O.2   116  GLY116     -0.2717
     26  N        -16.2790   36.2020  -13.9930 N.am  117  ARG117     -0.1965
     27  CA       -14.9130   36.4230  -13.4980 C.3   117  ARG117      0.1729
     28  C        -14.3000   37.4480  -14.4510 C.2   117  ARG117      0.2616
     29  O        -14.9420   37.8590  -15.4240 O.2   117  ARG117     -0.2715
     30  CB       -14.0700   35.1250  -13.4250 C.3   117  ARG117      0.0348
     31  CG       -14.3690   34.1670  -12.1530 C.3   117  ARG117      0.0492
     32  CD       -13.5030   34.5670  -10.9480 C.3   117  ARG117      0.2205
     33  NE       -14.1020   34.0960   -9.7070 N.pl3 117  ARG117     -0.0865
     34  CZ       -13.4800   34.1700   -8.5590 C.cat 117  ARG117      0.5346
     35  NH1      -12.2120   34.6410   -8.5500 N.pl3 117  ARG117      0.1354
     36  NH2      -14.0810   33.7260   -7.4510 N.pl3 117  ARG117      0.1354
     37  N        -13.0880   37.8900  -14.1520 N.am  118  TYR118     -0.1960
     38  CA       -12.4070   38.9520  -14.9170 C.3   118  TYR118      0.1771
     39  C        -13.2490   40.2110  -14.8970 C.2   118  TYR118      0.2619
     40  O        -13.9050   40.4820  -13.8830 O.2   118  TYR118     -0.2715
     41  CB       -12.1080   38.5080  -16.3610 C.3   118  TYR118      0.0574
     42  CG       -11.5480   37.1010  -16.3720 C.ar  118  TYR118     -0.0198
     43  CD1      -12.2290   36.0740  -16.9960 C.ar  118  TYR118     -0.0009
     44  CD2      -10.3920   36.7860  -15.6650 C.ar  118  TYR118     -0.0009
     45  CE1      -11.7330   34.7410  -16.9700 C.ar  118  TYR118      0.0417
     46  CE2       -9.8980   35.4610  -15.6330 C.ar  118  TYR118      0.0417
     47  CZ       -10.5830   34.4530  -16.3130 C.ar  118  TYR118      0.1957
     48  OH       -10.1370   33.1340  -16.2920 O.3   118  TYR118     -0.2866
     49  N        -13.2040   41.0100  -15.9750 N.am  119  GLU119     -0.1963
     50  CA       -13.8650   42.3210  -15.9130 C.3   119  GLU119      0.1733
     51  C        -15.3350   42.2820  -16.2620 C.2   119  GLU119      0.2616
     52  O        -16.0470   43.2740  -16.0590 O.2   119  GLU119     -0.2715
     53  CB       -13.1860   43.3610  -16.8230 C.3   119  GLU119      0.0429
     54  CG       -11.7250   43.4850  -16.5620 C.3   119  GLU119      0.1163
     55  CD       -11.4170   43.5250  -15.0960 C.2   119  GLU119      0.3649
     56  OE1      -11.8940   44.4720  -14.4340 O.co2 119  GLU119     -0.2457
     57  OE2      -10.7400   42.5960  -14.5950 O.co2 119  GLU119     -0.2457
     58  N        -15.8070   41.1630  -16.7790 N.am  120  GLY120     -0.1955
     59  CA       -17.2140   41.0640  -17.0810 C.3   120  GLY120      0.1869
     60  C        -17.5190   40.0550  -18.1840 C.2   120  GLY120      0.2309
     61  O        -16.6470   39.2700  -18.5810 O.2   120  GLY120     -0.2863
     62  N        -27.6710   42.3620   -8.0190 N.3   135  SER135     -0.1202
     63  CA       -26.4630   42.7010   -7.2570 C.3   135  SER135      0.2020
     64  C        -26.6370   42.3490   -5.7790 C.2   135  SER135      0.2619
     65  O        -27.6960   42.5950   -5.1950 O.2   135  SER135     -0.2717
     66  CB       -26.1540   44.2120   -7.3530 C.3   135  SER135      0.2103
     67  OG       -25.1190   44.5460   -6.4460 O.3   135  SER135     -0.2182
     68  N        -25.5940   41.8030   -5.1520 N.am  136  ILE136     -0.1965
     69  CA       -25.7330   41.5450   -3.6910 C.3   136  ILE136      0.1727
     70  C        -25.3520   42.7780   -2.8540 C.2   136  ILE136      0.2616
     71  O        -25.5180   42.8110   -1.6180 O.2   136  ILE136     -0.2715
     72  CB       -24.9060   40.3360   -3.2400 C.3   136  ILE136      0.0290
     73  CG1      -23.4200   40.5290   -3.5410 C.3   136  ILE136      0.0022
     74  CG2      -25.5270   39.0400   -3.7530 C.3   136  ILE136      0.0023
     75  CD1      -22.5650   40.1090   -2.3430 C.3   136  ILE136      0.0001
     76  N        -24.8380   43.7980   -3.5120 N.am  137  GLY137     -0.1955
     77  CA       -24.4830   45.0160   -2.7960 C.3   137  GLY137      0.1869
     78  C        -23.5790   45.9280   -3.6090 C.2   137  GLY137      0.2309
     79  O        -22.9530   45.5190   -4.5950 O.2   137  GLY137     -0.2863
     80  N        -20.6180   47.0640   -3.8370 N.3   139  TYR139     -0.1227
     81  CA       -19.1640   46.9470   -3.6760 C.3   139  TYR139      0.1736
     82  C        -18.6590   46.0140   -4.7610 C.2   139  TYR139      0.2595
     83  O        -19.4690   45.3230   -5.3820 O.2   139  TYR139     -0.2718
     84  CB       -18.8110   46.4090   -2.2660 C.3   139  TYR139      0.0548
     85  CG       -19.8160   45.4060   -1.7120 C.ar  139  TYR139     -0.0200
     86  CD1      -19.7660   44.0720   -2.0880 C.ar  139  TYR139     -0.0009
     87  CD2      -20.7900   45.7930   -0.8120 C.ar  139  TYR139     -0.0009
     88  CE1      -20.6620   43.1310   -1.5860 C.ar  139  TYR139      0.0417
     89  CE2      -21.6960   44.8810   -0.2980 C.ar  139  TYR139      0.0417
     90  CZ       -21.6130   43.5340   -0.6670 C.ar  139  TYR139      0.1957
     91  OH       -22.5130   42.6170   -0.1910 O.3   139  TYR139     -0.2866
     92  N        -17.3460   45.9450   -4.9500 N.am  140  VAL140     -0.1966
     93  CA       -16.7600   45.2210   -6.0940 C.3   140  VAL140      0.1727
     94  C        -15.9580   44.0440   -5.6040 C.2   140  VAL140      0.2616
     95  O        -15.0810   44.1980   -4.7210 O.2   140  VAL140     -0.2715
     96  CB       -15.8550   46.1350   -6.9290 C.3   140  VAL140      0.0290
     97  CG1      -15.2730   45.3690   -8.1350 C.3   140  VAL140      0.0023
     98  CG2      -16.6830   47.3720   -7.3900 C.3   140  VAL140      0.0023
     99  N        -16.2890   42.8680   -6.1440 N.am  141  LEU141     -0.1963
    100  CA       -15.6460   41.6190   -5.7550 C.3   141  LEU141      0.1728
    101  C        -14.8080   41.0920   -6.9120 C.2   141  LEU141      0.2617
    102  O        -14.8100   41.6920   -7.9930 O.2   141  LEU141     -0.2715
    103  CB       -16.6850   40.5740   -5.3660 C.3   141  LEU141      0.0311
    104  CG       -17.6500   41.0780   -4.2580 C.3   141  LEU141      0.0022
    105  CD1      -18.7400   40.0460   -4.0030 C.3   141  LEU141      0.0001
    106  CD2      -16.9320   41.3790   -2.9700 C.3   141  LEU141      0.0001
    107  N        -14.0960   39.9800   -6.6910 N.am  142  THR142     -0.1937
    108  CA       -13.2340   39.4300   -7.7330 C.3   142  THR142      0.2028
    109  C        -13.9900   38.4330   -8.6030 C.2   142  THR142      0.2643
    110  O        -13.4850   37.9920   -9.6480 O.2   142  THR142     -0.2714
    111  CB       -12.0110   38.7160   -7.1500 C.3   142  THR142      0.1808
    112  OG1      -12.4400   37.5950   -6.3660 O.3   142  THR142     -0.2208
    113  CG2      -11.1920   39.6840   -6.2900 C.3   142  THR142      0.0379
    114  N        -15.1800   38.0340   -8.1820 N.am  143  GLY143     -0.1939
    115  CA       -15.9400   37.0940   -9.0030 C.3   143  GLY143      0.2014
    116  C        -17.3860   37.0110   -8.5280 C.2   143  GLY143      0.2639
    117  O        -17.7210   37.4920   -7.4110 O.2   143  GLY143     -0.2714
    118  N        -18.2400   36.4440   -9.3810 N.am  144  GLY144     -0.1954
    119  CA       -19.6580   36.3110   -9.0360 C.3   144  GLY144      0.1869
    120  C        -19.9930   35.1460   -8.1090 C.2   144  GLY144      0.2309
    121  O        -21.1440   34.9590   -7.7100 O.2   144  GLY144     -0.2863
    122  N        -21.2770   36.1820   -4.5240 N.3   147  PRO147     -0.2116
    123  CA       -22.6890   36.6100   -4.6530 C.3   147  PRO147      0.1372
    124  C        -23.6650   35.4650   -4.9070 C.2   147  PRO147      0.2244
    125  O        -24.7790   35.4430   -4.3640 O.2   147  PRO147     -0.2868
    126  CB       -22.6430   37.5480   -5.8570 C.3   147  PRO147      0.0268
    127  CG       -21.2270   38.1790   -5.7920 C.3   147  PRO147      0.0207
    128  CD       -20.3400   37.0820   -5.2570 C.3   147  PRO147      0.0892
@<TRIPOS>BOND
     1    61    60    2
     2    60    59    1
     3    59    58    1
     4    43    45   ar
     5    43    42   ar
     6    45    47   ar
     7    53    54    1
     8    53    50    1
     9    58    51   am
    10    54    55    1
    11    42    41    1
    12    42    44   ar
    13    41    38    1
    14    47    48    1
    15    47    46   ar
    16    51    52    2
    17    51    50    1
    18    49    50    1
    19    49    39   am
    20    44    46   ar
    21    29    28    2
    22    55    57   ar
    23    55    56   ar
    24    38    39    1
    25    38    37    1
    26    39    40    2
    27    28    37   am
    28    28    27    1
    29    26    27    1
    30    26    24   am
    31    23    24    1
    32    23    22    1
    33    27    30    1
    34    30    31    1
    35    24    25    2
    36    14    13    1
    37    13    10    1
    38    31    32    1
    39     1     2    1
    40     4     3    2
    41    10     9    1
    42    10    11    1
    43     3     9   am
    44     3     2    1
    45    32    33    1
    46    21    15    1
    47    21    20    1
    48     2     5    1
    49    17    18    2
    50    17    16    1
    51    11    15   am
    52    11    12    2
    53    15    16    1
    54    33    34    2
    55   110   109    2
    56    16    19    1
    57    19    20    1
    58     5     6    1
    59   118   119    1
    60   118   116   am
    61     8     6    1
    62   119   120    1
    63   115   116    1
    64   115   114    1
    65   109   114   am
    66   109   108    1
    67    34    35    1
    68    34    36    1
    69     6     7    1
    70   116   117    2
    71    97    96    1
    72   120   121    2
    73    62    63    1
    74   102   101    2
    75   108   111    1
    76   108   107    1
    77    98    96    1
    78    66    63    1
    79    66    67    1
    80    63    64    1
    81   111   112    1
    82   111   113    1
    83    96    93    1
    84   101   107   am
    85   101   100    1
    86    99   100    1
    87    99    94   am
    88    93    94    1
    89    93    92    1
    90   126   127    1
    91   126   123    1
    92   127   128    1
    93    64    65    2
    94    64    68   am
    95   100   103    1
    96    94    95    2
    97    83    82    2
    98   103   104    1
    99   128   122    1
   100    68    69    1
   101    92    82   am
   102   124   123    1
   103   124   125    2
   104    82    81    1
   105   123   122    1
   106    79    78    2
   107   104   105    1
   108   104   106    1
   109    80    81    1
   110    74    72    1
   111    69    72    1
   112    69    70    1
   113    81    84    1
   114    78    77    1
   115    73    72    1
   116    73    75    1
   117    76    70   am
   118    76    77    1
   119    70    71    2
   120    84    85    1
   121    86    85   ar
   122    86    88   ar
   123    85    87   ar
   124    88    90   ar
   125    87    89   ar
   126    90    89   ar
   127    90    91    1
