@<TRIPOS>MOLECULE
tmp/4yqlA00.pdb
 152 153 0 0 0
SMALL
GASTEIGER

@<TRIPOS>ATOM
      1  N        -27.3830   36.7990  -13.8170 N.3    89  TYR89      -0.1227
      2  CA       -25.9950   37.2430  -13.8480 C.3    89  TYR89       0.1736
      3  C        -25.7300   38.1100  -12.6290 C.2    89  TYR89       0.2595
      4  O        -26.4360   39.0980  -12.4030 O.2    89  TYR89      -0.2718
      5  CB       -25.7050   38.0350  -15.1230 C.3    89  TYR89       0.0548
      6  CG       -24.3090   38.6170  -15.1920 C.ar   89  TYR89      -0.0200
      7  CD1      -23.1890   37.8350  -14.9140 C.ar   89  TYR89      -0.0009
      8  CD2      -24.1080   39.9490  -15.5530 C.ar   89  TYR89      -0.0009
      9  CE1      -21.9090   38.3670  -14.9720 C.ar   89  TYR89       0.0417
     10  CE2      -22.8320   40.4870  -15.6240 C.ar   89  TYR89       0.0417
     11  CZ       -21.7440   39.6920  -15.3300 C.ar   89  TYR89       0.1957
     12  OH       -20.4900   40.2200  -15.4160 O.3    89  TYR89      -0.2866
     13  N        -24.7250   37.7320  -11.8410 N.am   90  LEU90      -0.1966
     14  CA       -24.3440   38.5130  -10.6640 C.3    90  LEU90       0.1728
     15  C        -23.3060   39.5700  -11.0410 C.2    90  LEU90       0.2617
     16  O        -22.2500   39.2470  -11.6000 O.2    90  LEU90      -0.2715
     17  CB       -23.7780   37.6090   -9.5690 C.3    90  LEU90       0.0311
     18  CG       -24.6440   36.5690   -8.8430 C.3    90  LEU90       0.0022
     19  CD1      -26.0290   37.1240   -8.5650 C.3    90  LEU90       0.0001
     20  CD2      -24.7120   35.2380   -9.6030 C.3    90  LEU90       0.0001
     21  N        -23.6000   40.8310  -10.7360 N.am   91  SER91      -0.1936
     22  CA       -22.6890   41.9170  -11.0770 C.3    91  SER91       0.2040
     23  C        -23.1150   43.1760  -10.3430 C.2    91  SER91       0.2485
     24  O        -24.2490   43.2630   -9.8910 O.2    91  SER91      -0.2729
     25  CB       -22.7070   42.1800  -12.5890 C.3    91  SER91       0.2129
     26  OG       -23.5610   43.2730  -12.8790 O.3    91  SER91      -0.2179
     27  N        -22.2080   44.1650  -10.2310 N.am   92  PRO92      -0.2715
     28  CA       -22.5540   45.4240   -9.5540 C.3    92  PRO92       0.1536
     29  C        -23.5410   46.3260  -10.3170 C.2    92  PRO92       0.2598
     30  O        -23.9710   47.3350   -9.7510 O.2    92  PRO92      -0.2715
     31  CB       -21.1950   46.1230   -9.4050 C.3    92  PRO92       0.0310
     32  CG       -20.1880   45.0220   -9.4770 C.3    92  PRO92       0.0237
     33  CD       -20.7590   44.0700  -10.4870 C.3    92  PRO92       0.0939
     34  N        -23.8890   45.9720  -11.5540 N.am   93  GLN93      -0.1978
     35  CA       -24.8690   46.7250  -12.3460 C.3    93  GLN93       0.1601
     36  C        -26.2730   46.1880  -12.1520 C.2    93  GLN93       0.2287
     37  O        -27.2530   46.7950  -12.5890 O.2    93  GLN93      -0.2864
     38  CB       -24.5570   46.6300  -13.8440 C.3    93  GLN93       0.0394
     39  CG       -23.5200   47.5910  -14.3350 C.3    93  GLN93       0.0908
     40  CD       -22.1170   47.1540  -13.9890 C.2    93  GLN93       0.2608
     41  OE1      -21.7080   46.0250  -14.2680 O.2    93  GLN93      -0.2717
     42  NE2      -21.3680   48.0520  -13.3790 N.am   93  GLN93      -0.0878
     43  N        -19.2930   35.8780  -13.1940 N.3   116  GLY116     -0.1225
     44  CA       -18.2670   36.5220  -14.0000 C.3   116  GLY116      0.1811
     45  C        -16.9280   36.6460  -13.2880 C.2   116  GLY116      0.2280
     46  O        -16.8600   36.8090  -12.0600 O.2   116  GLY116     -0.2866
     47  N        -12.6640   38.2910  -14.1750 N.3   118  TYR118     -0.1227
     48  CA       -12.0210   39.4150  -14.8530 C.3   118  TYR118      0.1736
     49  C        -12.9000   40.6720  -14.7780 C.2   118  TYR118      0.2595
     50  O        -13.5480   40.9080  -13.7490 O.2   118  TYR118     -0.2718
     51  CB       -11.6860   39.0210  -16.3090 C.3   118  TYR118      0.0548
     52  CG       -11.0550   37.6510  -16.3830 C.ar  118  TYR118     -0.0200
     53  CD1      -11.7880   36.5390  -16.7860 C.ar  118  TYR118     -0.0009
     54  CD2       -9.7430   37.4570  -15.9810 C.ar  118  TYR118     -0.0009
     55  CE1      -11.2110   35.2700  -16.8110 C.ar  118  TYR118      0.0417
     56  CE2       -9.1620   36.2070  -16.0100 C.ar  118  TYR118      0.0417
     57  CZ        -9.8990   35.1170  -16.4260 C.ar  118  TYR118      0.1957
     58  OH        -9.3010   33.8790  -16.4580 O.3   118  TYR118     -0.2866
     59  N        -12.9500   41.4650  -15.8510 N.am  119  GLU119     -0.1965
     60  CA       -13.6480   42.7550  -15.7890 C.3   119  GLU119      0.1733
     61  C        -15.0700   42.6960  -16.3000 C.2   119  GLU119      0.2616
     62  O        -15.6790   43.7330  -16.5450 O.2   119  GLU119     -0.2715
     63  CB       -12.9060   43.8450  -16.5650 C.3   119  GLU119      0.0429
     64  CG       -11.3970   43.7870  -16.4370 C.3   119  GLU119      0.1163
     65  CD       -10.9170   43.9170  -15.0100 C.2   119  GLU119      0.3649
     66  OE1      -11.5270   44.6960  -14.2470 O.co2 119  GLU119     -0.2457
     67  OE2       -9.9320   43.2330  -14.6540 O.co2 119  GLU119     -0.2457
     68  N        -15.6010   41.4930  -16.4720 N.am  120  GLY120     -0.1955
     69  CA       -16.9860   41.3480  -16.8780 C.3   120  GLY120      0.1869
     70  C        -17.1710   40.4120  -18.0490 C.2   120  GLY120      0.2309
     71  O        -16.2540   39.6780  -18.4350 O.2   120  GLY120     -0.2863
     72  N        -28.4510   40.8390  -11.1690 N.3   134  TRP134     -0.1227
     73  CA       -28.6130   41.1600   -9.7410 C.3   134  TRP134      0.1737
     74  C        -27.2760   41.4810   -9.0600 C.2   134  TRP134      0.2596
     75  O        -26.2410   40.8830   -9.3960 O.2   134  TRP134     -0.2718
     76  CB       -29.2530   39.9890   -8.9960 C.3   134  TRP134      0.0564
     77  CG       -30.7170   39.7690   -9.2570 C.ar  134  TRP134      0.0003
     78  CD1      -31.2700   39.0760  -10.3000 C.ar  134  TRP134      0.0946
     79  CD2      -31.8150   40.2040   -8.4390 C.ar  134  TRP134      0.0152
     80  NE1      -32.6420   39.0650  -10.1860 N.ar  134  TRP134     -0.2442
     81  CE2      -33.0020   39.7550   -9.0560 C.ar  134  TRP134      0.0810
     82  CE3      -31.9110   40.9370   -7.2480 C.ar  134  TRP134      0.0012
     83  CZ2      -34.2710   40.0110   -8.5220 C.ar  134  TRP134      0.0191
     84  CZ3      -33.1720   41.1980   -6.7220 C.ar  134  TRP134      0.0001
     85  CH2      -34.3340   40.7320   -7.3600 C.ar  134  TRP134      0.0015
     86  N        -27.3090   42.4140   -8.1060 N.am  135  SER135     -0.1938
     87  CA       -26.1590   42.7120   -7.2560 C.3   135  SER135      0.2055
     88  C        -26.4480   42.4080   -5.7670 C.2   135  SER135      0.2643
     89  O        -27.5420   42.6990   -5.2560 O.2   135  SER135     -0.2714
     90  CB       -25.7660   44.1820   -7.4080 C.3   135  SER135      0.2130
     91  OG       -24.7840   44.5620   -6.4480 O.3   135  SER135     -0.2179
     92  N        -25.4760   41.8320   -5.0630 N.am  136  ILE136     -0.1963
     93  CA       -25.6610   41.6080   -3.6310 C.3   136  ILE136      0.1730
     94  C        -25.2350   42.8110   -2.8120 C.2   136  ILE136      0.2655
     95  O        -25.3750   42.8100   -1.5900 O.2   136  ILE136     -0.2711
     96  CB       -24.8900   40.3850   -3.1130 C.3   136  ILE136      0.0290
     97  CG1      -23.3930   40.5610   -3.3760 C.3   136  ILE136      0.0022
     98  CG2      -25.4520   39.1000   -3.7300 C.3   136  ILE136      0.0023
     99  CD1      -22.5290   39.8980   -2.3270 C.3   136  ILE136      0.0001
    100  N        -24.7090   43.8340   -3.4780 N.am  137  GLY137     -0.1730
    101  CA       -24.3260   45.0460   -2.7800 C.2   137  GLY137      0.1340
    102  C        -23.3820   45.9640   -3.5330 C.2   137  GLY137      0.2521
    103  O        -22.7040   45.5550   -4.4770 O.2   137  GLY137     -0.2816
    104  N        -20.4850   47.0370   -3.4870 N.3   139  TYR139     -0.1227
    105  CA       -19.0580   46.8900   -3.2510 C.3   139  TYR139      0.1736
    106  C        -18.4960   46.0250   -4.3690 C.2   139  TYR139      0.2595
    107  O        -19.2520   45.3310   -5.0360 O.2   139  TYR139     -0.2718
    108  CB       -18.7900   46.2850   -1.8630 C.3   139  TYR139      0.0548
    109  CG       -19.8330   45.2720   -1.4160 C.ar  139  TYR139     -0.0200
    110  CD1      -19.7540   43.9450   -1.8130 C.ar  139  TYR139     -0.0009
    111  CD2      -20.8970   45.6460   -0.5990 C.ar  139  TYR139     -0.0009
    112  CE1      -20.7030   43.0130   -1.4240 C.ar  139  TYR139      0.0417
    113  CE2      -21.8550   44.7170   -0.2010 C.ar  139  TYR139      0.0417
    114  CZ       -21.7450   43.4000   -0.6170 C.ar  139  TYR139      0.1957
    115  OH       -22.6820   42.4660   -0.2410 O.3   139  TYR139     -0.2866
    116  N        -17.1820   46.0570   -4.5710 N.am  140  VAL140     -0.1966
    117  CA       -16.5670   45.3620   -5.7040 C.3   140  VAL140      0.1727
    118  C        -15.7660   44.1380   -5.2700 C.2   140  VAL140      0.2616
    119  O        -14.9250   44.2240   -4.3800 O.2   140  VAL140     -0.2715
    120  CB       -15.6630   46.3160   -6.5330 C.3   140  VAL140      0.0290
    121  CG1      -14.9490   45.5590   -7.6350 C.3   140  VAL140      0.0023
    122  CG2      -16.4910   47.4370   -7.1230 C.3   140  VAL140      0.0023
    123  N        -16.0320   43.0010   -5.9080 N.am  141  LEU141     -0.1963
    124  CA       -15.3720   41.7460   -5.5620 C.3   141  LEU141      0.1728
    125  C        -14.5050   41.2230   -6.7120 C.2   141  LEU141      0.2617
    126  O        -14.5140   41.7770   -7.8120 O.2   141  LEU141     -0.2715
    127  CB       -16.4250   40.6980   -5.1910 C.3   141  LEU141      0.0311
    128  CG       -17.4150   41.1350   -4.1100 C.3   141  LEU141      0.0022
    129  CD1      -18.4270   40.0450   -3.8370 C.3   141  LEU141      0.0001
    130  CD2      -16.6730   41.5230   -2.8460 C.3   141  LEU141      0.0001
    131  N        -13.7550   40.1570   -6.4550 N.am  142  THR142     -0.1937
    132  CA       -12.9000   39.5640   -7.4750 C.3   142  THR142      0.2028
    133  C        -13.6760   38.6940   -8.4680 C.2   142  THR142      0.2643
    134  O        -13.1300   38.2930   -9.4840 O.2   142  THR142     -0.2714
    135  CB       -11.7870   38.6870   -6.8660 C.3   142  THR142      0.1808
    136  OG1      -12.3620   37.5290   -6.2380 O.3   142  THR142     -0.2208
    137  CG2      -10.9750   39.4710   -5.8690 C.3   142  THR142      0.0379
    138  N        -14.9340   38.3870   -8.1670 N.am  143  GLY143     -0.1939
    139  CA       -15.7220   37.5050   -9.0150 C.3   143  GLY143      0.2014
    140  C        -17.1450   37.3400   -8.5200 C.2   143  GLY143      0.2639
    141  O        -17.4630   37.7100   -7.3850 O.2   143  GLY143     -0.2714
    142  N        -18.0050   36.7750   -9.3620 N.am  144  GLY144     -0.1954
    143  CA       -19.4130   36.6120   -9.0210 C.3   144  GLY144      0.1869
    144  C        -19.7510   35.4070   -8.1400 C.2   144  GLY144      0.2309
    145  O        -20.9050   35.2400   -7.7290 O.2   144  GLY144     -0.2863
    146  N        -21.0910   36.2220   -4.5630 N.3   147  PRO147     -0.2116
    147  CA       -22.4870   36.6820   -4.5770 C.3   147  PRO147      0.1372
    148  C        -23.4570   35.5660   -4.9260 C.2   147  PRO147      0.2244
    149  O        -24.5460   35.5140   -4.3400 O.2   147  PRO147     -0.2868
    150  CB       -22.4860   37.7690   -5.6520 C.3   147  PRO147      0.0268
    151  CG       -21.1220   38.3480   -5.5480 C.3   147  PRO147      0.0207
    152  CD       -20.2120   37.1620   -5.2880 C.3   147  PRO147      0.0892
@<TRIPOS>BOND
     1    71    70    2
     2    70    69    1
     3    69    68    1
     4    55    53   ar
     5    55    57   ar
     6    53    52   ar
     7    63    64    1
     8    63    60    1
     9    62    61    2
    10    68    61   am
    11    58    57    1
    12    64    65    1
    13    57    56   ar
    14    52    51    1
    15    52    54   ar
    16    51    48    1
    17    61    60    1
    18    56    54   ar
    19    59    60    1
    20    59    49   am
    21    10     8   ar
    22    10    11   ar
    23     8     6   ar
    24    12    11    1
    25    11     9   ar
    26     6     5    1
    27     6     7   ar
    28     5     2    1
    29    65    67   ar
    30    65    66   ar
    31     9     7   ar
    32    48    49    1
    33    48    47    1
    34    49    50    2
    35    39    40    1
    36    39    38    1
    37    41    40    2
    38    44    45    1
    39    44    43    1
    40    40    42   am
    41     2     1    1
    42     2     3    1
    43    38    35    1
    44    45    46    2
    45    26    25    1
    46     3     4    2
    47     3    13   am
    48    25    22    1
    49    37    36    2
    50    35    36    1
    51    35    34    1
    52    13    14    1
    53    16    15    2
    54    34    29   am
    55    72    73    1
    56    22    21    1
    57    22    23    1
    58    15    21   am
    59    15    14    1
    60    14    17    1
    61    33    27    1
    62    33    32    1
    63    23    27   am
    64    23    24    2
    65    29    30    2
    66    29    28    1
    67    78    80   ar
    68    78    77   ar
    69    27    28    1
    70    80    81   ar
    71    73    74    1
    72    73    76    1
    73    20    18    1
    74    17    18    1
    75    28    31    1
    76   134   133    2
    77    32    31    1
    78    75    74    2
    79   142   143    1
    80   142   140   am
    81    77    76    1
    82    77    79   ar
    83    74    86   am
    84    81    83   ar
    85    81    79   ar
    86   143   144    1
    87   139   140    1
    88   139   138    1
    89    18    19    1
    90    83    85   ar
    91   140   141    2
    92   133   138   am
    93   133   132    1
    94    79    82   ar
    95   144   145    2
    96    86    87    1
    97   126   125    2
    98   121   120    1
    99   132   135    1
   100   132   131    1
   101    90    87    1
   102    90    91    1
   103    85    84   ar
   104    87    88    1
   105    82    84   ar
   106   122   120    1
   107   135   136    1
   108   135   137    1
   109   125   131   am
   110   125   124    1
   111   120   117    1
   112   123   124    1
   113   123   118   am
   114    88    89    2
   115    88    92   am
   116   117   118    1
   117   117   116    1
   118   150   151    1
   119   150   147    1
   120   124   127    1
   121   151   152    1
   122   152   146    1
   123   118   119    2
   124   127   128    1
   125    92    93    1
   126   107   106    2
   127   148   147    1
   128   148   149    2
   129   147   146    1
   130   116   106   am
   131   103   102    2
   132   106   105    1
   133   128   129    1
   134   128   130    1
   135    98    96    1
   136    93    96    1
   137    93    94    1
   138   102   101    1
   139   104   105    1
   140   100    94    1
   141   100   101    2
   142    97    96    1
   143    97    99    1
   144   105   108    1
   145    94    95    2
   146   108   109    1
   147   110   112   ar
   148   110   109   ar
   149   112   114   ar
   150   109   111   ar
   151   114   115    1
   152   114   113   ar
   153   111   113   ar
