@<TRIPOS>MOLECULE
tmp/4yqmA00.pdb
 168 167 0 0 0
SMALL
GASTEIGER

@<TRIPOS>ATOM
      1  N         13.2100  -12.2860   32.4800 N.3    25  MET25      -0.1245
      2  CA        13.9650  -13.4650   32.0580 C.3    25  MET25       0.1570
      3  C         14.1560  -13.2730   30.5640 C.2    25  MET25       0.2261
      4  O         13.1760  -13.1680   29.8250 O.2    25  MET25      -0.2867
      5  CB        13.2730  -14.7900   32.4320 C.3    25  MET25       0.0387
      6  CG        14.2380  -15.9750   32.4630 C.3    25  MET25       0.0595
      7  SD        14.6230  -16.6730   30.8240 S.3    25  MET25      -0.1393
      8  CE        13.1580  -17.6630   30.5320 C.3    25  MET25       0.0692
      9  N         14.6670  -14.7910   27.9480 N.3    27  PHE27      -0.1227
     10  CA        14.0930  -15.6500   26.9180 C.3    27  PHE27       0.1736
     11  C         12.5920  -15.7880   27.0810 C.2    27  PHE27       0.2596
     12  O         11.9530  -16.4720   26.2870 O.2    27  PHE27      -0.2718
     13  CB        14.7780  -17.0300   26.9150 C.3    27  PHE27       0.0547
     14  CG        16.2570  -16.9690   26.6160 C.ar   27  PHE27      -0.0202
     15  CD1       16.7150  -16.8390   25.3090 C.ar   27  PHE27      -0.0042
     16  CD2       17.1950  -17.0380   27.6430 C.ar   27  PHE27      -0.0042
     17  CE1       18.0900  -16.7840   25.0340 C.ar   27  PHE27      -0.0003
     18  CE2       18.5680  -16.9900   27.3660 C.ar   27  PHE27      -0.0003
     19  CZ        19.0050  -16.8610   26.0640 C.ar   27  PHE27      -0.0000
     20  N         12.0200  -15.0960   28.0630 N.am   28  CYS28      -0.1957
     21  CA        10.5910  -15.1290   28.2980 C.3    28  CYS28       0.1828
     22  C          9.8380  -14.2150   27.2950 C.2    28  CYS28       0.2467
     23  O         10.0260  -12.9920   27.3250 O.2    28  CYS28      -0.2730
     24  CB        10.2750  -14.7600   29.7420 C.3    28  CYS28       0.0996
     25  SG         8.5100  -14.6670   30.0940 S.3    28  CYS28      -0.0797
     26  N          8.9710  -14.7950   26.4210 N.am   29  PRO29      -0.2715
     27  CA         8.2210  -13.9640   25.4560 C.3    29  PRO29       0.1536
     28  C          7.1900  -13.0320   26.1250 C.2    29  PRO29       0.2598
     29  O          6.9380  -11.9350   25.6020 O.2    29  PRO29      -0.2715
     30  CB         7.5390  -14.9970   24.5480 C.3    29  PRO29       0.0310
     31  CG         7.4410  -16.2460   25.3770 C.3    29  PRO29       0.0237
     32  CD         8.6600  -16.2330   26.2540 C.3    29  PRO29       0.0939
     33  N          6.6050  -13.4460   27.2720 N.am   30  PHE30      -0.1974
     34  CA         5.6480  -12.6110   28.0150 C.3    30  PHE30       0.1639
     35  C          6.3580  -11.3820   28.6180 C.2    30  PHE30       0.2290
     36  O          5.8360  -10.2770   28.5270 O.2    30  PHE30      -0.2864
     37  CB         4.9230  -13.4060   29.1200 C.3    30  PHE30       0.0560
     38  CG         4.0090  -14.5080   28.6390 C.ar   30  PHE30      -0.0200
     39  CD1        2.7210  -14.2230   28.1960 C.ar   30  PHE30      -0.0042
     40  CD2        4.4230  -15.8350   28.6610 C.ar   30  PHE30      -0.0042
     41  CE1        1.8590  -15.2470   27.7820 C.ar   30  PHE30      -0.0003
     42  CE2        3.5670  -16.8600   28.2340 C.ar   30  PHE30      -0.0003
     43  CZ         2.2900  -16.5610   27.7990 C.ar   30  PHE30      -0.0000
     44  N         13.9130  -19.0180   36.4730 N.3    52  LEU52      -0.1245
     45  CA        12.5810  -19.6060   36.5650 C.3    52  LEU52       0.1561
     46  C         12.5790  -21.1190   36.8890 C.2    52  LEU52       0.2260
     47  O         11.5380  -21.6320   37.3020 O.2    52  LEU52      -0.2867
     48  CB        11.7730  -19.3110   35.2840 C.3    52  LEU52       0.0270
     49  CG        11.5360  -17.8200   34.9630 C.3    52  LEU52       0.0019
     50  CD1       10.8920  -17.6440   33.5840 C.3    52  LEU52       0.0001
     51  CD2       10.6960  -17.1270   36.0430 C.3    52  LEU52       0.0001
     52  N          5.6540  -15.4140   38.6290 N.3    67  LEU67      -0.1231
     53  CA         6.0010  -15.3080   37.2150 C.3    67  LEU67       0.1693
     54  C          6.5580  -13.9440   36.8320 C.2    67  LEU67       0.2591
     55  O          6.2000  -12.9200   37.4310 O.2    67  LEU67      -0.2718
     56  CB         4.7600  -15.5820   36.3280 C.3    67  LEU67       0.0284
     57  CG         3.9870  -16.8960   36.5090 C.3    67  LEU67       0.0019
     58  CD1        2.6800  -16.8450   35.7570 C.3    67  LEU67       0.0001
     59  CD2        4.7950  -18.1000   36.0350 C.3    67  LEU67       0.0001
     60  N          7.4110  -13.9410   35.7940 N.am   68  VAL68      -0.1980
     61  CA         7.9400  -12.7320   35.1580 C.3    68  VAL68       0.1595
     62  C          6.9730  -12.4140   34.0050 C.2    68  VAL68       0.2287
     63  O          6.4120  -13.3480   33.4390 O.2    68  VAL68      -0.2864
     64  CB         9.4220  -12.8350   34.6810 C.3    68  VAL68       0.0276
     65  CG1       10.3810  -13.0060   35.8490 C.3    68  VAL68       0.0022
     66  CG2        9.6250  -13.9250   33.6230 C.3    68  VAL68       0.0022
     67  N          0.1180  -18.9280   22.3740 N.3   120  PRO120     -0.2102
     68  CA         1.1930  -19.3520   23.2870 C.3   120  PRO120      0.1504
     69  C          1.0820  -20.8080   23.7490 C.2   120  PRO120      0.2576
     70  O          2.1030  -21.4940   23.7610 O.2   120  PRO120     -0.2718
     71  CB         1.0560  -18.3760   24.4610 C.3   120  PRO120      0.0282
     72  CG         0.4680  -17.1670   23.8550 C.3   120  PRO120      0.0208
     73  CD        -0.5490  -17.7200   22.9070 C.3   120  PRO120      0.0893
     74  N         -0.1430  -21.2990   24.0730 N.am  121  SER121     -0.1953
     75  CA        -0.3480  -22.7010   24.4790 C.3   121  SER121      0.1924
     76  C         -0.0420  -23.6460   23.3220 C.2   121  SER121      0.2314
     77  O          0.4610  -24.7380   23.5640 O.2   121  SER121     -0.2863
     78  CB        -1.7600  -22.9460   25.0080 C.3   121  SER121      0.2116
     79  OG        -2.7550  -22.6660   24.0340 O.3   121  SER121     -0.2180
     80  N          2.2710  -22.9980   20.8970 N.3   123  VAL123     -0.1231
     81  CA         3.7400  -22.9350   20.7850 C.3   123  VAL123      0.1692
     82  C          4.3410  -23.8950   21.8480 C.2   123  VAL123      0.2592
     83  O          5.3050  -24.6110   21.5570 O.2   123  VAL123     -0.2718
     84  CB         4.2380  -21.4610   20.9220 C.3   123  VAL123      0.0266
     85  CG1        5.7360  -21.3740   21.2030 C.3   123  VAL123      0.0020
     86  CG2        3.8790  -20.6470   19.6810 C.3   123  VAL123      0.0020
     87  N          3.6990  -23.9460   23.0210 N.am  124  GLY124     -0.1957
     88  CA         4.0570  -24.8310   24.1260 C.3   124  GLY124      0.1869
     89  C          3.8620  -26.3010   23.8240 C.2   124  GLY124      0.2309
     90  O          4.6780  -27.1270   24.2360 O.2   124  GLY124     -0.2863
     91  N          6.5530  -27.4190   21.1840 N.3   127  ILE127     -0.1231
     92  CA         7.8680  -27.5480   21.8080 C.3   127  ILE127      0.1692
     93  C          7.9400  -28.8920   22.5490 C.2   127  ILE127      0.2591
     94  O          8.8060  -29.7070   22.2240 O.2   127  ILE127     -0.2718
     95  CB         8.1750  -26.2910   22.6870 C.3   127  ILE127      0.0266
     96  CG1        8.5460  -25.0850   21.7890 C.3   127  ILE127      0.0019
     97  CG2        9.2620  -26.5240   23.7410 C.3   127  ILE127      0.0020
     98  CD1        9.3600  -25.4440   20.4720 C.3   127  ILE127      0.0001
     99  N          6.9880  -29.1520   23.4640 N.am  128  ARG128     -0.1980
    100  CA         6.9040  -30.4140   24.2070 C.3   128  ARG128      0.1597
    101  C          6.2420  -31.4680   23.3070 C.2   128  ARG128      0.2287
    102  O          5.0180  -31.6270   23.3370 O.2   128  ARG128     -0.2864
    103  CB         6.1270  -30.2230   25.5250 C.3   128  ARG128      0.0334
    104  CG         6.6720  -29.1180   26.4140 C.3   128  ARG128      0.0492
    105  CD         5.5970  -28.5580   27.3160 C.3   128  ARG128      0.2205
    106  NE         6.0470  -27.3480   28.0030 N.pl3 128  ARG128     -0.0865
    107  CZ         5.3350  -26.2290   28.1040 C.cat 128  ARG128      0.5346
    108  NH1        4.1230  -26.1510   27.5650 N.pl3 128  ARG128      0.1354
    109  NH2        5.8250  -25.1820   28.7540 N.pl3 128  ARG128      0.1354
    110  N          5.8780  -14.1530   19.9750 N.3   176  TRP176     -0.1241
    111  CA         5.5920  -15.5140   19.5180 C.3   176  TRP176      0.1605
    112  C          5.8790  -15.6630   18.0350 C.2   176  TRP176      0.2264
    113  O          6.3310  -16.7310   17.6310 O.2   176  TRP176     -0.2867
    114  CB         4.1620  -15.9310   19.8640 C.3   176  TRP176      0.0550
    115  CG         4.0130  -16.1690   21.3340 C.ar  176  TRP176      0.0003
    116  CD1        4.1750  -17.3550   21.9890 C.ar  176  TRP176      0.0946
    117  CD2        3.8720  -15.1680   22.3490 C.ar  176  TRP176      0.0152
    118  NE1        4.0670  -17.1640   23.3460 N.ar  176  TRP176     -0.2442
    119  CE2        3.8920  -15.8300   23.5970 C.ar  176  TRP176      0.0810
    120  CE3        3.7150  -13.7730   22.3260 C.ar  176  TRP176      0.0012
    121  CZ2        3.7400  -15.1500   24.8090 C.ar  176  TRP176      0.0191
    122  CZ3        3.5770  -13.0960   23.5310 C.ar  176  TRP176      0.0001
    123  CH2        3.5630  -13.7850   24.7520 C.ar  176  TRP176      0.0015
    124  N         17.7850  -18.9060   20.8850 N.3   218  TRP218     -0.1241
    125  CA        16.4800  -19.4580   21.2400 C.3   218  TRP218      0.1605
    126  C         16.5540  -20.9910   21.2390 C.2   218  TRP218      0.2264
    127  O         16.0530  -21.6190   22.1680 O.2   218  TRP218     -0.2867
    128  CB        15.3670  -18.9420   20.3010 C.3   218  TRP218      0.0550
    129  CG        13.9960  -19.4760   20.6260 C.ar  218  TRP218      0.0003
    130  CD1       13.2360  -20.3040   19.8490 C.ar  218  TRP218      0.0946
    131  CD2       13.2560  -19.2750   21.8430 C.ar  218  TRP218      0.0152
    132  NE1       12.0490  -20.5960   20.4850 N.ar  218  TRP218     -0.2442
    133  CE2       12.0430  -19.9940   21.7200 C.ar  218  TRP218      0.0810
    134  CE3       13.5000  -18.5590   23.0270 C.ar  218  TRP218      0.0012
    135  CZ2       11.0720  -20.0110   22.7370 C.ar  218  TRP218      0.0191
    136  CZ3       12.5400  -18.5760   24.0300 C.ar  218  TRP218      0.0001
    137  CH2       11.3490  -19.3070   23.8880 C.ar  218  TRP218      0.0015
    138  N         18.5690  -22.0910   24.3180 N.3   221  PHE221     -0.1227
    139  CA        17.8020  -21.9270   25.5500 C.3   221  PHE221      0.1736
    140  C         16.7730  -23.0470   25.6690 C.2   221  PHE221      0.2595
    141  O         16.6630  -23.6580   26.7300 O.2   221  PHE221     -0.2718
    142  CB        17.1110  -20.5410   25.6310 C.3   221  PHE221      0.0547
    143  CG        15.9040  -20.5240   26.5490 C.ar  221  PHE221     -0.0202
    144  CD1       16.0580  -20.4710   27.9300 C.ar  221  PHE221     -0.0042
    145  CD2       14.6150  -20.6320   26.0350 C.ar  221  PHE221     -0.0042
    146  CE1       14.9440  -20.5100   28.7790 C.ar  221  PHE221     -0.0003
    147  CE2       13.5050  -20.6800   26.8860 C.ar  221  PHE221     -0.0003
    148  CZ        13.6780  -20.6150   28.2510 C.ar  221  PHE221     -0.0000
    149  N         16.0060  -23.2860   24.5880 N.am  222  LEU222     -0.1980
    150  CA        14.9440  -24.2890   24.5140 C.3   222  LEU222      0.1596
    151  C         15.4760  -25.6950   24.7500 C.2   222  LEU222      0.2287
    152  O         14.8030  -26.4910   25.4080 O.2   222  LEU222     -0.2864
    153  CB        14.2260  -24.2030   23.1620 C.3   222  LEU222      0.0297
    154  CG        12.6950  -24.0990   23.1890 C.3   222  LEU222      0.0022
    155  CD1       12.1910  -23.1360   24.2610 C.3   222  LEU222      0.0001
    156  CD2       12.1720  -23.6710   21.8410 C.3   222  LEU222      0.0001
    157  N         16.0290  -25.8440   28.3740 N.3   225  TYR225     -0.1241
    158  CA        14.6780  -25.7730   28.9290 C.3   225  TYR225      0.1605
    159  C         14.0150  -27.1630   28.8950 C.2   225  TYR225      0.2264
    160  O         13.4060  -27.5630   29.8900 O.2   225  TYR225     -0.2867
    161  CB        13.8470  -24.7450   28.1390 C.3   225  TYR225      0.0534
    162  CG        12.3940  -24.6260   28.5430 C.ar  225  TYR225     -0.0201
    163  CD1       12.0070  -23.7890   29.5850 C.ar  225  TYR225     -0.0009
    164  CD2       11.3940  -25.2720   27.8220 C.ar  225  TYR225     -0.0009
    165  CE1       10.6650  -23.6370   29.9330 C.ar  225  TYR225      0.0417
    166  CE2       10.0480  -25.1350   28.1660 C.ar  225  TYR225      0.0417
    167  CZ         9.6890  -24.3120   29.2190 C.ar  225  TYR225      0.1957
    168  OH         8.3670  -24.1700   29.5620 O.3   225  TYR225     -0.2866
@<TRIPOS>BOND
     1   113   112    2
     2   112   111    1
     3   111   114    1
     4   111   110    1
     5    86    84    1
     6   130   132   ar
     7   130   129   ar
     8   114   115    1
     9   128   129    1
    10   128   125    1
    11    98    96    1
    12   132   133   ar
    13   129   131   ar
    14    81    80    1
    15    81    84    1
    16    81    82    1
    17   124   125    1
    18    84    85    1
    19    91    92    1
    20   126   125    1
    21   126   127    2
    22   115   116   ar
    23   115   117   ar
    24    83    82    2
    25   133   131   ar
    26   133   135   ar
    27    96    95    1
    28    92    93    1
    29    92    95    1
    30   156   154    1
    31   131   134   ar
    32    82    87   am
    33   116   118   ar
    34    94    93    2
    35   120   117   ar
    36   120   122   ar
    37   117   119   ar
    38    67    73    1
    39    67    68    1
    40    93    99   am
    41    95    97    1
    42   135   137   ar
    43    73    72    1
    44    87    88    1
    45   134   136   ar
    46   153   154    1
    47   153   150    1
    48   154   155    1
    49    68    69    1
    50    68    71    1
    51   101   102    2
    52   101   100    1
    53    76    77    2
    54    76    75    1
    55   118   119   ar
    56    99   100    1
    57   122   123   ar
    58   119   121   ar
    59    69    70    2
    60    69    74   am
    61    89    88    1
    62    89    90    2
    63    72    71    1
    64   137   136   ar
    65    79    78    1
    66    74    75    1
    67   100   103    1
    68   138   139    1
    69    75    78    1
    70   150   149    1
    71   150   151    1
    72    30    31    1
    73    30    27    1
    74   149   140   am
    75   151   152    2
    76   123   121   ar
    77    17    15   ar
    78    17    19   ar
    79    15    14   ar
    80    31    32    1
    81    27    28    1
    82    27    26    1
    83   103   104    1
    84   139   142    1
    85   139   140    1
    86    29    28    2
    87   142   143    1
    88   140   141    2
    89   145   143   ar
    90   145   147   ar
    91    19    18   ar
    92    28    33   am
    93    32    26    1
    94    12    11    2
    95   104   105    1
    96    26    22   am
    97   143   144   ar
    98    14    13    1
    99    14    16   ar
   100   147   148   ar
   101    13    10    1
   102    10    11    1
   103    10     9    1
   104    11    20   am
   105    33    34    1
   106    22    23    2
   107    22    21    1
   108   105   106    1
   109    18    16   ar
   110   108   107    1
   111    41    43   ar
   112    41    39   ar
   113    43    42   ar
   114   164   166   ar
   115   164   162   ar
   116   144   146   ar
   117   106   107    2
   118    34    35    1
   119    34    37    1
   120    20    21    1
   121   107   109    1
   122   161   162    1
   123   161   158    1
   124   166   167   ar
   125    39    38   ar
   126    42    40   ar
   127   148   146   ar
   128    21    24    1
   129   157   158    1
   130    36    35    2
   131   162   163   ar
   132    38    40   ar
   133    38    37    1
   134   159   158    1
   135   159   160    2
   136   167   168    1
   137   167   165   ar
   138   163   165   ar
   139    24    25    1
   140     4     3    2
   141     8     7    1
   142     3     2    1
   143     7     6    1
   144     2     5    1
   145     2     1    1
   146     5     6    1
   147    63    62    2
   148    50    49    1
   149    66    64    1
   150    62    61    1
   151    64    61    1
   152    64    65    1
   153    49    48    1
   154    49    51    1
   155    61    60    1
   156    48    45    1
   157    58    57    1
   158    60    54   am
   159    59    57    1
   160    56    57    1
   161    56    53    1
   162    44    45    1
   163    45    46    1
   164    54    53    1
   165    54    55    2
   166    46    47    2
   167    53    52    1
