@<TRIPOS>MOLECULE
tmp/4yqnA00.pdb
 163 165 0 0 0
SMALL
GASTEIGER

@<TRIPOS>ATOM
      1  N        -27.7730   36.8780  -13.7080 N.3    89  TYR89      -0.1227
      2  CA       -26.3680   37.2900  -13.7470 C.3    89  TYR89       0.1736
      3  C        -26.0540   38.1690  -12.5390 C.2    89  TYR89       0.2595
      4  O        -26.7300   39.1610  -12.3030 O.2    89  TYR89      -0.2718
      5  CB       -26.0750   38.0770  -15.0190 C.3    89  TYR89       0.0548
      6  CG       -24.6500   38.6090  -15.1000 C.ar   89  TYR89      -0.0200
      7  CD1      -23.5600   37.7860  -14.8290 C.ar   89  TYR89      -0.0009
      8  CD2      -24.4000   39.9240  -15.4550 C.ar   89  TYR89      -0.0009
      9  CE1      -22.2770   38.2620  -14.9040 C.ar   89  TYR89       0.0417
     10  CE2      -23.1090   40.4090  -15.5340 C.ar   89  TYR89       0.0417
     11  CZ       -22.0590   39.5760  -15.2560 C.ar   89  TYR89       0.1957
     12  OH       -20.7890   40.0600  -15.3400 O.3    89  TYR89      -0.2866
     13  N        -25.0380   37.8090  -11.7640 N.am   90  LEU90      -0.1966
     14  CA       -24.6930   38.6010  -10.5780 C.3    90  LEU90       0.1728
     15  C        -23.6890   39.7030  -10.9250 C.2    90  LEU90       0.2617
     16  O        -22.6080   39.4150  -11.4360 O.2    90  LEU90      -0.2715
     17  CB       -24.1100   37.7090   -9.4820 C.3    90  LEU90       0.0311
     18  CG       -24.9960   36.7080   -8.7230 C.3    90  LEU90       0.0022
     19  CD1      -26.1850   37.4280   -8.1340 C.3    90  LEU90       0.0001
     20  CD2      -25.4410   35.5290   -9.5980 C.3    90  LEU90       0.0001
     21  N        -24.0440   40.9530  -10.6400 N.am   91  SER91      -0.1936
     22  CA       -23.1440   42.0840  -10.8820 C.3    91  SER91       0.2040
     23  C        -23.5900   43.3510  -10.1430 C.2    91  SER91       0.2485
     24  O        -24.7600   43.4820   -9.7950 O.2    91  SER91      -0.2729
     25  CB       -23.0310   42.3840  -12.3820 C.3    91  SER91       0.2129
     26  OG       -23.9450   43.3980  -12.7480 O.3    91  SER91      -0.2179
     27  N        -22.6570   44.2950   -9.9170 N.am   92  PRO92      -0.2715
     28  CA       -23.0230   45.5800   -9.3010 C.3    92  PRO92       0.1536
     29  C        -24.0140   46.4060  -10.1330 C.2    92  PRO92       0.2598
     30  O        -24.6270   47.3330   -9.6020 O.2    92  PRO92      -0.2715
     31  CB       -21.6780   46.3100   -9.1810 C.3    92  PRO92       0.0310
     32  CG       -20.6470   45.2090   -9.1500 C.3    92  PRO92       0.0237
     33  CD       -21.1930   44.1590  -10.0860 C.3    92  PRO92       0.0939
     34  N        -24.1920   46.0650  -11.4070 N.am   93  GLN93      -0.1978
     35  CA       -25.1050   46.8210  -12.2640 C.3    93  GLN93       0.1601
     36  C        -26.5160   46.2750  -12.1640 C.2    93  GLN93       0.2287
     37  O        -27.4250   46.7580  -12.8330 O.2    93  GLN93      -0.2864
     38  CB       -24.6580   46.7690  -13.7270 C.3    93  GLN93       0.0394
     39  CG       -23.5010   47.6990  -14.0620 C.3    93  GLN93       0.0908
     40  CD       -22.1830   47.2180  -13.4970 C.2    93  GLN93       0.2608
     41  OE1      -21.4770   47.9640  -12.8170 O.2    93  GLN93      -0.2717
     42  NE2      -21.8330   45.9640  -13.7890 N.am   93  GLN93      -0.0878
     43  N        -19.7320   35.9060  -13.1800 N.3   116  GLY116     -0.1210
     44  CA       -18.6930   36.4950  -14.0110 C.3   116  GLY116      0.1956
     45  C        -17.3440   36.5140  -13.3000 C.2   116  GLY116      0.2612
     46  O        -17.2960   36.5280  -12.0720 O.2   116  GLY116     -0.2717
     47  N        -16.2560   36.4890  -14.0740 N.am  117  ARG117     -0.1965
     48  CA       -14.9030   36.6990  -13.5570 C.3   117  ARG117      0.1729
     49  C        -14.2250   37.7250  -14.4590 C.2   117  ARG117      0.2616
     50  O        -14.8310   38.1730  -15.4230 O.2   117  ARG117     -0.2715
     51  CB       -14.1000   35.3830  -13.5080 C.3   117  ARG117      0.0348
     52  CG       -14.4250   34.4840  -12.2900 C.3   117  ARG117      0.0492
     53  CD       -13.4940   34.7630  -11.1120 C.3   117  ARG117      0.2205
     54  NE       -14.0970   34.3750   -9.8330 N.pl3 117  ARG117     -0.0865
     55  CZ       -13.4590   34.3680   -8.6670 C.cat 117  ARG117      0.5346
     56  NH1      -12.1750   34.7100   -8.6050 N.pl3 117  ARG117      0.1354
     57  NH2      -14.1000   34.0030   -7.5570 N.pl3 117  ARG117      0.1354
     58  N        -12.9800   38.0900  -14.1530 N.am  118  TYR118     -0.1960
     59  CA       -12.2580   39.1320  -14.8950 C.3   118  TYR118      0.1771
     60  C        -13.0520   40.4420  -14.8920 C.2   118  TYR118      0.2619
     61  O        -13.5890   40.8160  -13.8560 O.2   118  TYR118     -0.2715
     62  CB       -11.9190   38.6660  -16.3180 C.3   118  TYR118      0.0574
     63  CG       -11.4220   37.2370  -16.3490 C.ar  118  TYR118     -0.0198
     64  CD1      -10.2390   36.8810  -15.7170 C.ar  118  TYR118     -0.0009
     65  CD2      -12.1620   36.2360  -16.9630 C.ar  118  TYR118     -0.0009
     66  CE1       -9.7910   35.5700  -15.7250 C.ar  118  TYR118      0.0417
     67  CE2      -11.7250   34.9250  -16.9740 C.ar  118  TYR118      0.0417
     68  CZ       -10.5430   34.6000  -16.3590 C.ar  118  TYR118      0.1957
     69  OH       -10.1140   33.3000  -16.3730 O.3   118  TYR118     -0.2866
     70  N        -13.1480   41.1270  -16.0360 N.am  119  GLU119     -0.1963
     71  CA       -13.8710   42.4020  -16.0820 C.3   119  GLU119      0.1733
     72  C        -15.3530   42.2440  -16.4200 C.2   119  GLU119      0.2616
     73  O        -16.0560   43.2310  -16.6080 O.2   119  GLU119     -0.2715
     74  CB       -13.2290   43.4010  -17.0620 C.3   119  GLU119      0.0429
     75  CG       -11.7570   43.7020  -16.8100 C.3   119  GLU119      0.1163
     76  CD       -11.4590   44.0950  -15.3730 C.2   119  GLU119      0.3649
     77  OE1      -12.2790   44.8110  -14.7540 O.co2 119  GLU119     -0.2457
     78  OE2      -10.3970   43.6810  -14.8610 O.co2 119  GLU119     -0.2457
     79  N        -15.8270   41.0060  -16.4970 N.am  120  GLY120     -0.1955
     80  CA       -17.2390   40.7630  -16.7370 C.3   120  GLY120      0.1869
     81  C        -17.4960   39.8990  -17.9580 C.2   120  GLY120      0.2309
     82  O        -16.6210   39.1570  -18.4000 O.2   120  GLY120     -0.2863
     83  N        -28.8570   40.9490  -10.9170 N.3   134  TRP134     -0.1227
     84  CA       -29.0010   41.2920   -9.4940 C.3   134  TRP134      0.1737
     85  C        -27.6530   41.6060   -8.8580 C.2   134  TRP134      0.2596
     86  O        -26.6320   41.0310   -9.2350 O.2   134  TRP134     -0.2718
     87  CB       -29.6440   40.1480   -8.7090 C.3   134  TRP134      0.0564
     88  CG       -31.1120   39.9390   -8.9500 C.ar  134  TRP134      0.0003
     89  CD1      -31.6830   39.2950  -10.0070 C.ar  134  TRP134      0.0946
     90  CD2      -32.1930   40.3430   -8.0940 C.ar  134  TRP134      0.0152
     91  NE1      -33.0550   39.2830   -9.8680 N.ar  134  TRP134     -0.2442
     92  CE2      -33.3910   39.9260   -8.7050 C.ar  134  TRP134      0.0810
     93  CE3      -32.2600   41.0320   -6.8770 C.ar  134  TRP134      0.0012
     94  CZ2      -34.6440   40.1650   -8.1400 C.ar  134  TRP134      0.0191
     95  CZ3      -33.4990   41.2690   -6.3140 C.ar  134  TRP134      0.0001
     96  CH2      -34.6770   40.8310   -6.9430 C.ar  134  TRP134      0.0015
     97  N        -27.6630   42.5080   -7.8840 N.am  135  SER135     -0.1938
     98  CA       -26.4850   42.8270   -7.0900 C.3   135  SER135      0.2055
     99  C        -26.7770   42.5630   -5.6280 C.2   135  SER135      0.2643
    100  O        -27.8810   42.8460   -5.1600 O.2   135  SER135     -0.2714
    101  CB       -26.1340   44.3050   -7.2450 C.3   135  SER135      0.2130
    102  OG       -25.2060   44.7190   -6.2570 O.3   135  SER135     -0.2179
    103  N        -25.7880   42.0570   -4.8930 N.am  136  ILE136     -0.1963
    104  CA       -25.9800   41.8320   -3.4630 C.3   136  ILE136      0.1727
    105  C        -25.6250   43.0700   -2.6450 C.2   136  ILE136      0.2616
    106  O        -25.8220   43.0990   -1.4320 O.2   136  ILE136     -0.2715
    107  CB       -25.2130   40.5930   -2.9400 C.3   136  ILE136      0.0290
    108  CG1      -23.6980   40.7990   -3.0350 C.3   136  ILE136      0.0022
    109  CG2      -25.6560   39.3420   -3.7050 C.3   136  ILE136      0.0023
    110  CD1      -22.9010   39.9130   -2.0840 C.3   136  ILE136      0.0001
    111  N        -25.1200   44.0970   -3.3170 N.am  137  GLY137     -0.1955
    112  CA       -24.7480   45.3340   -2.6440 C.3   137  GLY137      0.1869
    113  C        -23.8390   46.1780   -3.5230 C.2   137  GLY137      0.2309
    114  O        -23.2950   45.6730   -4.5040 O.2   137  GLY137     -0.2863
    115  N        -20.8110   47.2400   -4.0210 N.3   139  TYR139     -0.1227
    116  CA       -19.3800   47.0570   -3.8880 C.3   139  TYR139      0.1736
    117  C        -18.9570   46.0760   -4.9640 C.2   139  TYR139      0.2595
    118  O        -19.7780   45.3030   -5.4680 O.2   139  TYR139     -0.2718
    119  CB       -19.0150   46.5390   -2.4880 C.3   139  TYR139      0.0548
    120  CG       -20.0070   45.5460   -1.9170 C.ar  139  TYR139     -0.0200
    121  CD1      -19.9610   44.2040   -2.2800 C.ar  139  TYR139     -0.0009
    122  CD2      -20.9900   45.9490   -1.0230 C.ar  139  TYR139     -0.0009
    123  CE1      -20.8610   43.2950   -1.7750 C.ar  139  TYR139      0.0417
    124  CE2      -21.9020   45.0360   -0.5020 C.ar  139  TYR139      0.0417
    125  CZ       -21.8270   43.7110   -0.8800 C.ar  139  TYR139      0.1957
    126  OH       -22.7200   42.7930   -0.3810 O.3   139  TYR139     -0.2866
    127  N        -17.6750   46.1150   -5.3050 N.am  140  VAL140     -0.1966
    128  CA       -17.1060   45.3300   -6.3860 C.3   140  VAL140      0.1727
    129  C        -16.2960   44.1640   -5.8350 C.2   140  VAL140      0.2616
    130  O        -15.4920   44.3390   -4.9150 O.2   140  VAL140     -0.2715
    131  CB       -16.1910   46.2120   -7.2560 C.3   140  VAL140      0.0290
    132  CG1      -15.5460   45.3960   -8.3630 C.3   140  VAL140      0.0023
    133  CG2      -16.9880   47.3960   -7.8350 C.3   140  VAL140      0.0023
    134  N        -16.5120   42.9750   -6.3930 N.am  141  LEU141     -0.1963
    135  CA       -15.8120   41.7730   -5.9400 C.3   141  LEU141      0.1728
    136  C        -15.0400   41.1590   -7.1010 C.2   141  LEU141      0.2617
    137  O        -15.2600   41.5320   -8.2560 O.2   141  LEU141     -0.2715
    138  CB       -16.8000   40.7590   -5.3480 C.3   141  LEU141      0.0311
    139  CG       -17.7290   41.2690   -4.2290 C.3   141  LEU141      0.0022
    140  CD1      -18.7380   40.1970   -3.8340 C.3   141  LEU141      0.0001
    141  CD2      -16.9410   41.6950   -3.0090 C.3   141  LEU141      0.0001
    142  N        -14.1330   40.2280   -6.8080 N.am  142  THR142     -0.1937
    143  CA       -13.3280   39.6230   -7.8610 C.3   142  THR142      0.2028
    144  C        -14.1260   38.6470   -8.7400 C.2   142  THR142      0.2643
    145  O        -13.6800   38.2640   -9.8160 O.2   142  THR142     -0.2714
    146  CB       -12.0920   38.9030   -7.2870 C.3   142  THR142      0.1808
    147  OG1      -12.5120   37.8350   -6.4310 O.3   142  THR142     -0.2208
    148  CG2      -11.1830   39.8910   -6.5130 C.3   142  THR142      0.0379
    149  N        -15.3140   38.2590   -8.2890 N.am  143  GLY143     -0.1939
    150  CA       -16.1290   37.3270   -9.0480 C.3   143  GLY143      0.2014
    151  C        -17.5340   37.2030   -8.4890 C.2   143  GLY143      0.2639
    152  O        -17.7980   37.6080   -7.3460 O.2   143  GLY143     -0.2714
    153  N        -18.4360   36.6430   -9.2940 N.am  144  GLY144     -0.1954
    154  CA       -19.8370   36.5490   -8.9130 C.3   144  GLY144      0.1869
    155  C        -20.1740   35.3470   -8.0390 C.2   144  GLY144      0.2309
    156  O        -21.3300   35.1610   -7.6710 O.2   144  GLY144     -0.2863
    157  N        -21.4050   36.4250   -4.4420 N.3   147  PRO147     -0.2116
    158  CA       -22.8010   36.8750   -4.5510 C.3   147  PRO147      0.1372
    159  C        -23.7840   35.7540   -4.8690 C.2   147  PRO147      0.2244
    160  O        -24.8770   35.7490   -4.3190 O.2   147  PRO147     -0.2868
    161  CB       -22.7450   37.8920   -5.6960 C.3   147  PRO147      0.0268
    162  CG       -21.3760   38.4860   -5.5520 C.3   147  PRO147      0.0207
    163  CD       -20.4980   37.3120   -5.2050 C.3   147  PRO147      0.0892
@<TRIPOS>BOND
     1    82    81    2
     2    81    80    1
     3    74    75    1
     4    74    71    1
     5    67    65   ar
     6    67    68   ar
     7    65    63   ar
     8    75    76    1
     9    80    79    1
    10    73    72    2
    11    79    72   am
    12    72    71    1
    13    69    68    1
    14    68    66   ar
    15    63    62    1
    16    63    64   ar
    17    62    59    1
    18    71    70    1
    19    70    60   am
    20    66    64   ar
    21    10     8   ar
    22    10    11   ar
    23     8     6   ar
    24    50    49    2
    25    76    78   ar
    26    76    77   ar
    27    12    11    1
    28    11     9   ar
    29     6     5    1
    30     6     7   ar
    31     5     2    1
    32     9     7   ar
    33    59    60    1
    34    59    58    1
    35    60    61    2
    36    49    58   am
    37    49    48    1
    38    47    48    1
    39    47    45   am
    40    39    38    1
    41    39    40    1
    42    44    45    1
    43    44    43    1
    44    42    40   am
    45     2     1    1
    46     2     3    1
    47    38    35    1
    48    48    51    1
    49    51    52    1
    50    40    41    2
    51    45    46    2
    52    37    36    2
    53    26    25    1
    54     3     4    2
    55     3    13   am
    56    25    22    1
    57    52    53    1
    58    35    36    1
    59    35    34    1
    60    13    14    1
    61    16    15    2
    62    34    29   am
    63    53    54    1
    64    15    21   am
    65    15    14    1
    66    83    84    1
    67    22    21    1
    68    22    23    1
    69    14    17    1
    70    23    27   am
    71    23    24    2
    72    29    30    2
    73    29    28    1
    74    33    27    1
    75    33    32    1
    76    89    91   ar
    77    89    88   ar
    78    27    28    1
    79    91    92   ar
    80    54    55    2
    81   145   144    2
    82    20    18    1
    83    84    85    1
    84    84    87    1
    85    17    18    1
    86    28    31    1
    87   153   154    1
    88   153   151   am
    89    86    85    2
    90    31    32    1
    91   150   151    1
    92   150   149    1
    93    88    87    1
    94    88    90   ar
    95   154   155    1
    96    85    97   am
    97   144   149   am
    98   144   143    1
    99    18    19    1
   100    92    94   ar
   101    92    90   ar
   102    55    56    1
   103    55    57    1
   104   151   152    2
   105   132   131    1
   106   137   136    2
   107    94    96   ar
   108    90    93   ar
   109   155   156    2
   110    97    98    1
   111   143   146    1
   112   143   142    1
   113   133   131    1
   114   146   148    1
   115   146   147    1
   116   131   128    1
   117   101    98    1
   118   101   102    1
   119   136   142   am
   120   136   135    1
   121    98    99    1
   122    96    95   ar
   123    93    95   ar
   124   134   135    1
   125   134   129   am
   126   128   129    1
   127   128   127    1
   128   135   138    1
   129   129   130    2
   130   161   162    1
   131   161   158    1
   132    99   100    2
   133    99   103   am
   134   162   163    1
   135   118   117    2
   136   138   139    1
   137   127   117   am
   138   163   157    1
   139   117   116    1
   140   103   104    1
   141   159   158    1
   142   159   160    2
   143   158   157    1
   144   114   113    2
   145   139   140    1
   146   139   141    1
   147   115   116    1
   148   116   119    1
   149   109   107    1
   150   113   112    1
   151   104   107    1
   152   104   105    1
   153   111   105   am
   154   111   112    1
   155   108   107    1
   156   108   110    1
   157   105   106    2
   158   119   120    1
   159   121   120   ar
   160   121   123   ar
   161   120   122   ar
   162   123   125   ar
   163   122   124   ar
   164   125   124   ar
   165   125   126    1
