@<TRIPOS>MOLECULE
tmp/4yqoA00.pdb
 163 165 0 0 0
SMALL
GASTEIGER

@<TRIPOS>ATOM
      1  N        -27.7710   36.7470  -13.7040 N.3    94  TYR94      -0.1227
      2  CA       -26.3560   37.1070  -13.7310 C.3    94  TYR94       0.1736
      3  C        -26.1100   38.0180  -12.5420 C.2    94  TYR94       0.2595
      4  O        -26.8620   38.9760  -12.3320 O.2    94  TYR94      -0.2718
      5  CB       -26.0610   37.8940  -15.0010 C.3    94  TYR94       0.0548
      6  CG       -24.6390   38.4230  -15.1300 C.ar   94  TYR94      -0.0200
      7  CD1      -23.5340   37.5980  -14.9180 C.ar   94  TYR94      -0.0009
      8  CD2      -24.4200   39.7150  -15.5630 C.ar   94  TYR94      -0.0009
      9  CE1      -22.2570   38.1010  -15.0960 C.ar   94  TYR94       0.0417
     10  CE2      -23.1540   40.2110  -15.7380 C.ar   94  TYR94       0.0417
     11  CZ       -22.0790   39.4010  -15.4820 C.ar   94  TYR94       0.1957
     12  OH       -20.8040   39.9070  -15.6690 O.3    94  TYR94      -0.2866
     13  N        -25.0830   37.7190  -11.7590 N.am   95  LEU95      -0.1966
     14  CA       -24.7920   38.5640  -10.5970 C.3    95  LEU95       0.1728
     15  C        -23.7640   39.6150  -11.0120 C.2    95  LEU95       0.2617
     16  O        -22.7010   39.2670  -11.5300 O.2    95  LEU95      -0.2715
     17  CB       -24.2360   37.7060   -9.4550 C.3    95  LEU95       0.0311
     18  CG       -25.1380   36.7230   -8.6930 C.3    95  LEU95       0.0022
     19  CD1      -26.4210   37.4070   -8.2460 C.3    95  LEU95       0.0001
     20  CD2      -25.4230   35.4630   -9.5090 C.3    95  LEU95       0.0001
     21  N        -24.0270   40.8790  -10.6840 N.am   96  SER96      -0.1936
     22  CA       -23.0930   41.9340  -11.0530 C.3    96  SER96       0.2040
     23  C        -23.4790   43.2140  -10.3220 C.2    96  SER96       0.2485
     24  O        -24.6110   43.3630   -9.8740 O.2    96  SER96      -0.2729
     25  CB       -23.1010   42.2020  -12.5730 C.3    96  SER96       0.2129
     26  OG       -24.0490   43.2080  -12.8580 O.3    96  SER96      -0.2179
     27  N        -22.5350   44.1530  -10.2200 N.am   97  PRO97      -0.2715
     28  CA       -22.8450   45.4200   -9.5380 C.3    97  PRO97       0.1536
     29  C        -23.8720   46.2650  -10.2930 C.2    97  PRO97       0.2598
     30  O        -24.4730   47.1700   -9.6860 O.2    97  PRO97      -0.2715
     31  CB       -21.4790   46.1120   -9.4230 C.3    97  PRO97       0.0310
     32  CG       -20.4600   45.0260   -9.5530 C.3    97  PRO97       0.0237
     33  CD       -21.0960   43.9800  -10.4890 C.3    97  PRO97       0.0939
     34  N        -24.1140   45.9780  -11.5850 N.am   98  GLN98      -0.1978
     35  CA       -25.1240   46.6760  -12.3720 C.3    98  GLN98       0.1601
     36  C        -26.5140   46.0900  -12.1890 C.2    98  GLN98       0.2287
     37  O        -27.4600   46.5770  -12.8020 O.2    98  GLN98      -0.2864
     38  CB       -24.7710   46.5990  -13.8930 C.3    98  GLN98       0.0394
     39  CG       -23.5990   47.4690  -14.2780 C.3    98  GLN98       0.0908
     40  CD       -22.2960   46.9190  -13.7560 C.2    98  GLN98       0.2608
     41  OE1      -21.9550   45.7530  -14.0110 O.2    98  GLN98      -0.2717
     42  NE2      -21.5700   47.7380  -12.9760 N.am   98  GLN98      -0.0878
     43  N        -19.7690   35.8260  -13.2150 N.3   121  GLY121     -0.1210
     44  CA       -18.8270   36.5340  -14.0550 C.3   121  GLY121      0.1956
     45  C        -17.4810   36.6510  -13.3670 C.2   121  GLY121      0.2612
     46  O        -17.3830   36.7730  -12.1340 O.2   121  GLY121     -0.2717
     47  N        -16.4210   36.5870  -14.1850 N.am  122  ARG122     -0.1965
     48  CA       -15.0700   36.9030  -13.7550 C.3   122  ARG122      0.1729
     49  C        -14.4670   37.8890  -14.7430 C.2   122  ARG122      0.2616
     50  O        -15.1220   38.3130  -15.6820 O.2   122  ARG122     -0.2715
     51  CB       -14.2370   35.6450  -13.5620 C.3   122  ARG122      0.0348
     52  CG       -14.8440   34.8830  -12.3670 C.3   122  ARG122      0.0492
     53  CD       -13.9980   33.8310  -11.9040 C.3   122  ARG122      0.2205
     54  NE       -12.8860   34.3320  -11.0990 N.pl3 122  ARG122     -0.0865
     55  CZ       -12.8720   34.4380   -9.7670 C.cat 122  ARG122      0.5346
     56  NH1      -11.7640   34.8200   -9.1720 N.pl3 122  ARG122      0.1354
     57  NH2      -13.9190   34.1780   -9.0220 N.pl3 122  ARG122      0.1354
     58  N        -13.2270   38.2940  -14.4830 N.am  123  TYR123     -0.1960
     59  CA       -12.5720   39.3090  -15.3470 C.3   123  TYR123      0.1771
     60  C        -13.4180   40.5850  -15.3250 C.2   123  TYR123      0.2619
     61  O        -13.9990   40.9270  -14.2740 O.2   123  TYR123     -0.2715
     62  CB       -12.2840   38.7650  -16.7780 C.3   123  TYR123      0.0574
     63  CG       -11.7420   37.3660  -16.7590 C.ar  123  TYR123     -0.0198
     64  CD1      -10.4500   37.1050  -16.3310 C.ar  123  TYR123     -0.0009
     65  CD2      -12.5280   36.2980  -17.1620 C.ar  123  TYR123     -0.0009
     66  CE1       -9.9590   35.8100  -16.2800 C.ar  123  TYR123      0.0417
     67  CE2      -12.0400   35.0170  -17.0930 C.ar  123  TYR123      0.0417
     68  CZ       -10.7780   34.7800  -16.6750 C.ar  123  TYR123      0.1957
     69  OH       -10.3640   33.4850  -16.5930 O.3   123  TYR123     -0.2866
     70  N        -13.5770   41.2580  -16.4720 N.am  124  GLU124     -0.1963
     71  CA       -14.4580   42.4180  -16.5900 C.3   124  GLU124      0.1733
     72  C        -15.8880   42.0310  -16.9320 C.2   124  GLU124      0.2616
     73  O        -16.6810   42.8990  -17.3150 O.2   124  GLU124     -0.2715
     74  CB       -13.8870   43.5360  -17.4810 C.3   124  GLU124      0.0429
     75  CG       -12.5440   44.0450  -16.9860 C.3   124  GLU124      0.1163
     76  CD       -12.5880   44.4400  -15.5010 C.2   124  GLU124      0.3649
     77  OE1      -13.6340   44.9600  -15.0380 O.co2 124  GLU124     -0.2457
     78  OE2      -11.5910   44.2030  -14.7890 O.co2 124  GLU124     -0.2457
     79  N        -16.2110   40.7500  -16.8400 N.am  125  GLY125     -0.1955
     80  CA       -17.5750   40.2900  -16.9870 C.3   125  GLY125      0.1869
     81  C        -17.8480   39.6820  -18.3470 C.2   125  GLY125      0.2309
     82  O        -16.9770   39.0800  -18.9800 O.2   125  GLY125     -0.2863
     83  N        -28.8680   40.8050  -10.8990 N.3   139  TRP139     -0.1227
     84  CA       -29.0190   41.2110   -9.5000 C.3   139  TRP139      0.1737
     85  C        -27.6580   41.5100   -8.9060 C.2   139  TRP139      0.2596
     86  O        -26.6750   40.8720   -9.2640 O.2   139  TRP139     -0.2718
     87  CB       -29.5720   40.0690   -8.6890 C.3   139  TRP139      0.0564
     88  CG       -31.0190   39.8400   -8.9620 C.ar  139  TRP139      0.0003
     89  CD1      -31.5670   39.1590  -10.0280 C.ar  139  TRP139      0.0946
     90  CD2      -32.1220   40.2890   -8.1630 C.ar  139  TRP139      0.0152
     91  NE1      -32.9520   39.1370   -9.9030 N.ar  139  TRP139     -0.2442
     92  CE2      -33.3070   39.8450   -8.7820 C.ar  139  TRP139      0.0810
     93  CE3      -32.2190   41.0450   -6.9900 C.ar  139  TRP139      0.0012
     94  CZ2      -34.5710   40.1000   -8.2440 C.ar  139  TRP139      0.0191
     95  CZ3      -33.4640   41.2980   -6.4650 C.ar  139  TRP139      0.0001
     96  CH2      -34.6260   40.8180   -7.0860 C.ar  139  TRP139      0.0015
     97  N        -27.6290   42.4470   -7.9600 N.am  140  SER140     -0.1938
     98  CA       -26.4310   42.7650   -7.1830 C.3   140  SER140      0.2055
     99  C        -26.6600   42.4060   -5.7210 C.2   140  SER140      0.2643
    100  O        -27.7310   42.6770   -5.1740 O.2   140  SER140     -0.2714
    101  CB       -26.1820   44.2730   -7.2220 C.3   140  SER140      0.2130
    102  OG       -25.1690   44.6290   -6.2910 O.3   140  SER140     -0.2179
    103  N        -25.6340   41.8370   -5.0660 N.am  141  ILE141     -0.1963
    104  CA       -25.7820   41.6420   -3.6200 C.3   141  ILE141      0.1727
    105  C        -25.4150   42.8770   -2.8180 C.2   141  ILE141      0.2616
    106  O        -25.6270   42.8980   -1.5850 O.2   141  ILE141     -0.2715
    107  CB       -25.0110   40.4120   -3.1040 C.3   141  ILE141      0.0290
    108  CG1      -23.4860   40.6040   -3.2510 C.3   141  ILE141      0.0022
    109  CG2      -25.5580   39.1820   -3.8020 C.3   141  ILE141      0.0023
    110  CD1      -22.6540   39.8190   -2.1650 C.3   141  ILE141      0.0001
    111  N        -24.9220   43.9230   -3.4480 N.am  142  GLY142     -0.1955
    112  CA       -24.6330   45.1310   -2.6860 C.3   142  GLY142      0.1869
    113  C        -23.7120   46.0260   -3.4730 C.2   142  GLY142      0.2309
    114  O        -23.1110   45.5950   -4.4670 O.2   142  GLY142     -0.2863
    115  N        -20.6910   47.0820   -4.0120 N.3   144  TYR144     -0.1227
    116  CA       -19.2670   46.8420   -3.8270 C.3   144  TYR144      0.1736
    117  C        -18.8700   45.8410   -4.9030 C.2   144  TYR144      0.2595
    118  O        -19.7270   45.1470   -5.4560 O.2   144  TYR144     -0.2718
    119  CB       -18.9180   46.3820   -2.3790 C.3   144  TYR144      0.0548
    120  CG       -19.8950   45.3770   -1.8150 C.ar  144  TYR144     -0.0200
    121  CD1      -19.8070   44.0320   -2.1640 C.ar  144  TYR144     -0.0009
    122  CD2      -20.8560   45.7510   -0.8740 C.ar  144  TYR144     -0.0009
    123  CE1      -20.6710   43.1330   -1.6940 C.ar  144  TYR144      0.0417
    124  CE2      -21.7650   44.8300   -0.3690 C.ar  144  TYR144      0.0417
    125  CZ       -21.6570   43.5230   -0.7500 C.ar  144  TYR144      0.1957
    126  OH       -22.5510   42.6030   -0.2910 O.3   144  TYR144     -0.2866
    127  N        -17.5660   45.7340   -5.1610 N.am  145  VAL145     -0.1966
    128  CA       -17.0530   44.9170   -6.2520 C.3   145  VAL145      0.1727
    129  C        -16.2190   43.7900   -5.6730 C.2   145  VAL145      0.2616
    130  O        -15.3740   44.0200   -4.7840 O.2   145  VAL145     -0.2715
    131  CB       -16.2080   45.7750   -7.2040 C.3   145  VAL145      0.0290
    132  CG1      -15.6660   44.9220   -8.3620 C.3   145  VAL145      0.0023
    133  CG2      -17.0790   46.9120   -7.7200 C.3   145  VAL145      0.0023
    134  N        -16.4730   42.5770   -6.1570 N.am  146  LEU146     -0.1963
    135  CA       -15.7330   41.4090   -5.7470 C.3   146  LEU146      0.1728
    136  C        -14.9260   40.8730   -6.9280 C.2   146  LEU146      0.2617
    137  O        -15.1000   41.2940   -8.0850 O.2   146  LEU146     -0.2715
    138  CB       -16.7090   40.3530   -5.1900 C.3   146  LEU146      0.0311
    139  CG       -17.6200   40.9310   -4.0730 C.3   146  LEU146      0.0022
    140  CD1      -18.6860   39.9220   -3.6850 C.3   146  LEU146      0.0001
    141  CD2      -16.8150   41.3130   -2.8390 C.3   146  LEU146      0.0001
    142  N        -14.0870   39.8760   -6.6510 N.am  147  THR147     -0.1937
    143  CA       -13.2640   39.3180   -7.7270 C.3   147  THR147      0.2028
    144  C        -14.0250   38.3680   -8.6360 C.2   147  THR147      0.2643
    145  O        -13.4930   37.9770   -9.6770 O.2   147  THR147     -0.2714
    146  CB       -12.0530   38.5850   -7.1610 C.3   147  THR147      0.1808
    147  OG1      -12.4680   37.4630   -6.3480 O.3   147  THR147     -0.2208
    148  CG2      -11.2170   39.5550   -6.3690 C.3   147  THR147      0.0379
    149  N        -15.2570   38.0170   -8.2940 N.am  148  GLY148     -0.1939
    150  CA       -16.0590   37.2040   -9.1980 C.3   148  GLY148      0.2014
    151  C        -17.4750   37.1310   -8.6770 C.2   148  GLY148      0.2639
    152  O        -17.7710   37.5630   -7.5560 O.2   148  GLY148     -0.2714
    153  N        -18.3560   36.5970   -9.5230 N.am  149  GLY149     -0.1954
    154  CA       -19.7400   36.4320   -9.0770 C.3   149  GLY149      0.1869
    155  C        -20.0090   35.2060   -8.2040 C.2   149  GLY149      0.2309
    156  O        -21.1650   34.9850   -7.7830 O.2   149  GLY149     -0.2863
    157  N        -21.2370   36.2830   -4.5960 N.3   152  PRO152     -0.2116
    158  CA       -22.6330   36.7260   -4.7030 C.3   152  PRO152      0.1372
    159  C        -23.5930   35.5660   -4.9500 C.2   152  PRO152      0.2244
    160  O        -24.7030   35.5400   -4.4070 O.2   152  PRO152     -0.2868
    161  CB       -22.6000   37.7100   -5.8770 C.3   152  PRO152      0.0268
    162  CG       -21.1550   38.3250   -5.8260 C.3   152  PRO152      0.0207
    163  CD       -20.2930   37.1480   -5.3790 C.3   152  PRO152      0.0892
@<TRIPOS>BOND
     1    82    81    2
     2    81    80    1
     3    74    75    1
     4    74    71    1
     5    73    72    2
     6    65    67   ar
     7    65    63   ar
     8    67    68   ar
     9    80    79    1
    10    75    76    1
    11    72    79   am
    12    72    71    1
    13    62    63    1
    14    62    59    1
    15    63    64   ar
    16    68    69    1
    17    68    66   ar
    18    71    70    1
    19    70    60   am
    20    64    66   ar
    21    10     8   ar
    22    10    11   ar
    23    50    49    2
    24    12    11    1
    25     8     6   ar
    26    76    77   ar
    27    76    78   ar
    28    11     9   ar
    29    59    60    1
    30    59    58    1
    31    60    61    2
    32     6     5    1
    33     6     7   ar
    34     9     7   ar
    35     5     2    1
    36    49    58   am
    37    49    48    1
    38    39    38    1
    39    39    40    1
    40    47    48    1
    41    47    45   am
    42    44    45    1
    43    44    43    1
    44    41    40    2
    45    38    35    1
    46    40    42   am
    47    48    51    1
    48     2     1    1
    49     2     3    1
    50    51    52    1
    51    45    46    2
    52    26    25    1
    53    37    36    2
    54    25    22    1
    55     3     4    2
    56     3    13   am
    57    35    36    1
    58    35    34    1
    59    52    53    1
    60    53    54    1
    61    13    14    1
    62    34    29   am
    63    16    15    2
    64    54    55    2
    65    22    21    1
    66    22    23    1
    67    15    21   am
    68    15    14    1
    69    83    84    1
    70    14    17    1
    71    33    27    1
    72    33    32    1
    73    23    27   am
    74    23    24    2
    75    29    30    2
    76    29    28    1
    77    27    28    1
    78    89    91   ar
    79    89    88   ar
    80    91    92   ar
    81    55    56    1
    82    55    57    1
    83   145   144    2
    84    32    31    1
    85    28    31    1
    86   153   154    1
    87   153   151   am
    88    20    18    1
    89    84    85    1
    90    84    87    1
    91    17    18    1
    92    86    85    2
    93   150   151    1
    94   150   149    1
    95   154   155    1
    96    88    87    1
    97    88    90   ar
    98    85    97   am
    99    92    94   ar
   100    92    90   ar
   101    18    19    1
   102   151   152    2
   103   144   149   am
   104   144   143    1
   105   132   131    1
   106    94    96   ar
   107   155   156    2
   108    90    93   ar
   109   137   136    2
   110    97    98    1
   111   143   146    1
   112   143   142    1
   113   133   131    1
   114   101    98    1
   115   101   102    1
   116   131   128    1
   117    98    99    1
   118   146   148    1
   119   146   147    1
   120    96    95   ar
   121    93    95   ar
   122   136   142   am
   123   136   135    1
   124   128   129    1
   125   128   127    1
   126   134   135    1
   127   134   129   am
   128   161   162    1
   129   161   158    1
   130   162   163    1
   131   135   138    1
   132    99   100    2
   133    99   103   am
   134   129   130    2
   135   118   117    2
   136   163   157    1
   137   138   139    1
   138   127   117   am
   139   103   104    1
   140   159   158    1
   141   159   160    2
   142   117   116    1
   143   158   157    1
   144   114   113    2
   145   139   140    1
   146   139   141    1
   147   115   116    1
   148   116   119    1
   149   109   107    1
   150   104   107    1
   151   104   105    1
   152   113   112    1
   153   111   105   am
   154   111   112    1
   155   108   107    1
   156   108   110    1
   157   105   106    2
   158   119   120    1
   159   121   120   ar
   160   121   123   ar
   161   120   122   ar
   162   123   125   ar
   163   122   124   ar
   164   125   124   ar
   165   125   126    1
