@<TRIPOS>MOLECULE
tmp/4yqpA00.pdb
 163 165 0 0 0
SMALL
GASTEIGER

@<TRIPOS>ATOM
      1  N        -27.8230   37.0200  -13.6560 N.3    89  TYR89      -0.1227
      2  CA       -26.4320   37.4750  -13.6550 C.3    89  TYR89       0.1736
      3  C        -26.1440   38.3380  -12.4370 C.2    89  TYR89       0.2595
      4  O        -26.7720   39.3770  -12.2460 O.2    89  TYR89      -0.2718
      5  CB       -26.1740   38.3090  -14.9050 C.3    89  TYR89       0.0548
      6  CG       -24.7370   38.7470  -15.1120 C.ar   89  TYR89      -0.0200
      7  CD1      -23.6800   37.8480  -14.9960 C.ar   89  TYR89      -0.0009
      8  CD2      -24.4450   40.0550  -15.4690 C.ar   89  TYR89      -0.0009
      9  CE1      -22.3850   38.2550  -15.2080 C.ar   89  TYR89       0.0417
     10  CE2      -23.1650   40.4580  -15.6860 C.ar   89  TYR89       0.0417
     11  CZ       -22.1420   39.5640  -15.5570 C.ar   89  TYR89       0.1957
     12  OH       -20.8680   39.9990  -15.7910 O.3    89  TYR89      -0.2866
     13  N        -25.2040   37.9160  -11.6020 N.am   90  LEU90      -0.1966
     14  CA       -24.8410   38.7170  -10.4290 C.3    90  LEU90       0.1728
     15  C        -23.8650   39.8090  -10.8630 C.2    90  LEU90       0.2617
     16  O        -22.7910   39.5110  -11.4100 O.2    90  LEU90      -0.2715
     17  CB       -24.2080   37.8560   -9.3370 C.3    90  LEU90       0.0311
     18  CG       -25.0440   36.8210   -8.5810 C.3    90  LEU90       0.0022
     19  CD1      -26.2790   37.4850   -8.0310 C.3    90  LEU90       0.0001
     20  CD2      -25.4130   35.6300   -9.4560 C.3    90  LEU90       0.0001
     21  N        -24.2420   41.0680  -10.6420 N.am   91  SER91      -0.1936
     22  CA       -23.3770   42.1850  -10.9980 C.3    91  SER91       0.2040
     23  C        -23.7730   43.4460  -10.2400 C.2    91  SER91       0.2485
     24  O        -24.9210   43.5820   -9.8230 O.2    91  SER91      -0.2729
     25  CB       -23.4120   42.4540  -12.5120 C.3    91  SER91       0.2129
     26  OG       -24.5140   43.2630  -12.8720 O.3    91  SER91      -0.2179
     27  N        -22.8130   44.3670  -10.0540 N.am   92  PRO92      -0.2715
     28  CA       -23.0610   45.7140   -9.5290 C.3    92  PRO92       0.1536
     29  C        -24.1600   46.4730  -10.2710 C.2    92  PRO92       0.2598
     30  O        -24.8250   47.2930   -9.6460 O.2    92  PRO92      -0.2715
     31  CB       -21.7220   46.4130   -9.7370 C.3    92  PRO92       0.0310
     32  CG       -20.7190   45.3160   -9.6150 C.3    92  PRO92       0.0237
     33  CD       -21.3710   44.0890  -10.2030 C.3    92  PRO92       0.0939
     34  N        -24.3530   46.2060  -11.5610 N.am   93  GLN93      -0.1978
     35  CA       -25.3640   46.9160  -12.3610 C.3    93  GLN93       0.1601
     36  C        -26.7690   46.4060  -12.0910 C.2    93  GLN93       0.2287
     37  O        -27.7400   46.9870  -12.5540 O.2    93  GLN93      -0.2864
     38  CB       -25.0960   46.7620  -13.8630 C.3    93  GLN93       0.0394
     39  CG       -23.9180   47.5480  -14.3660 C.3    93  GLN93       0.0908
     40  CD       -22.6080   46.9990  -13.8430 C.2    93  GLN93       0.2608
     41  OE1      -22.4010   45.7840  -13.8290 O.2    93  GLN93      -0.2717
     42  NE2      -21.7250   47.8860  -13.3910 N.am   93  GLN93      -0.0878
     43  N        -19.7580   36.0710  -13.1340 N.3   116  GLY116     -0.1210
     44  CA       -18.7620   36.7420  -13.9470 C.3   116  GLY116      0.1956
     45  C        -17.3860   36.7790  -13.2970 C.2   116  GLY116      0.2612
     46  O        -17.2680   36.9040  -12.0800 O.2   116  GLY116     -0.2717
     47  N        -16.3450   36.6490  -14.1150 N.am  117  ARG117     -0.1965
     48  CA       -14.9670   36.8800  -13.6910 C.3   117  ARG117      0.1729
     49  C        -14.3200   37.8480  -14.6900 C.2   117  ARG117      0.2616
     50  O        -14.9710   38.2580  -15.6520 O.2   117  ARG117     -0.2715
     51  CB       -14.2080   35.5670  -13.6330 C.3   117  ARG117      0.0348
     52  CG       -14.6440   34.6780  -12.5070 C.3   117  ARG117      0.0492
     53  CD       -13.6280   34.7370  -11.4160 C.3   117  ARG117      0.2205
     54  NE       -14.1860   34.3290  -10.1360 N.pl3 117  ARG117     -0.0865
     55  CZ       -13.5450   34.4650   -8.9800 C.cat 117  ARG117      0.5346
     56  NH1      -12.3320   34.9990   -8.9610 N.pl3 117  ARG117      0.1354
     57  NH2      -14.1150   34.0710   -7.8460 N.pl3 117  ARG117      0.1354
     58  N        -13.0520   38.2000  -14.4690 N.am  118  TYR118     -0.1960
     59  CA       -12.3760   39.2620  -15.2350 C.3   118  TYR118      0.1771
     60  C        -13.2070   40.5580  -15.2130 C.2   118  TYR118      0.2619
     61  O        -13.7470   40.9170  -14.1730 O.2   118  TYR118     -0.2715
     62  CB       -12.0370   38.7940  -16.6560 C.3   118  TYR118      0.0574
     63  CG       -11.5130   37.3770  -16.6780 C.ar  118  TYR118     -0.0198
     64  CD1      -10.2700   37.0710  -16.1520 C.ar  118  TYR118     -0.0009
     65  CD2      -12.2780   36.3370  -17.1870 C.ar  118  TYR118     -0.0009
     66  CE1       -9.7890   35.7870  -16.1610 C.ar  118  TYR118      0.0417
     67  CE2      -11.8020   35.0370  -17.1920 C.ar  118  TYR118      0.0417
     68  CZ       -10.5590   34.7770  -16.6790 C.ar  118  TYR118      0.1957
     69  OH       -10.0770   33.4980  -16.6720 O.3   118  TYR118     -0.2866
     70  N        -13.3280   41.2710  -16.3240 N.am  119  GLU119     -0.1963
     71  CA       -14.1430   42.4840  -16.3160 C.3   119  GLU119      0.1733
     72  C        -15.6200   42.1550  -16.6150 C.2   119  GLU119      0.2616
     73  O        -16.4440   43.0580  -16.8040 O.2   119  GLU119     -0.2715
     74  CB       -13.6030   43.5580  -17.2810 C.3   119  GLU119      0.0429
     75  CG       -12.0760   43.8110  -17.2600 C.3   119  GLU119      0.1163
     76  CD       -11.5200   44.2020  -15.8940 C.2   119  GLU119      0.3649
     77  OE1      -12.0810   45.1120  -15.2480 O.co2 119  GLU119     -0.2457
     78  OE2      -10.5090   43.5970  -15.4690 O.co2 119  GLU119     -0.2457
     79  N        -15.9510   40.8610  -16.6400 N.am  120  GLY120     -0.1955
     80  CA       -17.3300   40.4210  -16.8160 C.3   120  GLY120      0.1869
     81  C        -17.6760   39.6940  -18.1050 C.2   120  GLY120      0.2309
     82  O        -16.8510   39.0070  -18.6960 O.2   120  GLY120     -0.2863
     83  N        -28.8990   40.9360  -10.8600 N.3   134  TRP134     -0.1227
     84  CA       -29.0390   41.3120   -9.4540 C.3   134  TRP134      0.1737
     85  C        -27.7060   41.7130   -8.8440 C.2   134  TRP134      0.2596
     86  O        -26.6600   41.1890   -9.2290 O.2   134  TRP134     -0.2718
     87  CB       -29.6580   40.1740   -8.6380 C.3   134  TRP134      0.0564
     88  CG       -31.1040   39.9570   -8.9160 C.ar  134  TRP134      0.0003
     89  CD1      -31.6480   39.3610  -10.0170 C.ar  134  TRP134      0.0946
     90  CD2      -32.2030   40.3360   -8.0800 C.ar  134  TRP134      0.0152
     91  NE1      -33.0170   39.3440   -9.9170 N.ar  134  TRP134     -0.2442
     92  CE2      -33.3830   39.9400   -8.7380 C.ar  134  TRP134      0.0810
     93  CE3      -32.3030   40.9750   -6.8410 C.ar  134  TRP134      0.0012
     94  CZ2      -34.6470   40.1520   -8.1940 C.ar  134  TRP134      0.0191
     95  CZ3      -33.5570   41.1940   -6.3080 C.ar  134  TRP134      0.0001
     96  CH2      -34.7130   40.7770   -6.9810 C.ar  134  TRP134      0.0015
     97  N        -27.7530   42.6420   -7.8930 N.am  135  SER135     -0.1938
     98  CA       -26.5860   42.9830   -7.0840 C.3   135  SER135      0.2055
     99  C        -26.8510   42.7200   -5.6200 C.2   135  SER135      0.2643
    100  O        -27.9420   42.9860   -5.1270 O.2   135  SER135     -0.2714
    101  CB       -26.2390   44.4500   -7.2260 C.3   135  SER135      0.2130
    102  OG       -25.3450   44.8220   -6.1970 O.3   135  SER135     -0.2179
    103  N        -25.8460   42.2210   -4.9140 N.am  136  ILE136     -0.1963
    104  CA       -25.9920   41.9900   -3.4800 C.3   136  ILE136      0.1727
    105  C        -25.7130   43.2600   -2.6920 C.2   136  ILE136      0.2616
    106  O        -26.1100   43.3950   -1.5420 O.2   136  ILE136     -0.2715
    107  CB       -25.1340   40.8090   -2.9650 C.3   136  ILE136      0.0290
    108  CG1      -23.6290   41.0940   -3.0850 C.3   136  ILE136      0.0022
    109  CG2      -25.5240   39.5320   -3.6810 C.3   136  ILE136      0.0023
    110  CD1      -22.8090   40.1920   -2.1840 C.3   136  ILE136      0.0001
    111  N        -25.0620   44.2110   -3.3370 N.am  137  GLY137     -0.1955
    112  CA       -24.8110   45.4930   -2.7180 C.3   137  GLY137      0.1869
    113  C        -23.8910   46.3520   -3.5500 C.2   137  GLY137      0.2309
    114  O        -23.2920   45.8830   -4.5230 O.2   137  GLY137     -0.2863
    115  N        -20.9290   47.3270   -4.0110 N.3   139  TYR139     -0.1227
    116  CA       -19.4950   47.0880   -3.8410 C.3   139  TYR139      0.1736
    117  C        -18.9560   46.1020   -4.8750 C.2   139  TYR139      0.2595
    118  O        -19.6940   45.2830   -5.4160 O.2   139  TYR139     -0.2718
    119  CB       -19.1590   46.6260   -2.4100 C.3   139  TYR139      0.0548
    120  CG       -20.1140   45.6040   -1.8200 C.ar  139  TYR139     -0.0200
    121  CD1      -20.0320   44.2720   -2.1670 C.ar  139  TYR139     -0.0009
    122  CD2      -21.0920   45.9820   -0.9060 C.ar  139  TYR139     -0.0009
    123  CE1      -20.8880   43.3460   -1.6250 C.ar  139  TYR139      0.0417
    124  CE2      -21.9520   45.0710   -0.3670 C.ar  139  TYR139      0.0417
    125  CZ       -21.8460   43.7480   -0.7240 C.ar  139  TYR139      0.1957
    126  OH       -22.6980   42.8090   -0.1880 O.3   139  TYR139     -0.2866
    127  N        -17.6620   46.1830   -5.1400 N.am  140  VAL140     -0.1966
    128  CA       -17.0650   45.3890   -6.1970 C.3   140  VAL140      0.1727
    129  C        -16.2650   44.2320   -5.6360 C.2   140  VAL140      0.2616
    130  O        -15.4640   44.4060   -4.7180 O.2   140  VAL140     -0.2715
    131  CB       -16.1550   46.2570   -7.0840 C.3   140  VAL140      0.0290
    132  CG1      -15.5550   45.4340   -8.1960 C.3   140  VAL140      0.0023
    133  CG2      -16.9450   47.3940   -7.6550 C.3   140  VAL140      0.0023
    134  N        -16.4920   43.0470   -6.1970 N.am  141  LEU141     -0.1963
    135  CA       -15.7960   41.8420   -5.7760 C.3   141  LEU141      0.1728
    136  C        -15.0020   41.2450   -6.9510 C.2   141  LEU141      0.2617
    137  O        -15.0650   41.7630   -8.0600 O.2   141  LEU141     -0.2715
    138  CB       -16.8070   40.8480   -5.2020 C.3   141  LEU141      0.0311
    139  CG       -17.7330   41.3980   -4.1100 C.3   141  LEU141      0.0022
    140  CD1      -18.8790   40.4620   -3.8620 C.3   141  LEU141      0.0001
    141  CD2      -16.9870   41.6250   -2.8240 C.3   141  LEU141      0.0001
    142  N        -14.2480   40.1740   -6.7180 N.am  142  THR142     -0.1937
    143  CA       -13.4120   39.6210   -7.7790 C.3   142  THR142      0.2028
    144  C        -14.1660   38.6380   -8.6630 C.2   142  THR142      0.2643
    145  O        -13.6980   38.2500   -9.7290 O.2   142  THR142     -0.2714
    146  CB       -12.1560   38.9310   -7.2250 C.3   142  THR142      0.1808
    147  OG1      -12.5350   37.8110   -6.4170 O.3   142  THR142     -0.2208
    148  CG2      -11.3360   39.9010   -6.4020 C.3   142  THR142      0.0379
    149  N        -15.3470   38.2380   -8.2200 N.am  143  GLY143     -0.1939
    150  CA       -16.1050   37.2400   -8.9410 C.3   143  GLY143      0.2014
    151  C        -17.5470   37.2840   -8.5150 C.2   143  GLY143      0.2639
    152  O        -17.8540   37.8290   -7.4500 O.2   143  GLY143     -0.2714
    153  N        -18.4320   36.7350   -9.3420 N.am  144  GLY144     -0.1954
    154  CA       -19.8320   36.6080   -8.9770 C.3   144  GLY144      0.1869
    155  C        -20.1240   35.3970   -8.0930 C.2   144  GLY144      0.2309
    156  O        -21.2350   35.2340   -7.6260 O.2   144  GLY144     -0.2863
    157  N        -21.3810   36.5490   -4.5710 N.3   147  PRO147     -0.2116
    158  CA       -22.7760   37.0060   -4.6180 C.3   147  PRO147      0.1372
    159  C        -23.7610   35.8870   -4.9820 C.2   147  PRO147      0.2244
    160  O        -24.8820   35.8900   -4.4690 O.2   147  PRO147     -0.2868
    161  CB       -22.7500   38.1120   -5.6820 C.3   147  PRO147      0.0268
    162  CG       -21.3710   38.6000   -5.6740 C.3   147  PRO147      0.0207
    163  CD       -20.5180   37.3920   -5.4200 C.3   147  PRO147      0.0892
@<TRIPOS>BOND
     1    82    81    2
     2    81    80    1
     3    74    75    1
     4    74    71    1
     5    75    76    1
     6    67    65   ar
     7    67    68   ar
     8    65    63   ar
     9    80    79    1
    10    73    72    2
    11    68    69    1
    12    68    66   ar
    13    63    62    1
    14    63    64   ar
    15    62    59    1
    16    79    72   am
    17    72    71    1
    18    70    71    1
    19    70    60   am
    20    66    64   ar
    21    76    78   ar
    22    76    77   ar
    23    12    11    1
    24    10    11   ar
    25    10     8   ar
    26    50    49    2
    27    11     9   ar
    28     8     6   ar
    29    59    60    1
    30    59    58    1
    31    60    61    2
    32     9     7   ar
    33     6     7   ar
    34     6     5    1
    35     5     2    1
    36    49    58   am
    37    49    48    1
    38    39    38    1
    39    39    40    1
    40    47    48    1
    41    47    45   am
    42    44    45    1
    43    44    43    1
    44    38    35    1
    45    40    41    2
    46    40    42   am
    47    48    51    1
    48     1     2    1
    49     2     3    1
    50    51    52    1
    51    45    46    2
    52    26    25    1
    53    37    36    2
    54    25    22    1
    55    52    53    1
    56     3     4    2
    57     3    13   am
    58    35    36    1
    59    35    34    1
    60    13    14    1
    61    34    29   am
    62    53    54    1
    63    16    15    2
    64    22    21    1
    65    22    23    1
    66    15    21   am
    67    15    14    1
    68    83    84    1
    69    14    17    1
    70    29    30    2
    71    29    28    1
    72    23    27   am
    73    23    24    2
    74    33    27    1
    75    33    32    1
    76    54    55    2
    77    27    28    1
    78    89    91   ar
    79    89    88   ar
    80    91    92   ar
    81    31    32    1
    82    31    28    1
    83   145   144    2
    84    20    18    1
    85    84    85    1
    86    84    87    1
    87   153   154    1
    88   153   151   am
    89    17    18    1
    90    86    85    2
    91    55    56    1
    92    55    57    1
    93   154   155    1
    94   150   151    1
    95   150   149    1
    96    88    87    1
    97    88    90   ar
    98    85    97   am
    99    92    94   ar
   100    92    90   ar
   101   144   149   am
   102   144   143    1
   103    18    19    1
   104   151   152    2
   105   132   131    1
   106    94    96   ar
   107   155   156    2
   108    90    93   ar
   109   137   136    2
   110    97    98    1
   111   143   146    1
   112   143   142    1
   113   133   131    1
   114   101    98    1
   115   101   102    1
   116   146   147    1
   117   146   148    1
   118   131   128    1
   119    98    99    1
   120    96    95   ar
   121   136   142   am
   122   136   135    1
   123    93    95   ar
   124   128   129    1
   125   128   127    1
   126   134   135    1
   127   134   129   am
   128   135   138    1
   129   161   162    1
   130   161   158    1
   131   162   163    1
   132   129   130    2
   133    99   100    2
   134    99   103   am
   135   163   157    1
   136   118   117    2
   137   138   139    1
   138   127   117   am
   139   159   158    1
   140   159   160    2
   141   103   104    1
   142   117   116    1
   143   158   157    1
   144   114   113    2
   145   139   140    1
   146   139   141    1
   147   115   116    1
   148   116   119    1
   149   109   107    1
   150   113   112    1
   151   104   107    1
   152   104   105    1
   153   111   112    1
   154   111   105   am
   155   108   107    1
   156   108   110    1
   157   105   106    2
   158   119   120    1
   159   121   120   ar
   160   121   123   ar
   161   120   122   ar
   162   123   125   ar
   163   122   124   ar
   164   125   124   ar
   165   125   126    1
