@<TRIPOS>MOLECULE
tmp/4yqqA00.pdb
 163 165 0 0 0
SMALL
GASTEIGER

@<TRIPOS>ATOM
      1  N        -27.9860   36.8860  -13.5910 N.3    89  TYR89      -0.1227
      2  CA       -26.5970   37.3310  -13.6610 C.3    89  TYR89       0.1736
      3  C        -26.2870   38.2110  -12.4670 C.2    89  TYR89       0.2595
      4  O        -26.9850   39.1900  -12.2210 O.2    89  TYR89      -0.2718
      5  CB       -26.3590   38.1060  -14.9480 C.3    89  TYR89       0.0548
      6  CG       -24.9270   38.5600  -15.1980 C.ar   89  TYR89      -0.0200
      7  CD1      -23.8470   37.6880  -15.0580 C.ar   89  TYR89      -0.0009
      8  CD2      -24.6690   39.8500  -15.6450 C.ar   89  TYR89      -0.0009
      9  CE1      -22.5480   38.1080  -15.3330 C.ar   89  TYR89       0.0417
     10  CE2      -23.3830   40.2700  -15.9300 C.ar   89  TYR89       0.0417
     11  CZ       -22.3290   39.4020  -15.7710 C.ar   89  TYR89       0.1957
     12  OH       -21.0570   39.8400  -16.0690 O.3    89  TYR89      -0.2866
     13  N        -25.2590   37.8620  -11.7020 N.am   90  LEU90      -0.1966
     14  CA       -24.9050   38.6690  -10.5410 C.3    90  LEU90       0.1728
     15  C        -23.8950   39.7380  -10.9480 C.2    90  LEU90       0.2617
     16  O        -22.8290   39.4250  -11.4760 O.2    90  LEU90      -0.2715
     17  CB       -24.3600   37.7850   -9.4130 C.3    90  LEU90       0.0311
     18  CG       -25.4420   36.8550   -8.8410 C.3    90  LEU90       0.0022
     19  CD1      -25.5080   35.5140   -9.5880 C.3    90  LEU90       0.0001
     20  CD2      -25.2880   36.6510   -7.3620 C.3    90  LEU90       0.0001
     21  N        -24.2580   41.0010  -10.7360 N.am   91  SER91      -0.1936
     22  CA       -23.3730   42.1000  -11.1090 C.3    91  SER91       0.2040
     23  C        -23.7200   43.3630  -10.3460 C.2    91  SER91       0.2485
     24  O        -24.8350   43.5030   -9.8520 O.2    91  SER91      -0.2729
     25  CB       -23.4550   42.3840  -12.6120 C.3    91  SER91       0.2129
     26  OG       -24.6210   43.1300  -12.8970 O.3    91  SER91      -0.2179
     27  N        -22.7640   44.3000  -10.2650 N.am   92  PRO92      -0.2715
     28  CA       -23.0310   45.5590   -9.5580 C.3    92  PRO92       0.1536
     29  C        -24.0810   46.4140  -10.2740 C.2    92  PRO92       0.2598
     30  O        -24.6510   47.3180   -9.6580 O.2    92  PRO92      -0.2715
     31  CB       -21.6680   46.2690   -9.5530 C.3    92  PRO92       0.0310
     32  CG       -20.6570   45.2180   -9.8970 C.3    92  PRO92       0.0237
     33  CD       -21.3650   44.1850  -10.7200 C.3    92  PRO92       0.0939
     34  N        -24.3210   46.1490  -11.5560 N.am   93  GLN93      -0.1978
     35  CA       -25.2710   46.9340  -12.3410 C.3    93  GLN93       0.1601
     36  C        -26.6890   46.3740  -12.2100 C.2    93  GLN93       0.2287
     37  O        -27.6230   46.8710  -12.8410 O.2    93  GLN93      -0.2864
     38  CB       -24.8460   46.9680  -13.8200 C.3    93  GLN93       0.0394
     39  CG       -23.6020   47.8180  -14.1160 C.3    93  GLN93       0.0908
     40  CD       -22.3290   47.2700  -13.4820 C.2    93  GLN93       0.2608
     41  OE1      -22.0760   46.0630  -13.5170 O.2    93  GLN93      -0.2717
     42  NE2      -21.5280   48.1570  -12.8860 N.am   93  GLN93      -0.0878
     43  N        -19.8470   35.9460  -13.2100 N.3   116  GLY116     -0.1210
     44  CA       -18.8830   36.6420  -14.0450 C.3   116  GLY116      0.1956
     45  C        -17.5230   36.7530  -13.3730 C.2   116  GLY116      0.2612
     46  O        -17.4280   36.8720  -12.1440 O.2   116  GLY116     -0.2717
     47  N        -16.4700   36.6780  -14.1880 N.am  117  ARG117     -0.1965
     48  CA       -15.1010   36.9360  -13.7600 C.3   117  ARG117      0.1729
     49  C        -14.4680   37.9070  -14.7660 C.2   117  ARG117      0.2616
     50  O        -15.1350   38.3270  -15.7010 O.2   117  ARG117     -0.2715
     51  CB       -14.3090   35.6250  -13.6560 C.3   117  ARG117      0.0348
     52  CG       -14.6690   34.7870  -12.4020 C.3   117  ARG117      0.0492
     53  CD       -13.6290   34.9550  -11.3160 C.3   117  ARG117      0.2205
     54  NE       -14.1650   34.5870  -10.0070 N.pl3 117  ARG117     -0.0865
     55  CZ       -13.4500   34.5980   -8.9000 C.cat 117  ARG117      0.5346
     56  NH1      -12.1630   34.9520   -8.9560 N.pl3 117  ARG117      0.1354
     57  NH2      -14.0080   34.2450   -7.7500 N.pl3 117  ARG117      0.1354
     58  N        -13.2010   38.2690  -14.5690 N.am  118  TYR118     -0.1960
     59  CA       -12.5580   39.3010  -15.3980 C.3   118  TYR118      0.1771
     60  C        -13.3970   40.5780  -15.3330 C.2   118  TYR118      0.2619
     61  O        -13.8460   40.9570  -14.2480 O.2   118  TYR118     -0.2715
     62  CB       -12.3660   38.8030  -16.8360 C.3   118  TYR118      0.0574
     63  CG       -11.8150   37.4040  -16.8350 C.ar  118  TYR118     -0.0198
     64  CD1      -10.5390   37.1460  -16.3610 C.ar  118  TYR118     -0.0009
     65  CD2      -12.5880   36.3350  -17.2380 C.ar  118  TYR118     -0.0009
     66  CE1      -10.0390   35.8610  -16.3240 C.ar  118  TYR118      0.0417
     67  CE2      -12.0970   35.0470  -17.2070 C.ar  118  TYR118      0.0417
     68  CZ       -10.8260   34.8160  -16.7450 C.ar  118  TYR118      0.1957
     69  OH       -10.3380   33.5280  -16.6960 O.3   118  TYR118     -0.2866
     70  N        -13.6160   41.2500  -16.4590 N.am  119  GLU119     -0.1963
     71  CA       -14.4240   42.4730  -16.4360 C.3   119  GLU119      0.1733
     72  C        -15.9000   42.1750  -16.7020 C.2   119  GLU119      0.2616
     73  O        -16.7010   43.0960  -16.8620 O.2   119  GLU119     -0.2715
     74  CB       -13.9270   43.5080  -17.4500 C.3   119  GLU119      0.0429
     75  CG       -12.4600   43.8910  -17.3090 C.3   119  GLU119      0.1163
     76  CD       -12.0930   44.3010  -15.8950 C.2   119  GLU119      0.3649
     77  OE1      -12.7880   45.1700  -15.3240 O.co2 119  GLU119     -0.2457
     78  OE2      -11.1120   43.7450  -15.3510 O.co2 119  GLU119     -0.2457
     79  N        -16.2560   40.8980  -16.7400 N.am  120  GLY120     -0.1955
     80  CA       -17.6480   40.5120  -16.8910 C.3   120  GLY120      0.1869
     81  C        -17.9090   39.7910  -18.1990 C.2   120  GLY120      0.2309
     82  O        -17.0120   39.1490  -18.7560 O.2   120  GLY120     -0.2863
     83  N        -29.0120   40.9820  -10.8880 N.3   134  TRP134     -0.1227
     84  CA       -29.1410   41.3490   -9.4740 C.3   134  TRP134      0.1737
     85  C        -27.7860   41.6910   -8.8750 C.2   134  TRP134      0.2596
     86  O        -26.7900   41.0570   -9.2170 O.2   134  TRP134     -0.2718
     87  CB       -29.7620   40.2030   -8.6750 C.3   134  TRP134      0.0564
     88  CG       -31.2100   39.9800   -8.9420 C.ar  134  TRP134      0.0003
     89  CD1      -31.7570   39.3120  -10.0030 C.ar  134  TRP134      0.0946
     90  CD2      -32.3080   40.4110   -8.1260 C.ar  134  TRP134      0.0152
     91  NE1      -33.1360   39.3150   -9.9000 N.ar  134  TRP134     -0.2442
     92  CE2      -33.4940   39.9790   -8.7560 C.ar  134  TRP134      0.0810
     93  CE3      -32.4040   41.1200   -6.9220 C.ar  134  TRP134      0.0012
     94  CZ2      -34.7530   40.2270   -8.2210 C.ar  134  TRP134      0.0191
     95  CZ3      -33.6550   41.3710   -6.3990 C.ar  134  TRP134      0.0001
     96  CH2      -34.8140   40.9250   -7.0480 C.ar  134  TRP134      0.0015
     97  N        -27.7650   42.6720   -7.9750 N.am  135  SER135     -0.1938
     98  CA       -26.5750   43.0100   -7.1870 C.3   135  SER135      0.2055
     99  C        -26.7960   42.6740   -5.7160 C.2   135  SER135      0.2643
    100  O        -27.8930   42.8820   -5.2030 O.2   135  SER135     -0.2714
    101  CB       -26.2390   44.4970   -7.3110 C.3   135  SER135      0.2130
    102  OG       -25.2890   44.8770   -6.3230 O.3   135  SER135     -0.2179
    103  N        -25.7600   42.2020   -5.0230 N.am  136  ILE136     -0.1963
    104  CA       -25.9180   41.9340   -3.5910 C.3   136  ILE136      0.1727
    105  C        -25.5650   43.1710   -2.7490 C.2   136  ILE136      0.2616
    106  O        -25.7410   43.1790   -1.5270 O.2   136  ILE136     -0.2715
    107  CB       -25.0810   40.7080   -3.1070 C.3   136  ILE136      0.0290
    108  CG1      -23.5750   40.9320   -3.2810 C.3   136  ILE136      0.0022
    109  CG2      -25.5620   39.4240   -3.7850 C.3   136  ILE136      0.0023
    110  CD1      -22.7310   40.1950   -2.2160 C.3   136  ILE136      0.0001
    111  N        -25.1000   44.2300   -3.3970 N.am  137  GLY137     -0.1955
    112  CA       -24.7960   45.4580   -2.6740 C.3   137  GLY137      0.1869
    113  C        -23.9320   46.3970   -3.4890 C.2   137  GLY137      0.2309
    114  O        -23.3910   46.0010   -4.5240 O.2   137  GLY137     -0.2863
    115  N        -20.9360   47.4400   -3.7700 N.3   139  TYR139     -0.1227
    116  CA       -19.4920   47.2810   -3.6090 C.3   139  TYR139      0.1736
    117  C        -18.9730   46.3170   -4.6680 C.2   139  TYR139      0.2595
    118  O        -19.7470   45.5980   -5.3110 O.2   139  TYR139     -0.2718
    119  CB       -19.1380   46.7880   -2.1990 C.3   139  TYR139      0.0548
    120  CG       -20.0870   45.7340   -1.6820 C.ar  139  TYR139     -0.0200
    121  CD1      -19.9580   44.4070   -2.0720 C.ar  139  TYR139     -0.0009
    122  CD2      -21.1220   46.0750   -0.8150 C.ar  139  TYR139     -0.0009
    123  CE1      -20.8350   43.4320   -1.6040 C.ar  139  TYR139      0.0417
    124  CE2      -22.0040   45.1260   -0.3500 C.ar  139  TYR139      0.0417
    125  CZ       -21.8510   43.8020   -0.7400 C.ar  139  TYR139      0.1957
    126  OH       -22.7280   42.8560   -0.2790 O.3   139  TYR139     -0.2866
    127  N        -17.6600   46.3140   -4.8500 N.am  140  VAL140     -0.1966
    128  CA       -17.0380   45.6130   -5.9640 C.3   140  VAL140      0.1727
    129  C        -16.2450   44.3910   -5.5090 C.2   140  VAL140      0.2616
    130  O        -15.4330   44.4840   -4.5860 O.2   140  VAL140     -0.2715
    131  CB       -16.0960   46.5670   -6.7370 C.3   140  VAL140      0.0290
    132  CG1      -15.4900   45.8580   -7.9270 C.3   140  VAL140      0.0023
    133  CG2      -16.8490   47.8230   -7.1610 C.3   140  VAL140      0.0023
    134  N        -16.4930   43.2520   -6.1550 N.am  141  LEU141     -0.1963
    135  CA       -15.8230   41.9960   -5.8180 C.3   141  LEU141      0.1728
    136  C        -15.0190   41.4520   -6.9970 C.2   141  LEU141      0.2617
    137  O        -15.0970   41.9860   -8.1160 O.2   141  LEU141     -0.2715
    138  CB       -16.8520   40.9570   -5.3480 C.3   141  LEU141      0.0311
    139  CG       -17.7390   41.4060   -4.1770 C.3   141  LEU141      0.0022
    140  CD1      -18.8590   40.4000   -3.9360 C.3   141  LEU141      0.0001
    141  CD2      -16.9170   41.5870   -2.9060 C.3   141  LEU141      0.0001
    142  N        -14.2420   40.3930   -6.7620 N.am  142  THR142     -0.1937
    143  CA       -13.4090   39.8220   -7.8230 C.3   142  THR142      0.2028
    144  C        -14.1610   38.8370   -8.7210 C.2   142  THR142      0.2643
    145  O        -13.6530   38.4270   -9.7790 O.2   142  THR142     -0.2714
    146  CB       -12.1720   39.0840   -7.2460 C.3   142  THR142      0.1808
    147  OG1      -12.6040   37.9670   -6.4550 O.3   142  THR142     -0.2208
    148  CG2      -11.3190   40.0330   -6.4020 C.3   142  THR142      0.0379
    149  N        -15.3740   38.4640   -8.3310 N.am  143  GLY143     -0.1939
    150  CA       -16.1370   37.5360   -9.1400 C.3   143  GLY143      0.2014
    151  C        -17.5670   37.4270   -8.6490 C.2   143  GLY143      0.2639
    152  O        -17.8970   37.8920   -7.5470 O.2   143  GLY143     -0.2714
    153  N        -18.4220   36.8090   -9.4560 N.am  144  GLY144     -0.1954
    154  CA       -19.8220   36.6670   -9.0730 C.3   144  GLY144      0.1869
    155  C        -20.1380   35.4740   -8.1760 C.2   144  GLY144      0.2309
    156  O        -21.2860   35.2680   -7.7800 O.2   144  GLY144     -0.2863
    157  N        -21.3570   36.5160   -4.5680 N.3   147  PRO147     -0.2116
    158  CA       -22.7600   36.9440   -4.6710 C.3   147  PRO147      0.1372
    159  C        -23.7410   35.7930   -4.9360 C.2   147  PRO147      0.2244
    160  O        -24.8390   35.7710   -4.3570 O.2   147  PRO147     -0.2868
    161  CB       -22.7320   37.9250   -5.8460 C.3   147  PRO147      0.0268
    162  CG       -21.3500   38.5670   -5.7330 C.3   147  PRO147      0.0207
    163  CD       -20.4480   37.3900   -5.3420 C.3   147  PRO147      0.0892
@<TRIPOS>BOND
     1    82    81    2
     2    81    80    1
     3    74    75    1
     4    74    71    1
     5    75    76    1
     6    65    67   ar
     7    65    63   ar
     8    67    68   ar
     9    80    79    1
    10    73    72    2
    11    62    63    1
    12    62    59    1
    13    63    64   ar
    14    68    69    1
    15    68    66   ar
    16    79    72   am
    17    72    71    1
    18    70    71    1
    19    70    60   am
    20    64    66   ar
    21    12    11    1
    22    10    11   ar
    23    10     8   ar
    24    76    78   ar
    25    76    77   ar
    26    11     9   ar
    27    50    49    2
    28     8     6   ar
    29    59    60    1
    30    59    58    1
    31     9     7   ar
    32    60    61    2
    33     6     7   ar
    34     6     5    1
    35     5     2    1
    36    49    58   am
    37    49    48    1
    38    47    48    1
    39    47    45   am
    40    39    38    1
    41    39    40    1
    42    44    45    1
    43    44    43    1
    44    38    35    1
    45    48    51    1
    46     2     1    1
    47     2     3    1
    48    51    52    1
    49    41    40    2
    50    40    42   am
    51    45    46    2
    52    26    25    1
    53    37    36    2
    54    25    22    1
    55     3     4    2
    56     3    13   am
    57    52    53    1
    58    35    36    1
    59    35    34    1
    60    13    14    1
    61    34    29   am
    62    16    15    2
    63    53    54    1
    64    22    21    1
    65    22    23    1
    66    15    21   am
    67    15    14    1
    68    83    84    1
    69    33    27    1
    70    33    32    1
    71    14    17    1
    72    23    27   am
    73    23    24    2
    74    29    30    2
    75    29    28    1
    76    27    28    1
    77    54    55    2
    78    89    91   ar
    79    89    88   ar
    80    91    92   ar
    81    32    31    1
    82   145   144    2
    83    19    18    1
    84    28    31    1
    85    84    85    1
    86    84    87    1
    87   153   154    1
    88   153   151   am
    89    17    18    1
    90    86    85    2
    91   150   151    1
    92   150   149    1
    93   154   155    1
    94    56    55    1
    95    88    87    1
    96    88    90   ar
    97    55    57    1
    98    85    97   am
    99    18    20    1
   100    92    94   ar
   101    92    90   ar
   102   144   149   am
   103   144   143    1
   104   151   152    2
   105    94    96   ar
   106   155   156    2
   107    90    93   ar
   108   137   136    2
   109    97    98    1
   110   132   131    1
   111   143   146    1
   112   143   142    1
   113   101    98    1
   114   101   102    1
   115   146   147    1
   116   146   148    1
   117    98    99    1
   118   133   131    1
   119    96    95   ar
   120   136   142   am
   121   136   135    1
   122    93    95   ar
   123   131   128    1
   124   134   135    1
   125   134   129   am
   126   128   129    1
   127   128   127    1
   128   161   162    1
   129   161   158    1
   130   135   138    1
   131   162   163    1
   132    99   100    2
   133    99   103   am
   134   129   130    2
   135   138   139    1
   136   163   157    1
   137   118   117    2
   138   103   104    1
   139   159   158    1
   140   159   160    2
   141   127   117   am
   142   158   157    1
   143   117   116    1
   144   114   113    2
   145   139   140    1
   146   139   141    1
   147   109   107    1
   148   115   116    1
   149   116   119    1
   150   104   107    1
   151   104   105    1
   152   113   112    1
   153   111   105   am
   154   111   112    1
   155   108   107    1
   156   108   110    1
   157   105   106    2
   158   119   120    1
   159   121   120   ar
   160   121   123   ar
   161   120   122   ar
   162   123   125   ar
   163   122   124   ar
   164   125   124   ar
   165   125   126    1
