@<TRIPOS>MOLECULE
tmp/4yqrA00.pdb
 154 156 0 0 0
SMALL
GASTEIGER

@<TRIPOS>ATOM
      1  N        -27.7790   36.5470  -13.7630 N.3    88  TYR88      -0.1227
      2  CA       -26.3770   36.9520  -13.7820 C.3    88  TYR88       0.1736
      3  C        -26.1210   37.8420  -12.5700 C.2    88  TYR88       0.2595
      4  O        -26.8590   38.7720  -12.3240 O.2    88  TYR88      -0.2718
      5  CB       -26.0430   37.7230  -15.0640 C.3    88  TYR88       0.0548
      6  CG       -24.5890   38.2040  -15.1220 C.ar   88  TYR88      -0.0200
      7  CD1      -23.5330   37.3150  -14.9650 C.ar   88  TYR88      -0.0009
      8  CD2      -24.2990   39.5420  -15.3770 C.ar   88  TYR88      -0.0009
      9  CE1      -22.2270   37.7420  -15.0310 C.ar   88  TYR88       0.0417
     10  CE2      -22.9930   39.9780  -15.4650 C.ar   88  TYR88       0.0417
     11  CZ       -21.9710   39.0820  -15.2570 C.ar   88  TYR88       0.1957
     12  OH       -20.6760   39.5420  -15.3390 O.3    88  TYR88      -0.2866
     13  N        -25.0750   37.5500  -11.8320 N.am   89  LEU89      -0.1966
     14  CA       -24.7460   38.3460  -10.6540 C.3    89  LEU89       0.1728
     15  C        -23.7500   39.4400  -11.0250 C.2    89  LEU89       0.2617
     16  O        -22.6700   39.1310  -11.5390 O.2    89  LEU89      -0.2715
     17  CB       -24.1640   37.4410   -9.5510 C.3    89  LEU89       0.0311
     18  CG       -25.1180   36.5310   -8.7590 C.3    89  LEU89       0.0022
     19  CD1      -26.4100   37.2600   -8.4130 C.3    89  LEU89       0.0001
     20  CD2      -25.3830   35.2240   -9.5000 C.3    89  LEU89       0.0001
     21  N        -24.0960   40.7060  -10.7590 N.am   90  SER90      -0.1936
     22  CA       -23.1500   41.8120  -11.0060 C.3    90  SER90       0.2040
     23  C        -23.6070   43.0850  -10.3150 C.2    90  SER90       0.2485
     24  O        -24.7660   43.1750   -9.9070 O.2    90  SER90      -0.2729
     25  CB       -23.0050   42.0650  -12.5190 C.3    90  SER90       0.2129
     26  OG       -23.9390   43.0490  -12.9310 O.3    90  SER90      -0.2179
     27  N        -22.6980   44.0650  -10.1560 N.am   91  PRO91      -0.2726
     28  CA       -23.0780   45.3360   -9.5350 C.3    91  PRO91       0.1402
     29  C        -24.0850   46.1330  -10.3600 C.2    91  PRO91       0.2269
     30  O        -24.6460   47.0820   -9.8200 O.2    91  PRO91      -0.2865
     31  CB       -21.7460   46.0990   -9.4230 C.3    91  PRO91       0.0296
     32  CG       -20.6920   45.0790   -9.5240 C.3    91  PRO91       0.0237
     33  CD       -21.2490   43.9630  -10.3980 C.3    91  PRO91       0.0939
     34  N        -19.7170   35.5050  -13.1770 N.3   115  GLY115     -0.1210
     35  CA       -18.7270   36.1970  -13.9890 C.3   115  GLY115      0.1956
     36  C        -17.3710   36.2220  -13.3040 C.2   115  GLY115      0.2612
     37  O        -17.2860   36.1940  -12.0590 O.2   115  GLY115     -0.2717
     38  N        -16.3130   36.2650  -14.1190 N.am  116  ARG116     -0.1965
     39  CA       -14.9580   36.5060  -13.6540 C.3   116  ARG116      0.1729
     40  C        -14.3700   37.5510  -14.5890 C.2   116  ARG116      0.2616
     41  O        -15.0250   37.9650  -15.5510 O.2   116  ARG116     -0.2715
     42  CB       -14.1180   35.2090  -13.6130 C.3   116  ARG116      0.0348
     43  CG       -14.4230   34.2710  -12.3690 C.3   116  ARG116      0.0492
     44  CD       -13.4060   34.4790  -11.2600 C.3   116  ARG116      0.2205
     45  NE       -14.0000   34.1270   -9.9810 N.pl3 116  ARG116     -0.0865
     46  CZ       -13.3450   34.1660   -8.8540 C.cat 116  ARG116      0.5346
     47  NH1      -12.0680   34.5740   -8.8760 N.pl3 116  ARG116      0.1354
     48  NH2      -13.9540   33.8100   -7.7290 N.pl3 116  ARG116      0.1354
     49  N        -13.1620   38.0220  -14.2770 N.am  117  TYR117     -0.1960
     50  CA       -12.5060   39.0680  -15.0710 C.3   117  TYR117      0.1771
     51  C        -13.3730   40.3230  -15.0660 C.2   117  TYR117      0.2619
     52  O        -13.9880   40.6430  -14.0360 O.2   117  TYR117     -0.2715
     53  CB       -12.2220   38.5990  -16.5130 C.3   117  TYR117      0.0574
     54  CG       -11.6910   37.1920  -16.5140 C.ar  117  TYR117     -0.0198
     55  CD1      -10.4620   36.9050  -15.9520 C.ar  117  TYR117     -0.0009
     56  CD2      -12.4340   36.1400  -17.0360 C.ar  117  TYR117     -0.0009
     57  CE1       -9.9720   35.5930  -15.9240 C.ar  117  TYR117      0.0417
     58  CE2      -11.9530   34.8370  -17.0090 C.ar  117  TYR117      0.0417
     59  CZ       -10.7340   34.5700  -16.4540 C.ar  117  TYR117      0.1957
     60  OH       -10.2630   33.2730  -16.4110 O.3   117  TYR117     -0.2866
     61  N        -13.4300   41.0360  -16.1840 N.am  118  GLU118     -0.1963
     62  CA       -14.2290   42.2660  -16.2210 C.3   118  GLU118      0.1733
     63  C        -15.7010   41.9680  -16.4730 C.2   118  GLU118      0.2616
     64  O        -16.5090   42.8900  -16.5990 O.2   118  GLU118     -0.2715
     65  CB       -13.7160   43.2480  -17.2820 C.3   118  GLU118      0.0429
     66  CG       -12.2420   43.5760  -17.1570 C.3   118  GLU118      0.1163
     67  CD       -11.9060   44.1470  -15.7970 C.2   118  GLU118      0.3649
     68  OE1      -12.5830   45.1120  -15.3790 O.co2 118  GLU118     -0.2457
     69  OE2      -10.9840   43.6210  -15.1380 O.co2 118  GLU118     -0.2457
     70  N        -16.0440   40.6890  -16.5720 N.am  119  GLY119     -0.1955
     71  CA       -17.4270   40.2860  -16.7270 C.3   119  GLY119      0.1869
     72  C        -17.7160   39.5400  -18.0120 C.2   119  GLY119      0.2309
     73  O        -16.8330   38.8690  -18.5380 O.2   119  GLY119     -0.2863
     74  N        -28.9340   40.5240  -10.9340 N.3   133  TRP133     -0.1227
     75  CA       -29.0280   40.8950   -9.5060 C.3   133  TRP133      0.1737
     76  C        -27.6680   41.2470   -8.9290 C.2   133  TRP133      0.2596
     77  O        -26.6540   40.6570   -9.3090 O.2   133  TRP133     -0.2718
     78  CB       -29.6110   39.7450   -8.7000 C.3   133  TRP133      0.0564
     79  CG       -31.0650   39.5320   -8.9390 C.ar  133  TRP133      0.0003
     80  CD1      -31.6400   38.9070  -10.0220 C.ar  133  TRP133      0.0946
     81  CD2      -32.1460   39.9440   -8.0890 C.ar  133  TRP133      0.0152
     82  NE1      -33.0150   38.9190   -9.8830 N.ar  133  TRP133     -0.2442
     83  CE2      -33.3440   39.5390   -8.7050 C.ar  133  TRP133      0.0810
     84  CE3      -32.2150   40.6190   -6.8630 C.ar  133  TRP133      0.0012
     85  CZ2      -34.5910   39.7730   -8.1360 C.ar  133  TRP133      0.0191
     86  CZ3      -33.4560   40.8560   -6.3000 C.ar  133  TRP133      0.0001
     87  CH2      -34.6290   40.4360   -6.9390 C.ar  133  TRP133      0.0015
     88  N        -27.6590   42.1810   -7.9860 N.am  134  SER134     -0.1938
     89  CA       -26.4340   42.5260   -7.2410 C.3   134  SER134      0.2055
     90  C        -26.5810   42.1750   -5.7670 C.2   134  SER134      0.2643
     91  O        -27.6420   42.3920   -5.1920 O.2   134  SER134     -0.2714
     92  CB       -26.1380   44.0220   -7.3500 C.3   134  SER134      0.2130
     93  OG       -25.1030   44.4040   -6.4540 O.3   134  SER134     -0.2179
     94  N        -25.5280   41.6600   -5.1330 N.am  135  ILE135     -0.1963
     95  CA       -25.6580   41.4240   -3.6840 C.3   135  ILE135      0.1727
     96  C        -25.2620   42.6470   -2.8750 C.2   135  ILE135      0.2616
     97  O        -25.4630   42.6990   -1.6600 O.2   135  ILE135     -0.2715
     98  CB       -24.8480   40.2010   -3.1930 C.3   135  ILE135      0.0290
     99  CG1      -23.3520   40.3300   -3.4730 C.3   135  ILE135      0.0022
    100  CG2      -25.3890   38.9260   -3.7880 C.3   135  ILE135      0.0023
    101  CD1      -22.5430   39.6740   -2.3200 C.3   135  ILE135      0.0001
    102  N        -24.7310   43.6610   -3.5390 N.am  136  GLY136     -0.1955
    103  CA       -24.4310   44.8890   -2.8260 C.3   136  GLY136      0.1869
    104  C        -23.5540   45.7930   -3.6590 C.2   136  GLY136      0.2309
    105  O        -22.9690   45.3550   -4.6470 O.2   136  GLY136     -0.2863
    106  N        -20.6340   46.9520   -3.9790 N.3   138  TYR138     -0.1227
    107  CA       -19.1890   46.7920   -3.8100 C.3   138  TYR138      0.1736
    108  C        -18.7180   45.8170   -4.8510 C.2   138  TYR138      0.2595
    109  O        -19.5220   45.1020   -5.4770 O.2   138  TYR138     -0.2718
    110  CB       -18.8540   46.3450   -2.3550 C.3   138  TYR138      0.0548
    111  CG       -19.8070   45.2880   -1.7660 C.ar  138  TYR138     -0.0200
    112  CD1      -19.6820   43.9590   -2.1060 C.ar  138  TYR138     -0.0009
    113  CD2      -20.8030   45.6430   -0.8680 C.ar  138  TYR138     -0.0009
    114  CE1      -20.5560   42.9950   -1.5910 C.ar  138  TYR138      0.0417
    115  CE2      -21.6790   44.7000   -0.3360 C.ar  138  TYR138      0.0417
    116  CZ       -21.5420   43.3800   -0.6900 C.ar  138  TYR138      0.1957
    117  OH       -22.4030   42.4300   -0.1840 O.3   138  TYR138     -0.2866
    118  N        -17.4070   45.7880   -5.0840 N.am  139  VAL139     -0.1966
    119  CA       -16.8730   45.0100   -6.1760 C.3   139  VAL139      0.1727
    120  C        -16.0830   43.8210   -5.6710 C.2   139  VAL139      0.2616
    121  O        -15.1770   43.9860   -4.8260 O.2   139  VAL139     -0.2715
    122  CB       -15.9580   45.8840   -7.0540 C.3   139  VAL139      0.0290
    123  CG1      -15.4200   45.1210   -8.2310 C.3   139  VAL139      0.0023
    124  CG2      -16.7140   47.1510   -7.4810 C.3   139  VAL139      0.0023
    125  N        -16.4420   42.6500   -6.1760 N.am  140  LEU140     -0.1963
    126  CA       -15.7520   41.4140   -5.8240 C.3   140  LEU140      0.1728
    127  C        -14.9120   40.9040   -6.9710 C.2   140  LEU140      0.2617
    128  O        -14.9710   41.4450   -8.1030 O.2   140  LEU140     -0.2715
    129  CB       -16.7630   40.3580   -5.4100 C.3   140  LEU140      0.0311
    130  CG       -17.6400   40.8640   -4.2450 C.3   140  LEU140      0.0022
    131  CD1      -18.6740   39.7990   -3.9820 C.3   140  LEU140      0.0001
    132  CD2      -16.8640   41.1920   -2.9810 C.3   140  LEU140      0.0001
    133  N        -14.1370   39.8450   -6.7180 N.am  141  THR141     -0.1937
    134  CA       -13.2990   39.2800   -7.7960 C.3   141  THR141      0.2028
    135  C        -14.0340   38.3200   -8.7140 C.2   141  THR141      0.2643
    136  O        -13.5030   37.9070   -9.7450 O.2   141  THR141     -0.2714
    137  CB       -12.0480   38.5310   -7.2150 C.3   141  THR141      0.1808
    138  OG1      -12.4850   37.4160   -6.4140 O.3   141  THR141     -0.2208
    139  CG2      -11.2120   39.4640   -6.4020 C.3   141  THR141      0.0379
    140  N        -15.2750   37.9770   -8.3790 N.am  142  GLY142     -0.1939
    141  CA       -16.0570   37.1210   -9.2340 C.3   142  GLY142      0.2014
    142  C        -17.4590   36.9780   -8.6900 C.2   142  GLY142      0.2639
    143  O        -17.7580   37.4330   -7.5690 O.2   142  GLY142     -0.2714
    144  N        -18.3190   36.3190   -9.4600 N.am  143  GLY143     -0.1954
    145  CA       -19.7060   36.1220   -9.0400 C.3   143  GLY143      0.1869
    146  C        -19.9850   34.9320   -8.1170 C.2   143  GLY143      0.2309
    147  O        -21.1230   34.7300   -7.6750 O.2   143  GLY143     -0.2863
    148  N        -21.1980   36.0010   -4.5250 N.3   146  PRO146     -0.2116
    149  CA       -22.5950   36.4410   -4.6490 C.3   146  PRO146      0.1372
    150  C        -23.5720   35.2880   -4.8830 C.2   146  PRO146      0.2244
    151  O        -24.6740   35.2560   -4.3240 O.2   146  PRO146     -0.2868
    152  CB       -22.5510   37.3600   -5.8880 C.3   146  PRO146      0.0268
    153  CG       -21.1760   38.0000   -5.7930 C.3   146  PRO146      0.0207
    154  CD       -20.2650   36.8600   -5.3140 C.3   146  PRO146      0.0892
@<TRIPOS>BOND
     1    73    72    2
     2    72    71    1
     3    65    66    1
     4    65    62    1
     5    66    67    1
     6    56    58   ar
     7    56    54   ar
     8    58    59   ar
     9    71    70    1
    10    64    63    2
    11    70    63   am
    12    54    53    1
    13    54    55   ar
    14    53    50    1
    15    63    62    1
    16    59    60    1
    17    59    57   ar
    18    62    61    1
    19    61    51   am
    20    55    57   ar
    21    67    68   ar
    22    67    69   ar
    23    41    40    2
    24    10     8   ar
    25    10    11   ar
    26     8     6   ar
    27    12    11    1
    28    11     9   ar
    29     6     5    1
    30     6     7   ar
    31    50    51    1
    32    50    49    1
    33    51    52    2
    34     5     2    1
    35     9     7   ar
    36    40    49   am
    37    40    39    1
    38    38    39    1
    39    38    36   am
    40    35    36    1
    41    35    34    1
    42     2     1    1
    43     2     3    1
    44    39    42    1
    45    42    43    1
    46    36    37    2
    47    26    25    1
    48     3     4    2
    49     3    13   am
    50    25    22    1
    51    43    44    1
    52    13    14    1
    53    16    15    2
    54    44    45    1
    55    15    21   am
    56    15    14    1
    57    22    21    1
    58    22    23    1
    59    74    75    1
    60    14    17    1
    61    33    27    1
    62    33    32    1
    63    29    30    2
    64    29    28    1
    65    23    27   am
    66    23    24    2
    67    27    28    1
    68    80    82   ar
    69    80    79   ar
    70    45    46    2
    71    82    83   ar
    72   136   135    2
    73    17    18    1
    74    28    31    1
    75    32    31    1
    76    75    76    1
    77    75    78    1
    78    20    18    1
    79   144   145    1
    80   144   142   am
    81    77    76    2
    82   141   142    1
    83   141   140    1
    84   145   146    1
    85    79    78    1
    86    79    81   ar
    87    76    88   am
    88    47    46    1
    89    46    48    1
    90    18    19    1
    91   135   140   am
    92   135   134    1
    93    83    85   ar
    94    83    81   ar
    95   142   143    2
    96   123   122    1
    97    85    87   ar
    98   146   147    2
    99   128   127    2
   100    81    84   ar
   101    88    89    1
   102   134   137    1
   103   134   133    1
   104   124   122    1
   105    92    89    1
   106    92    93    1
   107    89    90    1
   108   137   138    1
   109   137   139    1
   110   122   119    1
   111   127   133   am
   112   127   126    1
   113    87    86   ar
   114    84    86   ar
   115   119   120    1
   116   119   118    1
   117   125   126    1
   118   125   120   am
   119   152   153    1
   120   152   149    1
   121   126   129    1
   122   153   154    1
   123    90    91    2
   124    90    94   am
   125   120   121    2
   126   109   108    2
   127   129   130    1
   128   154   148    1
   129    94    95    1
   130   118   108   am
   131   150   149    1
   132   150   151    2
   133   108   107    1
   134   149   148    1
   135   105   104    2
   136   130   131    1
   137   130   132    1
   138   106   107    1
   139   107   110    1
   140   100    98    1
   141    95    98    1
   142    95    96    1
   143   104   103    1
   144   102    96   am
   145   102   103    1
   146    99    98    1
   147    99   101    1
   148    96    97    2
   149   110   111    1
   150   112   111   ar
   151   112   114   ar
   152   111   113   ar
   153   114   116   ar
   154   113   115   ar
   155   116   115   ar
   156   116   117    1
