@<TRIPOS>MOLECULE
tmp/4yqsA00.pdb
 154 156 0 0 0
SMALL
GASTEIGER

@<TRIPOS>ATOM
      1  N        -27.8160   36.7740  -13.8140 N.3    88  TYR88      -0.1227
      2  CA       -26.4120   37.1440  -13.8420 C.3    88  TYR88       0.1736
      3  C        -26.1230   38.0080  -12.5850 C.2    88  TYR88       0.2595
      4  O        -26.7940   39.0110  -12.3540 O.2    88  TYR88      -0.2718
      5  CB       -26.0950   37.9730  -15.0950 C.3    88  TYR88       0.0548
      6  CG       -24.6290   38.4240  -15.1550 C.ar   88  TYR88      -0.0200
      7  CD1      -23.5860   37.5100  -14.9790 C.ar   88  TYR88      -0.0009
      8  CD2      -24.2900   39.7670  -15.4020 C.ar   88  TYR88      -0.0009
      9  CE1      -22.2370   37.9350  -15.0560 C.ar   88  TYR88       0.0417
     10  CE2      -22.9550   40.1790  -15.4860 C.ar   88  TYR88       0.0417
     11  CZ       -21.9590   39.2740  -15.2500 C.ar   88  TYR88       0.1957
     12  OH       -20.6710   39.6710  -15.3700 O.3    88  TYR88      -0.2866
     13  N        -25.1570   37.6410  -11.7630 N.am   89  LEU89      -0.1966
     14  CA       -24.8320   38.4530  -10.5920 C.3    89  LEU89       0.1728
     15  C        -23.9190   39.6040  -10.9860 C.2    89  LEU89       0.2617
     16  O        -22.8520   39.3690  -11.5500 O.2    89  LEU89      -0.2715
     17  CB       -24.1190   37.5820   -9.5080 C.3    89  LEU89       0.0311
     18  CG       -24.9420   36.5820   -8.6970 C.3    89  LEU89       0.0022
     19  CD1      -26.1560   37.2610   -8.0380 C.3    89  LEU89       0.0001
     20  CD2      -25.4380   35.3990   -9.5700 C.3    89  LEU89       0.0001
     21  N        -24.3280   40.8370  -10.7100 N.am   90  SER90      -0.1936
     22  CA       -23.4110   41.9730  -10.9640 C.3    90  SER90       0.2040
     23  C        -23.8620   43.2190  -10.2010 C.2    90  SER90       0.2485
     24  O        -25.0440   43.3210   -9.8050 O.2    90  SER90      -0.2729
     25  CB       -23.3200   42.2950  -12.4590 C.3    90  SER90       0.2129
     26  OG       -24.3020   43.2080  -12.8320 O.3    90  SER90      -0.2179
     27  N        -22.9310   44.1830  -10.0220 N.am   91  PRO91      -0.2726
     28  CA       -23.2350   45.4530   -9.3460 C.3    91  PRO91       0.1402
     29  C        -24.2240   46.3160  -10.1730 C.2    91  PRO91       0.2269
     30  O        -24.7740   47.2900   -9.6410 O.2    91  PRO91      -0.2865
     31  CB       -21.8540   46.1390   -9.2610 C.3    91  PRO91       0.0296
     32  CG       -20.8540   45.0070   -9.3570 C.3    91  PRO91       0.0237
     33  CD       -21.4940   44.0930  -10.3850 C.3    91  PRO91       0.0939
     34  N        -19.7640   35.8490  -13.0740 N.3   115  GLY115     -0.1210
     35  CA       -18.7490   36.4700  -13.9190 C.3   115  GLY115      0.1956
     36  C        -17.3690   36.3980  -13.2390 C.2   115  GLY115      0.2612
     37  O        -17.2790   36.3310  -11.9950 O.2   115  GLY115     -0.2717
     38  N        -16.3120   36.4470  -14.0590 N.am  116  ARG116     -0.1965
     39  CA       -14.9450   36.5940  -13.6100 C.3   116  ARG116      0.1729
     40  C        -14.2810   37.6260  -14.5130 C.2   116  ARG116      0.2616
     41  O        -14.8910   38.0710  -15.5140 O.2   116  ARG116     -0.2715
     42  CB       -14.1910   35.2290  -13.6040 C.3   116  ARG116      0.0348
     43  CG       -14.4680   34.3710  -12.2920 C.3   116  ARG116      0.0492
     44  CD       -13.6040   34.8660  -11.1030 C.3   116  ARG116      0.2205
     45  NE       -14.1700   34.4180   -9.8310 N.pl3 116  ARG116     -0.0865
     46  CZ       -13.5880   34.5560   -8.6510 C.cat 116  ARG116      0.5346
     47  NH1      -14.2380   34.1260   -7.5550 N.pl3 116  ARG116      0.1354
     48  NH2      -12.3470   35.0490   -8.5560 N.pl3 116  ARG116      0.1354
     49  N        -13.0680   38.0510  -14.1490 N.am  117  TYR117     -0.1960
     50  CA       -12.3350   39.0860  -14.9090 C.3   117  TYR117      0.1771
     51  C        -13.1420   40.3430  -14.9420 C.2   117  TYR117      0.2619
     52  O        -13.7400   40.6900  -13.9280 O.2   117  TYR117     -0.2715
     53  CB       -12.0410   38.5880  -16.3410 C.3   117  TYR117      0.0574
     54  CG       -11.5100   37.1730  -16.3230 C.ar  117  TYR117     -0.0198
     55  CD1      -10.4150   36.8350  -15.5360 C.ar  117  TYR117     -0.0009
     56  CD2      -12.1360   36.1670  -17.0320 C.ar  117  TYR117     -0.0009
     57  CE1       -9.9490   35.5200  -15.4850 C.ar  117  TYR117      0.0417
     58  CE2      -11.6920   34.8510  -16.9670 C.ar  117  TYR117      0.0417
     59  CZ       -10.6060   34.5420  -16.2290 C.ar  117  TYR117      0.1957
     60  OH       -10.1910   33.2460  -16.2110 O.3   117  TYR117     -0.2866
     61  N        -13.2160   41.0340  -16.0920 N.am  118  GLU118     -0.1963
     62  CA       -13.9830   42.2890  -16.1120 C.3   118  GLU118      0.1733
     63  C        -15.4750   42.0520  -16.3690 C.2   118  GLU118      0.2616
     64  O        -16.2480   43.0120  -16.4260 O.2   118  GLU118     -0.2715
     65  CB       -13.4660   43.2990  -17.1660 C.3   118  GLU118      0.0429
     66  CG       -11.9840   43.6730  -17.0230 C.3   118  GLU118      0.1163
     67  CD       -11.6080   44.0720  -15.5950 C.2   118  GLU118      0.3649
     68  OE1      -12.2710   44.9850  -15.0460 O.co2 118  GLU118     -0.2457
     69  OE2      -10.6640   43.4720  -15.0180 O.co2 118  GLU118     -0.2457
     70  N        -15.8690   40.8010  -16.5810 N.am  119  GLY119     -0.1955
     71  CA       -17.2860   40.4950  -16.6580 C.3   119  GLY119      0.1869
     72  C        -17.5990   39.7430  -17.9580 C.2   119  GLY119      0.2309
     73  O        -16.7380   39.0370  -18.4610 O.2   119  GLY119     -0.2863
     74  N        -28.9340   40.7880  -10.7790 N.3   133  TRP133     -0.1227
     75  CA       -29.1210   41.1040   -9.3440 C.3   133  TRP133      0.1737
     76  C        -27.7800   41.4600   -8.7270 C.2   133  TRP133      0.2596
     77  O        -26.7780   40.7550   -8.9700 O.2   133  TRP133     -0.2718
     78  CB       -29.6920   39.8990   -8.5920 C.3   133  TRP133      0.0564
     79  CG       -31.1160   39.6670   -8.8620 C.ar  133  TRP133      0.0003
     80  CD1      -31.6390   38.9930   -9.9110 C.ar  133  TRP133      0.0946
     81  CD2      -32.2260   40.1270   -8.0670 C.ar  133  TRP133      0.0152
     82  NE1      -33.0310   39.0160   -9.8300 N.ar  133  TRP133     -0.2442
     83  CE2      -33.4000   39.6960   -8.6970 C.ar  133  TRP133      0.0810
     84  CE3      -32.3310   40.8760   -6.8800 C.ar  133  TRP133      0.0012
     85  CZ2      -34.6700   39.9550   -8.1700 C.ar  133  TRP133      0.0191
     86  CZ3      -33.5590   41.1240   -6.3680 C.ar  133  TRP133      0.0001
     87  CH2      -34.7320   40.6660   -7.0170 C.ar  133  TRP133      0.0015
     88  N        -27.7760   42.5050   -7.8940 N.am  134  SER134     -0.1938
     89  CA       -26.5890   42.8890   -7.1190 C.3   134  SER134      0.2055
     90  C        -26.7680   42.5260   -5.6460 C.2   134  SER134      0.2643
     91  O        -27.8590   42.7550   -5.0920 O.2   134  SER134     -0.2714
     92  CB       -26.3910   44.4130   -7.2230 C.3   134  SER134      0.2130
     93  OG       -25.4540   44.8010   -6.2630 O.3   134  SER134     -0.2179
     94  N        -25.7170   42.0460   -4.9570 N.am  135  ILE135     -0.1963
     95  CA       -25.8850   41.8480   -3.5130 C.3   135  ILE135      0.1727
     96  C        -25.5050   43.1010   -2.7490 C.2   135  ILE135      0.2616
     97  O        -25.7190   43.1980   -1.5440 O.2   135  ILE135     -0.2715
     98  CB       -25.0740   40.6360   -2.9760 C.3   135  ILE135      0.0290
     99  CG1      -23.5590   40.8120   -3.2350 C.3   135  ILE135      0.0022
    100  CG2      -25.6500   39.3130   -3.5700 C.3   135  ILE135      0.0023
    101  CD1      -22.6880   40.0100   -2.1700 C.3   135  ILE135      0.0001
    102  N        -24.9610   44.0820   -3.4420 N.am  136  GLY136     -0.1955
    103  CA       -24.6620   45.3390   -2.7670 C.3   136  GLY136      0.1869
    104  C        -23.7330   46.2050   -3.5990 C.2   136  GLY136      0.2309
    105  O        -23.1170   45.7230   -4.5470 O.2   136  GLY136     -0.2863
    106  N        -20.6830   47.3190   -3.9410 N.3   138  TYR138     -0.1227
    107  CA       -19.2440   47.1480   -3.7110 C.3   138  TYR138      0.1736
    108  C        -18.7810   46.1900   -4.7690 C.2   138  TYR138      0.2595
    109  O        -19.5840   45.4070   -5.3220 O.2   138  TYR138     -0.2718
    110  CB       -18.9310   46.6410   -2.2760 C.3   138  TYR138      0.0548
    111  CG       -19.9430   45.6140   -1.7420 C.ar  138  TYR138     -0.0200
    112  CD1      -19.9020   44.2930   -2.1690 C.ar  138  TYR138     -0.0009
    113  CD2      -20.9230   45.9740   -0.8280 C.ar  138  TYR138     -0.0009
    114  CE1      -20.8260   43.3370   -1.7190 C.ar  138  TYR138      0.0417
    115  CE2      -21.8670   45.0400   -0.3720 C.ar  138  TYR138      0.0417
    116  CZ       -21.7990   43.7170   -0.7940 C.ar  138  TYR138      0.1957
    117  OH       -22.7360   42.7900   -0.3420 O.3   138  TYR138     -0.2866
    118  N        -17.4930   46.2240   -5.0770 N.am  139  VAL139     -0.1966
    119  CA       -16.9820   45.4180   -6.2080 C.3   139  VAL139      0.1727
    120  C        -16.1760   44.2500   -5.7040 C.2   139  VAL139      0.2616
    121  O        -15.3170   44.4120   -4.8020 O.2   139  VAL139     -0.2715
    122  CB       -16.0930   46.2830   -7.1090 C.3   139  VAL139      0.0290
    123  CG1      -15.6210   45.4980   -8.3090 C.3   139  VAL139      0.0023
    124  CG2      -16.8790   47.4850   -7.5350 C.3   139  VAL139      0.0023
    125  N        -16.5130   43.0750   -6.2180 N.am  140  LEU140     -0.1963
    126  CA       -15.8700   41.8370   -5.8190 C.3   140  LEU140      0.1728
    127  C        -15.0320   41.2990   -6.9660 C.2   140  LEU140      0.2617
    128  O        -15.1680   41.8090   -8.0860 O.2   140  LEU140     -0.2715
    129  CB       -16.9290   40.8010   -5.4230 C.3   140  LEU140      0.0311
    130  CG       -17.8150   41.3390   -4.2450 C.3   140  LEU140      0.0022
    131  CD1      -18.8670   40.3200   -3.9200 C.3   140  LEU140      0.0001
    132  CD2      -17.0240   41.5750   -3.0150 C.3   140  LEU140      0.0001
    133  N        -14.2700   40.2170   -6.7380 N.am  141  THR141     -0.1937
    134  CA       -13.4110   39.6800   -7.8010 C.3   141  THR141      0.2028
    135  C        -14.1920   38.7310   -8.6970 C.2   141  THR141      0.2643
    136  O        -13.6920   38.2990   -9.7230 O.2   141  THR141     -0.2714
    137  CB       -12.1970   38.9220   -7.2120 C.3   141  THR141      0.1808
    138  OG1      -12.7000   37.8120   -6.4570 O.3   141  THR141     -0.2208
    139  CG2      -11.3350   39.8310   -6.3410 C.3   141  THR141      0.0379
    140  N        -15.3950   38.3130   -8.2830 N.am  142  GLY142     -0.1939
    141  CA       -16.1720   37.4590   -9.1850 C.3   142  GLY142      0.2014
    142  C        -17.6070   37.3200   -8.6590 C.2   142  GLY142      0.2639
    143  O        -17.9340   37.8130   -7.5280 O.2   142  GLY142     -0.2714
    144  N        -18.4410   36.6710   -9.4610 N.am  143  GLY143     -0.1954
    145  CA       -19.8510   36.4980   -9.0840 C.3   143  GLY143      0.1869
    146  C        -20.1490   35.3260   -8.1170 C.2   143  GLY143      0.2309
    147  O        -21.3120   35.1350   -7.7320 O.2   143  GLY143     -0.2863
    148  N        -21.4210   36.4160   -4.5490 N.3   146  PRO146     -0.2116
    149  CA       -22.8230   36.8630   -4.6250 C.3   146  PRO146      0.1372
    150  C        -23.7960   35.7020   -4.8990 C.2   146  PRO146      0.2244
    151  O        -24.9080   35.7040   -4.3920 O.2   146  PRO146     -0.2868
    152  CB       -22.8090   37.8440   -5.8260 C.3   146  PRO146      0.0268
    153  CG       -21.4180   38.4670   -5.7580 C.3   146  PRO146      0.0207
    154  CD       -20.5040   37.3280   -5.3000 C.3   146  PRO146      0.0892
@<TRIPOS>BOND
     1    73    72    2
     2    72    71    1
     3    65    66    1
     4    65    62    1
     5    56    58   ar
     6    56    54   ar
     7    66    67    1
     8    58    59   ar
     9    71    70    1
    10    70    63   am
    11    64    63    2
    12    63    62    1
    13    53    54    1
    14    53    50    1
    15    54    55   ar
    16    59    60    1
    17    59    57   ar
    18    62    61    1
    19    61    51   am
    20    67    68   ar
    21    67    69   ar
    22    55    57   ar
    23    41    40    2
    24    10     8   ar
    25    10    11   ar
    26     8     6   ar
    27    12    11    1
    28    11     9   ar
    29     6     5    1
    30     6     7   ar
    31     5     2    1
    32     9     7   ar
    33    51    50    1
    34    51    52    2
    35    50    49    1
    36    40    49   am
    37    40    39    1
    38    38    39    1
    39    38    36   am
    40    35    36    1
    41    35    34    1
    42     2     1    1
    43     2     3    1
    44    39    42    1
    45    42    43    1
    46    36    37    2
    47    26    25    1
    48     3     4    2
    49     3    13   am
    50    25    22    1
    51    43    44    1
    52    13    14    1
    53    16    15    2
    54    44    45    1
    55    15    21   am
    56    15    14    1
    57    22    21    1
    58    22    23    1
    59    74    75    1
    60    14    17    1
    61    33    27    1
    62    33    32    1
    63    23    27   am
    64    23    24    2
    65    29    30    2
    66    29    28    1
    67    27    28    1
    68    80    82   ar
    69    80    79   ar
    70    45    46    2
    71    82    83   ar
    72   136   135    2
    73    20    18    1
    74    17    18    1
    75   144   145    1
    76   144   142   am
    77    32    31    1
    78    28    31    1
    79    75    76    1
    80    75    78    1
    81   141   142    1
    82   141   140    1
    83   145   146    1
    84    77    76    2
    85    79    78    1
    86    79    81   ar
    87    76    88   am
    88    83    85   ar
    89    83    81   ar
    90   135   140   am
    91   135   134    1
    92    18    19    1
    93   142   143    2
    94    46    48    1
    95    46    47    1
    96   123   122    1
    97    85    87   ar
    98   146   147    2
    99   128   127    2
   100    81    84   ar
   101    88    89    1
   102   134   137    1
   103   134   133    1
   104   124   122    1
   105    92    89    1
   106    92    93    1
   107   137   138    1
   108   137   139    1
   109    89    90    1
   110   122   119    1
   111    87    86   ar
   112   127   133   am
   113   127   126    1
   114    84    86   ar
   115   125   126    1
   116   125   120   am
   117   119   120    1
   118   119   118    1
   119   152   153    1
   120   152   149    1
   121   126   129    1
   122   153   154    1
   123   120   121    2
   124    90    91    2
   125    90    94   am
   126   129   130    1
   127   109   108    2
   128   154   148    1
   129   118   108   am
   130    94    95    1
   131   150   149    1
   132   150   151    2
   133   108   107    1
   134   149   148    1
   135   105   104    2
   136   130   131    1
   137   130   132    1
   138   106   107    1
   139   107   110    1
   140   104   103    1
   141   100    98    1
   142    95    98    1
   143    95    96    1
   144   102   103    1
   145   102    96   am
   146    99    98    1
   147    99   101    1
   148    96    97    2
   149   110   111    1
   150   112   111   ar
   151   112   114   ar
   152   111   113   ar
   153   114   116   ar
   154   113   115   ar
   155   116   115   ar
   156   116   117    1
