@<TRIPOS>MOLECULE
tmp/4yqtA00.pdb
 163 165 0 0 0
SMALL
GASTEIGER

@<TRIPOS>ATOM
      1  N        -27.8280   36.5560  -13.8520 N.3    88  TYR88      -0.1227
      2  CA       -26.4380   36.9880  -13.8480 C.3    88  TYR88       0.1736
      3  C        -26.2220   37.9230  -12.6660 C.2    88  TYR88       0.2595
      4  O        -27.0030   38.8510  -12.4510 O.2    88  TYR88      -0.2718
      5  CB       -26.0790   37.7180  -15.1410 C.3    88  TYR88       0.0548
      6  CG       -24.6550   38.2290  -15.1820 C.ar   88  TYR88      -0.0200
      7  CD1      -23.5760   37.3780  -14.9400 C.ar   88  TYR88      -0.0009
      8  CD2      -24.3850   39.5580  -15.4800 C.ar   88  TYR88      -0.0009
      9  CE1      -22.2730   37.8440  -15.0010 C.ar   88  TYR88       0.0417
     10  CE2      -23.0920   40.0290  -15.5410 C.ar   88  TYR88       0.0417
     11  CZ       -22.0410   39.1720  -15.2920 C.ar   88  TYR88       0.1957
     12  OH       -20.7550   39.6460  -15.3640 O.3    88  TYR88      -0.2866
     13  N        -25.1650   37.6950  -11.9080 N.am   89  LEU89      -0.1966
     14  CA       -24.8850   38.5020  -10.7290 C.3    89  LEU89       0.1728
     15  C        -23.8120   39.5280  -11.0600 C.2    89  LEU89       0.2617
     16  O        -22.7260   39.1670  -11.5290 O.2    89  LEU89      -0.2715
     17  CB       -24.4390   37.6070   -9.5780 C.3    89  LEU89       0.0311
     18  CG       -25.5840   36.6820   -9.1860 C.3    89  LEU89       0.0022
     19  CD1      -25.0510   35.5260   -8.4130 C.3    89  LEU89       0.0001
     20  CD2      -26.6280   37.4370   -8.3770 C.3    89  LEU89       0.0001
     21  N        -24.1190   40.8030  -10.8240 N.am   90  SER90      -0.1936
     22  CA       -23.1350   41.8550  -11.0240 C.3    90  SER90       0.2040
     23  C        -23.5970   43.1010  -10.2870 C.2    90  SER90       0.2485
     24  O        -24.7730   43.2090   -9.9200 O.2    90  SER90      -0.2729
     25  CB       -22.9550   42.1720  -12.5180 C.3    90  SER90       0.2129
     26  OG       -23.9340   43.0980  -12.9480 O.3    90  SER90      -0.2179
     27  N        -22.6990   44.0690  -10.0730 N.am   91  PRO91      -0.2715
     28  CA       -23.1160   45.3260   -9.4320 C.3    91  PRO91       0.1536
     29  C        -24.1090   46.1340  -10.2430 C.2    91  PRO91       0.2598
     30  O        -24.7170   47.0600   -9.6920 O.2    91  PRO91      -0.2715
     31  CB       -21.7940   46.0800   -9.2380 C.3    91  PRO91       0.0310
     32  CG       -20.7560   45.0040   -9.1870 C.3    91  PRO91       0.0237
     33  CD       -21.2310   43.9710  -10.1830 C.3    91  PRO91       0.0939
     34  N        -24.2810   45.8310  -11.5340 N.am   92  GLN92      -0.1978
     35  CA       -25.2670   46.5080  -12.3700 C.3    92  GLN92       0.1601
     36  C        -26.6750   45.9510  -12.2000 C.2    92  GLN92       0.2287
     37  O        -27.6080   46.4540  -12.8440 O.2    92  GLN92      -0.2864
     38  CB       -24.8620   46.4130  -13.8500 C.3    92  GLN92       0.0394
     39  CG       -23.6550   47.2730  -14.2260 C.3    92  GLN92       0.0908
     40  CD       -22.3640   46.7930  -13.5820 C.2    92  GLN92       0.2608
     41  OE1      -21.9540   45.6420  -13.7590 O.2    92  GLN92      -0.2717
     42  NE2      -21.7290   47.6670  -12.8060 N.am   92  GLN92      -0.0878
     43  N        -19.7430   35.5730  -13.0250 N.3   115  GLY115     -0.1210
     44  CA       -18.7200   36.2000  -13.8480 C.3   115  GLY115      0.1956
     45  C        -17.3640   36.2220  -13.1630 C.2   115  GLY115      0.2612
     46  O        -17.2530   36.2540  -11.9330 O.2   115  GLY115     -0.2717
     47  N        -16.3160   36.1920  -13.9820 N.am  116  ARG116     -0.1965
     48  CA       -14.9420   36.4320  -13.5680 C.3   116  ARG116      0.1729
     49  C        -14.3260   37.4650  -14.5170 C.2   116  ARG116      0.2616
     50  O        -14.9690   37.9220  -15.4740 O.2   116  ARG116     -0.2715
     51  CB       -14.1380   35.1210  -13.4650 C.3   116  ARG116      0.0348
     52  CG       -14.4880   34.2580  -12.2050 C.3   116  ARG116      0.0492
     53  CD       -13.5800   34.5800  -11.0290 C.3   116  ARG116      0.2205
     54  NE       -14.1560   34.1350   -9.7560 N.pl3 116  ARG116     -0.0865
     55  CZ       -13.4930   34.1340   -8.6120 C.cat 116  ARG116      0.5346
     56  NH1      -12.2170   34.5230   -8.5890 N.pl3 116  ARG116      0.1354
     57  NH2      -14.0970   33.7230   -7.4910 N.pl3 116  ARG116      0.1354
     58  N        -13.0890   37.8570  -14.2230 N.am  117  TYR117     -0.1960
     59  CA       -12.3700   38.8930  -14.9950 C.3   117  TYR117      0.1771
     60  C        -13.1940   40.1830  -14.9300 C.2   117  TYR117      0.2619
     61  O        -13.7130   40.5260  -13.8530 O.2   117  TYR117     -0.2715
     62  CB       -12.0100   38.4000  -16.3930 C.3   117  TYR117      0.0574
     63  CG       -11.4980   36.9840  -16.3970 C.ar  117  TYR117     -0.0198
     64  CD1      -10.3070   36.6550  -15.7690 C.ar  117  TYR117     -0.0009
     65  CD2      -12.2220   35.9660  -17.0030 C.ar  117  TYR117     -0.0009
     66  CE1       -9.8430   35.3510  -15.7570 C.ar  117  TYR117      0.0417
     67  CE2      -11.7610   34.6630  -16.9940 C.ar  117  TYR117      0.0417
     68  CZ       -10.5780   34.3610  -16.3780 C.ar  117  TYR117      0.1957
     69  OH       -10.1270   33.0560  -16.3630 O.3   117  TYR117     -0.2866
     70  N        -13.3240   40.9180  -16.0340 N.am  118  GLU118     -0.1963
     71  CA       -14.1050   42.1480  -16.0350 C.3   118  GLU118      0.1733
     72  C        -15.5810   41.9190  -16.3150 C.2   118  GLU118      0.2616
     73  O        -16.3510   42.8840  -16.3040 O.2   118  GLU118     -0.2715
     74  CB       -13.5240   43.1830  -17.0080 C.3   118  GLU118      0.0429
     75  CG       -12.0420   43.4810  -16.7830 C.3   118  GLU118      0.1163
     76  CD       -11.7080   43.8140  -15.3370 C.2   118  GLU118      0.3649
     77  OE1      -12.4820   44.5600  -14.6960 O.co2 118  GLU118     -0.2457
     78  OE2      -10.6700   43.3210  -14.8390 O.co2 118  GLU118     -0.2457
     79  N        -15.9980   40.6750  -16.5510 N.am  119  GLY119     -0.1955
     80  CA       -17.3980   40.3590  -16.7020 C.3   119  GLY119      0.1869
     81  C        -17.6470   39.5840  -17.9810 C.2   119  GLY119      0.2309
     82  O        -16.7640   38.8830  -18.4930 O.2   119  GLY119     -0.2863
     83  N        -28.9480   40.6640  -10.9330 N.3   133  TRP133     -0.1227
     84  CA       -29.0660   40.9750   -9.5120 C.3   133  TRP133      0.1737
     85  C        -27.6960   41.2830   -8.9290 C.2   133  TRP133      0.2596
     86  O        -26.6870   40.7120   -9.3470 O.2   133  TRP133     -0.2718
     87  CB       -29.6380   39.7790   -8.7410 C.3   133  TRP133      0.0564
     88  CG       -31.0990   39.5720   -8.9520 C.ar  133  TRP133      0.0003
     89  CD1      -31.6960   38.9460  -10.0110 C.ar  133  TRP133      0.0946
     90  CD2      -32.1550   39.9840   -8.0800 C.ar  133  TRP133      0.0152
     91  NE1      -33.0660   38.9500   -9.8490 N.ar  133  TRP133     -0.2442
     92  CE2      -33.3690   39.5790   -8.6690 C.ar  133  TRP133      0.0810
     93  CE3      -32.1910   40.6560   -6.8500 C.ar  133  TRP133      0.0012
     94  CZ2      -34.6040   39.8240   -8.0760 C.ar  133  TRP133      0.0191
     95  CZ3      -33.4200   40.8970   -6.2640 C.ar  133  TRP133      0.0001
     96  CH2      -34.6090   40.4800   -6.8760 C.ar  133  TRP133      0.0015
     97  N        -27.6760   42.1800   -7.9450 N.am  134  SER134     -0.1938
     98  CA       -26.4760   42.5380   -7.1990 C.3   134  SER134      0.2055
     99  C        -26.6960   42.2100   -5.7340 C.2   134  SER134      0.2643
    100  O        -27.7950   42.4080   -5.2080 O.2   134  SER134     -0.2714
    101  CB       -26.2170   44.0430   -7.2800 C.3   134  SER134      0.2130
    102  OG       -25.1480   44.4240   -6.4190 O.3   134  SER134     -0.2179
    103  N        -25.6460   41.7300   -5.0600 N.am  135  ILE135     -0.1963
    104  CA       -25.7540   41.5380   -3.6110 C.3   135  ILE135      0.1727
    105  C        -25.4260   42.8010   -2.8280 C.2   135  ILE135      0.2616
    106  O        -25.5740   42.8100   -1.5930 O.2   135  ILE135     -0.2715
    107  CB       -24.9720   40.3190   -3.0730 C.3   135  ILE135      0.0290
    108  CG1      -23.4600   40.4890   -3.2690 C.3   135  ILE135      0.0022
    109  CG2      -25.5050   39.0330   -3.6770 C.3   135  ILE135      0.0023
    110  CD1      -22.6310   39.7210   -2.2140 C.3   135  ILE135      0.0001
    111  N        -24.9950   43.8610   -3.4890 N.am  136  GLY136     -0.1955
    112  CA       -24.6770   45.0920   -2.7900 C.3   136  GLY136      0.1869
    113  C        -23.7660   45.9630   -3.6190 C.2   136  GLY136      0.2309
    114  O        -23.1890   45.5310   -4.6240 O.2   136  GLY136     -0.2863
    115  N        -20.7950   47.0930   -4.0110 N.3   138  TYR138     -0.1227
    116  CA       -19.3620   46.9070   -3.8330 C.3   138  TYR138      0.1736
    117  C        -18.8770   45.9320   -4.8920 C.2   138  TYR138      0.2595
    118  O        -19.6730   45.2310   -5.5190 O.2   138  TYR138     -0.2718
    119  CB       -19.0010   46.4380   -2.4040 C.3   138  TYR138      0.0548
    120  CG       -19.9490   45.3970   -1.8330 C.ar  138  TYR138     -0.0200
    121  CD1      -19.8470   44.0610   -2.2000 C.ar  138  TYR138     -0.0009
    122  CD2      -20.9470   45.7560   -0.9310 C.ar  138  TYR138     -0.0009
    123  CE1      -20.7160   43.1180   -1.7050 C.ar  138  TYR138      0.0417
    124  CE2      -21.8250   44.8200   -0.4170 C.ar  138  TYR138      0.0417
    125  CZ       -21.6970   43.4960   -0.7980 C.ar  138  TYR138      0.1957
    126  OH       -22.5530   42.5520   -0.2970 O.3   138  TYR138     -0.2866
    127  N        -17.5620   45.8970   -5.0890 N.am  139  VAL139     -0.1966
    128  CA       -16.9450   45.1860   -6.2040 C.3   139  VAL139      0.1727
    129  C        -16.1230   44.0250   -5.6650 C.2   139  VAL139      0.2616
    130  O        -15.2900   44.2070   -4.7640 O.2   139  VAL139     -0.2715
    131  CB       -16.0530   46.1280   -7.0260 C.3   139  VAL139      0.0290
    132  CG1      -15.3890   45.3580   -8.1680 C.3   139  VAL139      0.0023
    133  CG2      -16.8790   47.2990   -7.5480 C.3   139  VAL139      0.0023
    134  N        -16.3320   42.8410   -6.2400 N.am  140  LEU140     -0.1963
    135  CA       -15.6230   41.6320   -5.8480 C.3   140  LEU140      0.1728
    136  C        -14.8490   41.0760   -7.0380 C.2   140  LEU140      0.2617
    137  O        -14.9960   41.5350   -8.1790 O.2   140  LEU140     -0.2715
    138  CB       -16.6060   40.5730   -5.3400 C.3   140  LEU140      0.0311
    139  CG       -17.5690   41.0150   -4.2380 C.3   140  LEU140      0.0022
    140  CD1      -18.5810   39.9080   -3.9790 C.3   140  LEU140      0.0001
    141  CD2      -16.8400   41.3850   -2.9540 C.3   140  LEU140      0.0001
    142  N        -14.0300   40.0510   -6.7670 N.am  141  THR141     -0.1937
    143  CA       -13.2310   39.4280   -7.8200 C.3   141  THR141      0.2028
    144  C        -14.0210   38.4550   -8.6870 C.2   141  THR141      0.2643
    145  O        -13.5200   38.0550   -9.7430 O.2   141  THR141     -0.2714
    146  CB       -12.0050   38.6990   -7.2580 C.3   141  THR141      0.1808
    147  OG1      -12.4310   37.6080   -6.4230 O.3   141  THR141     -0.2208
    148  CG2      -11.1140   39.6670   -6.4700 C.3   141  THR141      0.0379
    149  N        -15.2190   38.0620   -8.2740 N.am  142  GLY142     -0.1939
    150  CA       -16.0100   37.1270   -9.0510 C.3   142  GLY142      0.2014
    151  C        -17.4180   37.0480   -8.5080 C.2   142  GLY142      0.2639
    152  O        -17.7070   37.4800   -7.3820 O.2   142  GLY142     -0.2714
    153  N        -18.2920   36.4600   -9.3190 N.am  143  GLY143     -0.1954
    154  CA       -19.6690   36.3240   -8.8900 C.3   143  GLY143      0.1869
    155  C        -19.9980   35.1270   -8.0230 C.2   143  GLY143      0.2309
    156  O        -21.1630   34.9720   -7.6450 O.2   143  GLY143     -0.2863
    157  N        -21.3040   36.1660   -4.4510 N.3   146  PRO146     -0.2116
    158  CA       -22.7040   36.5930   -4.6070 C.3   146  PRO146      0.1372
    159  C        -23.6630   35.4450   -4.8610 C.2   146  PRO146      0.2244
    160  O        -24.7630   35.4260   -4.2990 O.2   146  PRO146     -0.2868
    161  CB       -22.6330   37.5660   -5.7960 C.3   146  PRO146      0.0268
    162  CG       -21.2690   38.1750   -5.6870 C.3   146  PRO146      0.0207
    163  CD       -20.3740   37.0550   -5.1850 C.3   146  PRO146      0.0892
@<TRIPOS>BOND
     1    82    81    2
     2    81    80    1
     3    74    75    1
     4    74    71    1
     5    65    67   ar
     6    65    63   ar
     7    67    68   ar
     8    75    76    1
     9    80    79    1
    10    79    72   am
    11    63    62    1
    12    63    64   ar
    13    62    59    1
    14    68    69    1
    15    68    66   ar
    16    72    73    2
    17    72    71    1
    18    71    70    1
    19    70    60   am
    20    64    66   ar
    21    10     8   ar
    22    10    11   ar
    23     8     6   ar
    24    50    49    2
    25    12    11    1
    26    76    78   ar
    27    76    77   ar
    28    11     9   ar
    29     6     5    1
    30     6     7   ar
    31     5     2    1
    32     9     7   ar
    33    59    60    1
    34    59    58    1
    35    60    61    2
    36    49    58   am
    37    49    48    1
    38    39    38    1
    39    39    40    1
    40    47    48    1
    41    47    45   am
    42     1     2    1
    43    38    35    1
    44     2     3    1
    45    44    45    1
    46    44    43    1
    47    41    40    2
    48    40    42   am
    49    48    51    1
    50    51    52    1
    51    45    46    2
    52    26    25    1
    53    37    36    2
    54     3     4    2
    55     3    13   am
    56    25    22    1
    57    35    36    1
    58    35    34    1
    59    52    53    1
    60    13    14    1
    61    34    29   am
    62    16    15    2
    63    15    21   am
    64    15    14    1
    65    53    54    1
    66    22    21    1
    67    22    23    1
    68    83    84    1
    69    14    17    1
    70    23    27   am
    71    23    24    2
    72    29    30    2
    73    29    28    1
    74    33    27    1
    75    33    32    1
    76    27    28    1
    77    89    91   ar
    78    89    88   ar
    79    91    92   ar
    80    54    55    2
    81   145   144    2
    82    17    18    1
    83    84    85    1
    84    84    87    1
    85    28    31    1
    86    86    85    2
    87   153   154    1
    88   153   151   am
    89    31    32    1
    90    18    19    1
    91    18    20    1
    92   150   151    1
    93   150   149    1
    94    88    87    1
    95    88    90   ar
    96    85    97   am
    97   154   155    1
    98   144   149   am
    99   144   143    1
   100    92    90   ar
   101    92    94   ar
   102    55    56    1
   103    55    57    1
   104   151   152    2
   105   137   136    2
   106   132   131    1
   107    90    93   ar
   108    94    96   ar
   109   155   156    2
   110    97    98    1
   111   143   146    1
   112   143   142    1
   113   133   131    1
   114   101    98    1
   115   101   102    1
   116   146   148    1
   117   146   147    1
   118    98    99    1
   119   136   142   am
   120   136   135    1
   121   131   128    1
   122    96    95   ar
   123    93    95   ar
   124   134   135    1
   125   134   129   am
   126   128   129    1
   127   128   127    1
   128   135   138    1
   129   161   162    1
   130   161   158    1
   131    99   100    2
   132    99   103   am
   133   162   163    1
   134   129   130    2
   135   118   117    2
   136   138   139    1
   137   163   157    1
   138   127   117   am
   139   103   104    1
   140   117   116    1
   141   159   158    1
   142   159   160    2
   143   114   113    2
   144   158   157    1
   145   139   140    1
   146   139   141    1
   147   115   116    1
   148   116   119    1
   149   109   107    1
   150   113   112    1
   151   104   107    1
   152   104   105    1
   153   111   105   am
   154   111   112    1
   155   108   107    1
   156   108   110    1
   157   105   106    2
   158   119   120    1
   159   121   120   ar
   160   121   123   ar
   161   120   122   ar
   162   123   125   ar
   163   122   124   ar
   164   125   124   ar
   165   125   126    1
