@<TRIPOS>MOLECULE
tmp/4yquB00.pdb
 181 179 0 0 0
SMALL
GASTEIGER

@<TRIPOS>ATOM
      1  N         29.7060   -1.1330   34.9610 N.3    25  MET25      -0.1245
      2  CA        30.2090   -2.3180   35.6750 C.3    25  MET25       0.1570
      3  C         31.7080   -2.2890   35.4540 C.2    25  MET25       0.2261
      4  O         32.1370   -2.1440   34.3090 O.2    25  MET25      -0.2867
      5  CB        29.5430   -3.6290   35.2150 C.3    25  MET25       0.0387
      6  CG        29.7030   -4.7700   36.2490 C.3    25  MET25       0.0595
      7  SD        31.2880   -5.6670   36.1690 S.3    25  MET25      -0.1393
      8  CE        30.9200   -6.8990   34.9190 C.3    25  MET25       0.0692
      9  N         34.1800   -4.2050   35.2420 N.3    27  PHE27      -0.1227
     10  CA        34.8990   -5.1540   34.3660 C.3    27  PHE27       0.1736
     11  C         34.2230   -5.3430   32.9810 C.2    27  PHE27       0.2596
     12  O         34.6400   -6.2010   32.1950 O.2    27  PHE27      -0.2718
     13  CB        35.0430   -6.5020   35.0840 C.3    27  PHE27       0.0547
     14  CG        35.7750   -6.3710   36.4040 C.ar   27  PHE27      -0.0202
     15  CD1       37.1670   -6.3390   36.4470 C.ar   27  PHE27      -0.0042
     16  CD2       35.0690   -6.2430   37.6040 C.ar   27  PHE27      -0.0042
     17  CE1       37.8420   -6.2260   37.6690 C.ar   27  PHE27      -0.0003
     18  CE2       35.7490   -6.1050   38.8200 C.ar   27  PHE27      -0.0003
     19  CZ        37.1300   -6.1060   38.8410 C.ar   27  PHE27      -0.0000
     20  N         33.2340   -4.5060   32.6670 N.am   28  CYS28      -0.1957
     21  CA        32.5160   -4.5680   31.3870 C.3    28  CYS28       0.1828
     22  C         33.3150   -3.8190   30.2950 C.2    28  CYS28       0.2467
     23  O         33.4450   -2.6090   30.4140 O.2    28  CYS28      -0.2730
     24  CB        31.1140   -3.9850   31.5520 C.3    28  CYS28       0.0996
     25  SG        30.1920   -3.8760   30.0020 S.3    28  CYS28      -0.0797
     26  N         33.8630   -4.4820   29.2470 N.am   29  PRO29      -0.2715
     27  CA        34.6310   -3.7300   28.2320 C.3    29  PRO29       0.1536
     28  C         33.7560   -2.7770   27.3850 C.2    29  PRO29       0.2598
     29  O         34.2670   -1.7660   26.9420 O.2    29  PRO29      -0.2715
     30  CB        35.2250   -4.8340   27.3580 C.3    29  PRO29       0.0310
     31  CG        34.1860   -5.9770   27.4560 C.3    29  PRO29       0.0237
     32  CD        33.8150   -5.9300   28.9200 C.3    29  PRO29       0.0939
     33  N         32.4400   -3.0540   27.2160 N.am   30  PHE30      -0.1974
     34  CA        31.5620   -2.1500   26.4470 C.3    30  PHE30       0.1639
     35  C         31.3800   -0.8070   27.1810 C.2    30  PHE30       0.2290
     36  O         31.4680    0.2540   26.5550 O.2    30  PHE30      -0.2864
     37  CB        30.2060   -2.8140   26.1770 C.3    30  PHE30       0.0560
     38  CG        30.2850   -3.9690   25.1990 C.ar   30  PHE30      -0.0200
     39  CD1       30.4270   -3.7370   23.8340 C.ar   30  PHE30      -0.0042
     40  CD2       30.2640   -5.2810   25.6490 C.ar   30  PHE30      -0.0042
     41  CE1       30.5040   -4.8100   22.9310 C.ar   30  PHE30      -0.0003
     42  CE2       30.3550   -6.3490   24.7510 C.ar   30  PHE30      -0.0003
     43  CZ        30.4360   -6.1060   23.3970 C.ar   30  PHE30      -0.0000
     44  N         25.2420   -7.1370   37.3350 N.3    52  LEU52      -0.1245
     45  CA        24.6920   -7.7520   36.1230 C.3    52  LEU52       0.1561
     46  C         24.1730   -9.1940   36.3300 C.2    52  LEU52       0.2260
     47  O         23.4640   -9.6970   35.4570 O.2    52  LEU52      -0.2867
     48  CB        25.7110   -7.7240   34.9760 C.3    52  LEU52       0.0270
     49  CG        26.2870   -6.3450   34.6110 C.3    52  LEU52       0.0019
     50  CD1       27.3170   -6.4860   33.5080 C.3    52  LEU52       0.0001
     51  CD2       25.1670   -5.3420   34.2000 C.3    52  LEU52       0.0001
     52  N         21.1510   -3.7260   29.5840 N.3    67  LEU67      -0.1231
     53  CA        22.6060   -3.7560   29.4710 C.3    67  LEU67       0.1693
     54  C         23.2450   -2.4430   29.8840 C.2    67  LEU67       0.2591
     55  O         22.6220   -1.3920   29.7320 O.2    67  LEU67      -0.2718
     56  CB        23.0010   -4.0470   28.0020 C.3    67  LEU67       0.0284
     57  CG        22.4740   -5.3710   27.3620 C.3    67  LEU67       0.0019
     58  CD1       22.9240   -5.4980   25.9170 C.3    67  LEU67       0.0001
     59  CD2       22.8710   -6.6160   28.1690 C.3    67  LEU67       0.0001
     60  N         24.5010   -2.5030   30.3580 N.am   68  VAL68      -0.1980
     61  CA        25.3490   -1.3230   30.6180 C.3    68  VAL68       0.1595
     62  C         26.2630   -1.1790   29.3700 C.2    68  VAL68       0.2287
     63  O         26.5610   -2.1960   28.7170 O.2    68  VAL68      -0.2864
     64  CB        26.1490   -1.3430   31.9650 C.3    68  VAL68       0.0276
     65  CG1       25.2180   -1.3240   33.1730 C.3    68  VAL68       0.0022
     66  CG2       27.1420   -2.5030   32.0560 C.3    68  VAL68       0.0022
     67  N         34.7750   -9.0390   19.8540 N.3   120  PRO120     -0.2116
     68  CA        34.1170   -9.2290   21.1520 C.3   120  PRO120      0.1372
     69  C         33.5010  -10.6370   21.3470 C.2   120  PRO120      0.2244
     70  O         33.6460  -11.2040   22.4300 O.2   120  PRO120     -0.2868
     71  CB        33.0650   -8.1200   21.1620 C.3   120  PRO120      0.0268
     72  CG        33.7170   -7.0290   20.3520 C.3   120  PRO120      0.0207
     73  CD        34.2570   -7.8220   19.2000 C.3   120  PRO120      0.0892
     74  N         36.3070  -13.2450   22.1750 N.3   123  VAL123     -0.1231
     75  CA        36.7610  -13.0600   23.5560 C.3   123  VAL123      0.1692
     76  C         35.7540  -13.7410   24.5040 C.2   123  VAL123      0.2592
     77  O         36.1640  -14.5120   25.3780 O.2   123  VAL123     -0.2718
     78  CB        36.9640  -11.5580   23.8840 C.3   123  VAL123      0.0266
     79  CG1       37.0480  -11.3390   25.3960 C.3   123  VAL123      0.0020
     80  CG2       38.2290  -11.0270   23.1880 C.3   123  VAL123      0.0020
     81  N         34.4650  -13.4850   24.2910 N.am  124  GLY124     -0.1957
     82  CA        33.3620  -14.0960   25.0440 C.3   124  GLY124      0.1869
     83  C         33.4200  -15.6140   25.0050 C.2   124  GLY124      0.2309
     84  O         33.3870  -16.2690   26.0530 O.2   124  GLY124     -0.2863
     85  N         36.6680  -16.9590   26.9070 N.3   127  ILE127     -0.1231
     86  CA        36.4800  -16.8740   28.3540 C.3   127  ILE127      0.1692
     87  C         35.6170  -18.0420   28.8470 C.2   127  ILE127      0.2591
     88  O         35.9730  -18.7010   29.8320 O.2   127  ILE127     -0.2718
     89  CB        35.8780  -15.5120   28.7750 C.3   127  ILE127      0.0266
     90  CG1       36.8980  -14.3680   28.5550 C.3   127  ILE127      0.0019
     91  CG2       35.4710  -15.5930   30.2600 C.3   127  ILE127      0.0020
     92  CD1       36.3130  -12.9540   28.6890 C.3   127  ILE127      0.0001
     93  N         34.5010  -18.3040   28.1490 N.am  128  ARG128     -0.1980
     94  CA        33.6060  -19.4140   28.4630 C.3   128  ARG128      0.1597
     95  C         34.2800  -20.7400   28.0540 C.2   128  ARG128      0.2287
     96  O         35.3020  -20.7100   27.3750 O.2   128  ARG128     -0.2864
     97  CB        32.2560  -19.2230   27.7620 C.3   128  ARG128      0.0334
     98  CG        31.4560  -18.0370   28.2640 C.3   128  ARG128      0.0492
     99  CD        30.1410  -17.9390   27.5290 C.3   128  ARG128      0.2205
    100  NE        30.0480  -16.6960   26.7670 N.pl3 128  ARG128     -0.0865
    101  CZ        30.0590  -16.6190   25.4400 C.cat 128  ARG128      0.5346
    102  NH1       30.1320  -17.7210   24.7020 N.pl3 128  ARG128      0.1354
    103  NH2       29.9780  -15.4400   24.8390 N.pl3 128  ARG128      0.1354
    104  N         39.2300   -4.6900   24.3440 N.3   174  TRP174     -0.1241
    105  CA        39.4100   -6.1050   24.0060 C.3   174  TRP174      0.1605
    106  C         40.8860   -6.4800   23.8940 C.2   174  TRP174      0.2264
    107  O         41.2500   -7.5980   24.2830 O.2   174  TRP174     -0.2867
    108  CB        38.5890   -6.4670   22.7660 C.3   174  TRP174      0.0550
    109  CG        37.1250   -6.5100   23.1250 C.ar  174  TRP174      0.0003
    110  CD1       36.4420   -7.5810   23.6380 C.ar  174  TRP174      0.0946
    111  CD2       36.2460   -5.3840   23.2420 C.ar  174  TRP174      0.0152
    112  NE1       35.1790   -7.1980   24.0150 N.ar  174  TRP174     -0.2442
    113  CE2       35.0300   -5.8550   23.7840 C.ar  174  TRP174      0.0810
    114  CE3       36.3430   -4.0270   22.8700 C.ar  174  TRP174      0.0012
    115  CZ2       33.8990   -5.0300   23.9220 C.ar  174  TRP174      0.0191
    116  CZ3       35.2300   -3.2050   23.0470 C.ar  174  TRP174      0.0001
    117  CH2       34.0420   -3.7050   23.5970 C.ar  174  TRP174      0.0015
    118  N         42.3650   -6.9350   27.4910 N.3   177  ARG177     -0.1245
    119  CA        42.1240   -8.2160   28.1500 C.3   177  ARG177      0.1563
    120  C         42.9610   -9.3640   27.5420 C.2   177  ARG177      0.2260
    121  O         43.1710  -10.3770   28.2050 O.2   177  ARG177     -0.2867
    122  CB        40.6360   -8.5380   28.1090 C.3   177  ARG177      0.0307
    123  CG        39.8650   -7.8130   29.2100 C.3   177  ARG177      0.0489
    124  CD        38.4810   -7.3950   28.7590 C.3   177  ARG177      0.2205
    125  NE        37.7470   -6.6140   29.7730 N.pl3 177  ARG177     -0.0865
    126  CZ        37.8870   -5.3020   29.9580 C.cat 177  ARG177      0.5346
    127  NH1       38.7540   -4.6060   29.2290 N.pl3 177  ARG177      0.1354
    128  NH2       37.1560   -4.6760   30.8730 N.pl3 177  ARG177      0.1354
    129  N         41.2790   -8.5870   37.0790 N.3   216  TRP216     -0.1241
    130  CA        40.4950   -9.1870   36.0060 C.3   216  TRP216      0.1605
    131  C         40.3380  -10.6990   36.2470 C.2   216  TRP216      0.2264
    132  O         39.2250  -11.1970   36.1320 O.2   216  TRP216     -0.2867
    133  CB        41.1110   -8.8920   34.6260 C.3   216  TRP216      0.0550
    134  CG        40.4560   -9.6380   33.4970 C.ar  216  TRP216      0.0003
    135  CD1       40.9500  -10.7280   32.8410 C.ar  216  TRP216      0.0946
    136  CD2       39.1560   -9.3850   32.9340 C.ar  216  TRP216      0.0152
    137  NE1       40.0660  -11.1340   31.8650 N.ar  216  TRP216     -0.2442
    138  CE2       38.9410  -10.3500   31.9250 C.ar  216  TRP216      0.0810
    139  CE3       38.1470   -8.4480   33.1980 C.ar  216  TRP216      0.0012
    140  CZ2       37.7770  -10.3770   31.1550 C.ar  216  TRP216      0.0191
    141  CZ3       36.9860   -8.4840   32.4460 C.ar  216  TRP216      0.0001
    142  CH2       36.8140   -9.4240   31.4230 C.ar  216  TRP216      0.0015
    143  N         37.8590  -11.2670   39.0700 N.3   219  PHE219     -0.1227
    144  CA        36.5040  -11.0920   38.5520 C.3   219  PHE219      0.1736
    145  C         36.0760  -12.3210   37.7950 C.2   219  PHE219      0.2595
    146  O         34.9790  -12.8300   38.0080 O.2   219  PHE219     -0.2718
    147  CB        36.4350   -9.8690   37.6030 C.3   219  PHE219      0.0547
    148  CG        35.2300   -9.8490   36.6850 C.ar  219  PHE219     -0.0202
    149  CD1       33.9580   -9.5680   37.1810 C.ar  219  PHE219     -0.0042
    150  CD2       35.3630  -10.1300   35.3330 C.ar  219  PHE219     -0.0042
    151  CE1       32.8470   -9.5550   36.3320 C.ar  219  PHE219     -0.0003
    152  CE2       34.2440  -10.1040   34.4780 C.ar  219  PHE219     -0.0003
    153  CZ        33.0000   -9.8190   34.9860 C.ar  219  PHE219     -0.0000
    154  N         36.9230  -12.7520   36.8550 N.am  220  LEU220     -0.1980
    155  CA        36.6180  -13.8680   35.9860 C.3   220  LEU220      0.1596
    156  C         36.3770  -15.1530   36.7620 C.2   220  LEU220      0.2287
    157  O         35.3690  -15.8000   36.4880 O.2   220  LEU220     -0.2864
    158  CB        37.7150  -14.0830   34.9430 C.3   220  LEU220      0.0297
    159  CG        37.1830  -14.4770   33.5770 C.3   220  LEU220      0.0022
    160  CD1       36.4180  -13.3030   32.9220 C.3   220  LEU220      0.0001
    161  CD2       38.3120  -14.9510   32.6880 C.3   220  LEU220      0.0001
    162  N         33.0340  -14.7380   38.2820 N.3   223  TYR223     -0.1227
    163  CA        32.0250  -14.7650   37.2090 C.3   223  TYR223      0.1736
    164  C         31.7630  -16.2080   36.7590 C.2   223  TYR223      0.2595
    165  O         30.6050  -16.6130   36.6600 O.2   223  TYR223     -0.2718
    166  CB        32.4510  -13.9030   35.9840 C.3   223  TYR223      0.0548
    167  CG        31.4530  -13.9820   34.8430 C.ar  223  TYR223     -0.0200
    168  CD1       31.4700  -15.0510   33.9480 C.ar  223  TYR223     -0.0009
    169  CD2       30.4300  -13.0480   34.7200 C.ar  223  TYR223     -0.0009
    170  CE1       30.4910  -15.1880   32.9650 C.ar  223  TYR223      0.0417
    171  CE2       29.4830  -13.1400   33.6990 C.ar  223  TYR223      0.0417
    172  CZ        29.5300  -14.2030   32.8090 C.ar  223  TYR223      0.1957
    173  OH        28.6010  -14.3080   31.7970 O.3   223  TYR223     -0.2866
    174  N         32.8420  -16.9630   36.4660 N.am  224  LEU224     -0.1980
    175  CA        32.7780  -18.3570   36.0200 C.3   224  LEU224      0.1596
    176  C         32.1950  -19.2920   37.1130 C.2   224  LEU224      0.2287
    177  O         31.7420  -20.4010   36.7880 O.2   224  LEU224     -0.2864
    178  CB        34.1660  -18.8420   35.5530 C.3   224  LEU224      0.0297
    179  CG        34.7530  -18.1090   34.3140 C.3   224  LEU224      0.0022
    180  CD1       36.1830  -18.5540   34.0300 C.3   224  LEU224      0.0001
    181  CD2       33.8850  -18.2920   33.0760 C.3   224  LEU224      0.0001
@<TRIPOS>BOND
     1    73    67    1
     2    73    72    1
     3    67    68    1
     4    72    71    1
     5    68    71    1
     6    68    69    1
     7    69    70    2
     8    74    75    1
     9   108   109    1
    10   108   105    1
    11   114   116   ar
    12   114   111   ar
    13    41    43   ar
    14    41    39   ar
    15   116   117   ar
    16   109   111   ar
    17   109   110   ar
    18    80    78    1
    19   111   113   ar
    20    43    42   ar
    21    75    78    1
    22    75    76    1
    23   117   115   ar
    24   110   112   ar
    25   113   115   ar
    26   113   112   ar
    27    39    38   ar
    28    78    79    1
    29   106   105    1
    30   106   107    2
    31   105   104    1
    32    81    76   am
    33    81    82    1
    34    76    77    2
    35   102   101    1
    36    42    40   ar
    37   103   101    1
    38    83    82    1
    39    83    84    2
    40    38    40   ar
    41    38    37    1
    42   101   100    2
    43    58    57    1
    44    37    34    1
    45    34    35    1
    46    34    33    1
    47    36    35    2
    48   100    99    1
    49    85    86    1
    50    29    28    2
    51    33    28   am
    52    30    31    1
    53    30    27    1
    54    57    56    1
    55    57    59    1
    56    96    95    2
    57    28    27    1
    58    31    32    1
    59   118   119    1
    60    99    98    1
    61   120   119    1
    62   120   121    2
    63    97    98    1
    64    97    94    1
    65    56    53    1
    66    95    94    1
    67   122   119    1
    68   122   123    1
    69    93    94    1
    70    93    87   am
    71    27    26    1
    72    86    89    1
    73    86    87    1
    74    90    92    1
    75    90    89    1
    76    63    62    2
    77   124   123    1
    78   124   125    1
    79    89    91    1
    80    87    88    2
    81    32    26    1
    82   127   126    1
    83    26    22   am
    84    62    61    1
    85    53    52    1
    86    53    54    1
    87    55    54    2
    88   125   126    2
    89    54    60   am
    90   126   128    1
    91    25    24    1
    92    22    23    2
    93    22    21    1
    94    60    61    1
    95    61    64    1
    96   140   142   ar
    97   140   138   ar
    98    21    24    1
    99    21    20    1
   100   142   141   ar
   101   173   172    1
   102   137   138   ar
   103   137   135   ar
   104   138   136   ar
   105    64    66    1
   106    64    65    1
   107    12    11    2
   108   141   139   ar
   109    20    11   am
   110   161   159    1
   111   172   170   ar
   112   172   171   ar
   113   135   134   ar
   114   160   159    1
   115   136   139   ar
   116   136   134   ar
   117   170   168   ar
   118    11    10    1
   119   181   179    1
   120   134   133    1
   121    50    49    1
   122   159   158    1
   123   171   169   ar
   124   168   167   ar
   125   180   179    1
   126    51    49    1
   127     4     3    2
   128   179   178    1
   129    10    13    1
   130    10     9    1
   131   152   153   ar
   132   152   150   ar
   133    49    48    1
   134   133   130    1
   135   169   167   ar
   136   167   166    1
   137     8     7    1
   138   158   155    1
   139     1     2    1
   140    48    45    1
   141   153   151   ar
   142    13    14    1
   143     5     2    1
   144     5     6    1
   145   150   148   ar
   146     3     2    1
   147    47    46    2
   148   178   175    1
   149   166   163    1
   150   155   156    1
   151   155   154    1
   152   130   131    1
   153   130   129    1
   154   175   174    1
   155   175   176    1
   156    45    46    1
   157    45    44    1
   158   132   131    2
   159     7     6    1
   160   151   149   ar
   161    14    15   ar
   162    14    16   ar
   163    15    17   ar
   164   174   164   am
   165   157   156    2
   166   165   164    2
   167   148   149   ar
   168   148   147    1
   169   164   163    1
   170   177   176    2
   171   154   145   am
   172   163   162    1
   173   147   144    1
   174    16    18   ar
   175    17    19   ar
   176   145   146    2
   177   145   144    1
   178   144   143    1
   179    18    19   ar
