@<TRIPOS>MOLECULE
tmp/4yqvC00.pdb
 178 175 0 0 0
SMALL
GASTEIGER

@<TRIPOS>ATOM
      1  N         54.3240   20.9600   -8.3410 N.3    25  MET25      -0.1245
      2  CA        55.0510   19.8610   -8.9750 C.3    25  MET25       0.1570
      3  C         55.2700   20.3500  -10.4000 C.2    25  MET25       0.2261
      4  O         54.3150   20.7780  -11.0310 O.2    25  MET25      -0.2867
      5  CB        54.3260   18.5110   -8.8620 C.3    25  MET25       0.0387
      6  CG        55.2850   17.3150   -9.0010 C.3    25  MET25       0.0595
      7  SD        55.6950   16.9550  -10.7270 S.3    25  MET25      -0.1393
      8  CE        54.2600   15.9750  -11.2050 C.3    25  MET25       0.0692
      9  N         55.6730   19.2790  -13.3030 N.3    27  PHE27      -0.1227
     10  CA        54.9850   18.6450  -14.4210 C.3    27  PHE27       0.1736
     11  C         53.4630   18.5800  -14.1990 C.2    27  PHE27       0.2596
     12  O         52.7380   18.1240  -15.0920 O.2    27  PHE27      -0.2718
     13  CB        55.5780   17.2510  -14.6640 C.3    27  PHE27       0.0547
     14  CG        57.0490   17.3080  -15.0270 C.ar   27  PHE27      -0.0202
     15  CD1       57.4630   17.8220  -16.2540 C.ar   27  PHE27      -0.0042
     16  CD2       58.0220   16.8890  -14.1250 C.ar   27  PHE27      -0.0042
     17  CE1       58.8200   17.8940  -16.5800 C.ar   27  PHE27      -0.0003
     18  CE2       59.3770   16.9540  -14.4560 C.ar   27  PHE27      -0.0003
     19  CZ        59.7670   17.4510  -15.6840 C.ar   27  PHE27      -0.0000
     20  N         52.9770   19.0990  -13.0580 N.am   28  CYS28      -0.1957
     21  CA        51.5540   19.0740  -12.7440 C.3    28  CYS28       0.1828
     22  C         50.7860   20.1790  -13.5160 C.2    28  CYS28       0.2467
     23  O         51.0490   21.3720  -13.3130 O.2    28  CYS28      -0.2730
     24  CB        51.3200   19.1720  -11.2400 C.3    28  CYS28       0.0996
     25  SG        49.5700   19.1390  -10.7740 S.3    28  CYS28      -0.0797
     26  N         49.8240   19.7940  -14.3990 N.am   29  PRO29      -0.2715
     27  CA        49.0720   20.8140  -15.1620 C.3    29  PRO29       0.1536
     28  C         48.1420   21.6520  -14.2730 C.2    29  PRO29       0.2598
     29  O         47.9100   22.8170  -14.5860 O.2    29  PRO29      -0.2715
     30  CB        48.2880   19.9820  -16.1870 C.3    29  PRO29       0.0310
     31  CG        48.1200   18.6370  -15.5400 C.3    29  PRO29       0.0237
     32  CD        49.3970   18.4220  -14.7700 C.3    29  PRO29       0.0939
     33  N         47.6160   21.0730  -13.1750 N.am   30  PHE30      -0.1974
     34  CA        46.7410   21.8040  -12.2530 C.3    30  PHE30       0.1639
     35  C         47.5350   22.9020  -11.5090 C.2    30  PHE30       0.2290
     36  O         47.0540   24.0270  -11.3860 O.2    30  PHE30      -0.2864
     37  CB        46.0690   20.8510  -11.2540 C.3    30  PHE30       0.0560
     38  CG        45.0100   19.9340  -11.8320 C.ar   30  PHE30      -0.0200
     39  CD1       43.7470   20.4210  -12.1620 C.ar   30  PHE30      -0.0042
     40  CD2       45.2630   18.5780  -12.0120 C.ar   30  PHE30      -0.0042
     41  CE1       42.7530   19.5630  -12.6450 C.ar   30  PHE30      -0.0003
     42  CE2       44.2810   17.7280  -12.5310 C.ar   30  PHE30      -0.0003
     43  CZ        43.0280   18.2240  -12.8350 C.ar   30  PHE30      -0.0000
     44  N         54.8490   13.8180   -5.5120 N.3    52  LEU52      -0.1245
     45  CA        53.4800   13.2920   -5.5120 C.3    52  LEU52       0.1561
     46  C         53.4510   11.7670   -5.4470 C.2    52  LEU52       0.2260
     47  O         52.4450   11.2050   -5.0290 O.2    52  LEU52      -0.2867
     48  CB        52.6770   13.8100   -6.7210 C.3    52  LEU52       0.0270
     49  CG        52.5000   15.3430   -6.8320 C.3    52  LEU52       0.0019
     50  CD1       51.7480   15.6950   -8.0840 C.3    52  LEU52       0.0001
     51  CD2       51.7660   15.9380   -5.5970 C.3    52  LEU52       0.0001
     52  N         48.4980   19.1170   -5.0290 N.3    68  VAL68      -0.1245
     53  CA        49.0430   20.4160   -5.4300 C.3    68  VAL68       0.1561
     54  C         48.0650   20.9880   -6.5070 C.2    68  VAL68       0.2260
     55  O         47.3860   20.2000   -7.1690 O.2    68  VAL68      -0.2867
     56  CB        50.5340   20.3750   -5.8920 C.3    68  VAL68       0.0252
     57  CG1       51.4520   19.9070   -4.7590 C.3    68  VAL68       0.0019
     58  CG2       50.7300   19.5180   -7.1390 C.3    68  VAL68       0.0019
     59  N         40.8970   16.9750  -18.5840 N.3   120  PRO120     -0.2116
     60  CA        41.9760   16.4800  -17.6980 C.3   120  PRO120      0.1372
     61  C         41.9060   14.9810  -17.3750 C.2   120  PRO120      0.2244
     62  O         42.9540   14.3390  -17.3110 O.2   120  PRO120     -0.2868
     63  CB        41.7950   17.3160  -16.4290 C.3   120  PRO120      0.0268
     64  CG        41.1570   18.5710  -16.9120 C.3   120  PRO120      0.0207
     65  CD        40.1890   18.1050  -17.9480 C.3   120  PRO120      0.0892
     66  N         43.0870   12.9700  -20.3540 N.3   123  VAL123     -0.1231
     67  CA        44.5480   13.1080  -20.3760 C.3   123  VAL123      0.1692
     68  C         45.1280   12.0800  -19.3810 C.2   123  VAL123      0.2592
     69  O         46.0020   11.3070  -19.7710 O.2   123  VAL123     -0.2718
     70  CB        44.9920   14.5790  -20.1100 C.3   123  VAL123      0.0266
     71  CG1       46.4560   14.6750  -19.6640 C.3   123  VAL123      0.0020
     72  CG2       44.7600   15.4460  -21.3520 C.3   123  VAL123      0.0020
     73  N         44.5560   12.0200  -18.1730 N.am  124  GLY124     -0.1957
     74  CA        44.9430   11.0900  -17.1110 C.3   124  GLY124      0.1869
     75  C         44.8900    9.6360  -17.5430 C.2   124  GLY124      0.2309
     76  O         45.8700    8.9040  -17.3670 O.2   124  GLY124     -0.2863
     77  N         47.7400    8.7620  -20.3740 N.3   127  ILE127     -0.1231
     78  CA        49.1270    8.5530  -19.9190 C.3   127  ILE127      0.1692
     79  C         49.2500    7.1760  -19.2120 C.2   127  ILE127      0.2591
     80  O         50.3560    6.6460  -19.1050 O.2   127  ILE127     -0.2718
     81  CB        49.6530    9.7210  -19.0180 C.3   127  ILE127      0.0266
     82  CG1       49.3060   11.0960  -19.5920 C.3   127  ILE127      0.0019
     83  CG2       51.1750    9.6290  -18.7770 C.3   127  ILE127      0.0020
     84  CD1       48.9090   12.0510  -18.5310 C.3   127  ILE127      0.0001
     85  N         48.1100    6.5830  -18.7910 N.am  128  ARG128     -0.1980
     86  CA        48.0610    5.2880  -18.0970 C.3   128  ARG128      0.1597
     87  C         47.4990    4.1440  -18.9920 C.2   128  ARG128      0.2287
     88  O         47.4880    2.9900  -18.5510 O.2   128  ARG128     -0.2864
     89  CB        47.2230    5.4180  -16.8060 C.3   128  ARG128      0.0334
     90  CG        47.7670    6.4620  -15.8270 C.3   128  ARG128      0.0492
     91  CD        47.0620    6.4660  -14.4830 C.3   128  ARG128      0.2205
     92  NE        45.7490    7.1140  -14.5320 N.pl3 128  ARG128     -0.0865
     93  CZ        45.5340    8.4070  -14.3020 C.cat 128  ARG128      0.5346
     94  NH1       46.5500    9.2200  -14.0340 N.pl3 128  ARG128      0.1354
     95  NH2       44.3060    8.9030  -14.3640 N.pl3 128  ARG128      0.1354
     96  N         46.6870   21.5760  -20.5420 N.3   176  TRP176     -0.1241
     97  CA        46.3580   20.3060  -21.1830 C.3   176  TRP176      0.1605
     98  C         46.6410   20.3420  -22.7050 C.2   176  TRP176      0.2264
     99  O         47.0830   19.3330  -23.2610 O.2   176  TRP176     -0.2867
    100  CB        44.9220   19.8940  -20.8460 C.3   176  TRP176      0.0550
    101  CG        44.8430   19.4600  -19.4090 C.ar  176  TRP176      0.0003
    102  CD1       45.0770   18.2040  -18.9250 C.ar  176  TRP176      0.0946
    103  CD2       44.7380   20.3170  -18.2600 C.ar  176  TRP176      0.0152
    104  NE1       45.0610   18.2150  -17.5460 N.ar  176  TRP176     -0.2442
    105  CE2       44.8540   19.4970  -17.1110 C.ar  176  TRP176      0.0810
    106  CE3       44.5030   21.6960  -18.0850 C.ar  176  TRP176      0.0012
    107  CZ2       44.7350   20.0040  -15.8120 C.ar  176  TRP176      0.0191
    108  CZ3       44.4100   22.1990  -16.7930 C.ar  176  TRP176      0.0001
    109  CH2       44.5410   21.3590  -15.6750 C.ar  176  TRP176      0.0015
    110  N         50.5260   20.0670  -23.5490 N.3   179  ARG179     -0.1245
    111  CA        51.0110   18.7010  -23.4490 C.3   179  ARG179      0.1563
    112  C         50.5630   17.7930  -24.6010 C.2   179  ARG179      0.2260
    113  O         51.0470   16.6550  -24.6770 O.2   179  ARG179     -0.2867
    114  CB        50.5330   18.1170  -22.1110 C.3   179  ARG179      0.0307
    115  CG        51.2450   18.7160  -20.9020 C.3   179  ARG179      0.0489
    116  CD        50.4150   18.5420  -19.6470 C.3   179  ARG179      0.2205
    117  NE        51.1300   18.9180  -18.4170 N.pl3 179  ARG179     -0.0865
    118  CZ        51.4010   20.1670  -18.0400 C.cat 179  ARG179      0.5346
    119  NH1       51.1210   21.1880  -18.8420 N.pl3 179  ARG179      0.1354
    120  NH2       52.0230   20.3990  -16.8930 N.pl3 179  ARG179      0.1354
    121  N         53.5760   16.4740  -26.7990 N.3   182  ALA182     -0.1231
    122  CA        54.3420   15.4260  -26.1160 C.3   182  ALA182      0.1694
    123  C         53.5860   14.0970  -26.0780 C.2   182  ALA182      0.2591
    124  O         54.1980   13.0490  -26.2380 O.2   182  ALA182     -0.2718
    125  CB        54.6740   15.8660  -24.7010 C.3   182  ALA182      0.0304
    126  N         52.2610   14.1350  -25.9070 N.am  183  MET183     -0.1979
    127  CA        51.4470   12.9190  -25.8820 C.3   183  MET183      0.1605
    128  C         51.1550   12.4100  -27.3010 C.2   183  MET183      0.2287
    129  O         50.4760   11.3920  -27.4500 O.2   183  MET183     -0.2864
    130  CB        50.1450   13.1610  -25.1190 C.3   183  MET183      0.0413
    131  CG        50.3470   13.2370  -23.6200 C.3   183  MET183      0.0598
    132  SD        48.9980   14.1140  -22.8060 S.3   183  MET183     -0.1393
    133  CE        47.7740   12.8320  -22.6860 C.3   183  MET183      0.0692
    134  N         59.2180   16.5950  -20.9960 N.3   218  TRP218     -0.1241
    135  CA        57.8660   16.0430  -20.9370 C.3   218  TRP218      0.1605
    136  C         57.9440   14.5170  -21.0190 C.2   218  TRP218      0.2264
    137  O         57.3290   13.8370  -20.2000 O.2   218  TRP218     -0.2867
    138  CB        56.9830   16.5760  -22.0760 C.3   218  TRP218      0.0550
    139  CG        56.4250   17.9710  -21.9650 C.ar  218  TRP218      0.0003
    140  CD1       56.3430   18.8890  -22.9750 C.ar  218  TRP218      0.0946
    141  CD2       55.7200   18.5400  -20.8480 C.ar  218  TRP218      0.0152
    142  NE1       55.6920   20.0200  -22.5380 N.ar  218  TRP218     -0.2442
    143  CE2       55.2930   19.8320  -21.2380 C.ar  218  TRP218      0.0810
    144  CE3       55.4550   18.1090  -19.5350 C.ar  218  TRP218      0.0012
    145  CZ2       54.5970   20.6820  -20.3740 C.ar  218  TRP218      0.0191
    146  CZ3       54.7870   18.9640  -18.6710 C.ar  218  TRP218      0.0001
    147  CH2       54.3890   20.2430  -19.0850 C.ar  218  TRP218      0.0015
    148  N         59.7170   12.8330  -17.8350 N.3   221  PHE221     -0.1227
    149  CA        58.8360   12.7150  -16.6750 C.3   221  PHE221      0.1736
    150  C         57.8540   11.5790  -16.9170 C.2   221  PHE221      0.2595
    151  O         57.6610   10.7330  -16.0500 O.2   221  PHE221     -0.2718
    152  CB        58.0800   14.0340  -16.3970 C.3   221  PHE221      0.0547
    153  CG        56.8170   13.8470  -15.5790 C.ar  221  PHE221     -0.0202
    154  CD1       56.8840   13.6130  -14.2070 C.ar  221  PHE221     -0.0042
    155  CD2       55.5680   13.8410  -16.1890 C.ar  221  PHE221     -0.0042
    156  CE1       55.7230   13.4020  -13.4600 C.ar  221  PHE221     -0.0003
    157  CE2       54.4080   13.6230  -15.4410 C.ar  221  PHE221     -0.0003
    158  CZ        54.4920   13.4120  -14.0820 C.ar  221  PHE221     -0.0000
    159  N         57.2340   11.5910  -18.1030 N.am  222  LEU222     -0.1980
    160  CA        56.2210   10.6570  -18.5800 C.3   222  LEU222      0.1596
    161  C         56.6810    9.2010  -18.5510 C.2   222  LEU222      0.2287
    162  O         55.8760    8.3390  -18.2010 O.2   222  LEU222     -0.2864
    163  CB        55.8390   11.0330  -20.0030 C.3   222  LEU222      0.0297
    164  CG        54.3770   10.9190  -20.3320 C.3   222  LEU222      0.0022
    165  CD1       53.8210   12.2650  -20.7890 C.3   222  LEU222      0.0001
    166  CD2       54.1510    9.8270  -21.3650 C.3   222  LEU222      0.0001
    167  N         56.8810    8.3740  -14.8190 N.3   225  TYR225     -0.1241
    168  CA        55.5310    8.4380  -14.2450 C.3   225  TYR225      0.1605
    169  C         54.7650    7.1340  -14.5330 C.2   225  TYR225      0.2264
    170  O         53.9230    6.7240  -13.7310 O.2   225  TYR225     -0.2867
    171  CB        54.7610    9.6630  -14.7830 C.3   225  TYR225      0.0534
    172  CG        53.3160    9.7440  -14.3360 C.ar  225  TYR225     -0.0201
    173  CD1       52.9830   10.1820  -13.0570 C.ar  225  TYR225     -0.0009
    174  CD2       52.2790    9.3830  -15.1920 C.ar  225  TYR225     -0.0009
    175  CE1       51.6540   10.2600  -12.6410 C.ar  225  TYR225      0.0417
    176  CE2       50.9470    9.4500  -14.7860 C.ar  225  TYR225      0.0417
    177  CZ        50.6390    9.8880  -13.5080 C.ar  225  TYR225      0.1957
    178  OH        49.3260    9.9620  -13.1050 O.3   225  TYR225     -0.2866
@<TRIPOS>BOND
     1   129   128    2
     2   128   127    1
     3   121   122    1
     4   124   123    2
     5   122   123    1
     6   122   125    1
     7   123   126   am
     8   126   127    1
     9   127   130    1
    10   130   131    1
    11   113   112    2
    12   112   111    1
    13   131   132    1
    14   110   111    1
    15   111   114    1
    16    99    98    2
    17   140   142   ar
    18   140   139   ar
    19   132   133    1
    20    98    97    1
    21   142   143   ar
    22   114   115    1
    23   138   139    1
    24   138   135    1
    25   139   141   ar
    26   166   164    1
    27    72    70    1
    28   143   141   ar
    29   143   145   ar
    30    97   100    1
    31    97    96    1
    32   136   135    1
    33   136   137    2
    34   134   135    1
    35   115   116    1
    36   141   144   ar
    37   100   101    1
    38   165   164    1
    39    67    66    1
    40    67    70    1
    41    67    68    1
    42   145   147   ar
    43    77    78    1
    44   164   163    1
    45    70    71    1
    46   163   160    1
    47    78    79    1
    48    78    81    1
    49    69    68    2
    50   116   117    1
    51    82    81    1
    52    82    84    1
    53   144   146   ar
    54   101   102   ar
    55   101   103   ar
    56    68    73   am
    57    79    80    2
    58    79    85   am
    59   147   146   ar
    60    81    83    1
    61    87    88    2
    62    87    86    1
    63   102   104   ar
    64   119   118    1
    65    85    86    1
    66    59    65    1
    67    59    60    1
    68   160   161    1
    69   160   159    1
    70   161   162    2
    71   117   118    2
    72   103   106   ar
    73   103   105   ar
    74    73    74    1
    75   159   150   am
    76    86    89    1
    77   106   108   ar
    78   118   120    1
    79    65    64    1
    80   148   149    1
    81    60    61    1
    82    60    63    1
    83   104   105   ar
    84    75    76    2
    85    75    74    1
    86    61    62    2
    87   105   107   ar
    88   150   149    1
    89   150   151    2
    90    64    63    1
    91    89    90    1
    92   108   109   ar
    93   149   152    1
    94    17    15   ar
    95    17    19   ar
    96   152   153    1
    97    15    14   ar
    98   155   153   ar
    99   155   157   ar
   100    30    31    1
   101    30    27    1
   102    90    91    1
   103   107   109   ar
   104    19    18   ar
   105   153   154   ar
   106    31    32    1
   107   157   158   ar
   108   174   176   ar
   109   174   172   ar
   110    27    26    1
   111    27    28    1
   112    12    11    2
   113    14    13    1
   114    14    16   ar
   115   167   168    1
   116   176   177   ar
   117   171   172    1
   118   171   168    1
   119    32    26    1
   120    13    10    1
   121    29    28    2
   122   169   168    1
   123   169   170    2
   124    92    91    1
   125    92    93    2
   126    18    16   ar
   127    10    11    1
   128    10     9    1
   129    26    22   am
   130    95    93    1
   131   172   173   ar
   132    93    94    1
   133    28    33   am
   134   154   156   ar
   135    11    20   am
   136   158   156   ar
   137    22    23    2
   138    22    21    1
   139   177   178    1
   140   177   175   ar
   141    33    34    1
   142    20    21    1
   143   173   175   ar
   144    43    41   ar
   145    43    42   ar
   146    21    24    1
   147    41    39   ar
   148    42    40   ar
   149    34    35    1
   150    34    37    1
   151    39    38   ar
   152    40    38   ar
   153    38    37    1
   154    35    36    2
   155    24    25    1
   156     8     7    1
   157     4     3    2
   158     7     6    1
   159     3     2    1
   160     6     5    1
   161     2     5    1
   162     2     1    1
   163    50    49    1
   164    55    54    2
   165    58    56    1
   166    49    48    1
   167    49    51    1
   168    48    45    1
   169    54    53    1
   170    56    53    1
   171    56    57    1
   172    44    45    1
   173    45    46    1
   174    46    47    2
   175    53    52    1
