@<TRIPOS>MOLECULE
tmp/4yr6A00.pdb
 109 106 0 0 0
SMALL
GASTEIGER

@<TRIPOS>ATOM
      1  N        -48.6040  -43.8160   42.4560 N.3    33  ASN33      -0.1240
      2  CA       -47.1770  -44.1070   42.6350 C.3    33  ASN33       0.1653
      3  C        -46.2720  -43.7190   41.4600 C.2    33  ASN33       0.2266
      4  O        -45.0570  -43.9350   41.5200 O.2    33  ASN33      -0.2867
      5  CB       -46.9370  -45.5730   42.9880 C.3    33  ASN33       0.1155
      6  CG       -47.8210  -46.0520   44.1080 C.2    33  ASN33       0.2627
      7  OD1      -48.4730  -47.0930   43.9890 O.2    33  ASN33      -0.2716
      8  ND2      -47.8600  -45.2920   45.2090 N.am   33  ASN33      -0.0877
      9  N        -40.4120  -32.4850   40.0150 N.3    52  HIS52      -0.1241
     10  CA       -41.2600  -33.5620   39.4810 C.3    52  HIS52       0.1621
     11  C        -42.7550  -33.2750   39.5730 C.2    52  HIS52       0.2264
     12  O        -43.1970  -32.4600   40.3820 O.2    52  HIS52      -0.2867
     13  CB       -40.9330  -34.9420   40.0750 C.3    52  HIS52       0.0745
     14  CG       -40.9660  -35.0000   41.5660 C.ar   52  HIS52       0.0817
     15  ND1      -39.9030  -34.5960   42.3460 N.ar   52  HIS52      -0.2268
     16  CD2      -41.9140  -35.4510   42.4250 C.ar   52  HIS52       0.1154
     17  CE1      -40.1960  -34.7880   43.6240 C.ar   52  HIS52       0.1986
     18  NE2      -41.4100  -35.3100   43.6970 N.ar   52  HIS52      -0.2212
     19  N        -46.5520  -35.3790   39.7470 N.3    54  LEU54      -0.1231
     20  CA       -47.0530  -36.7110   40.0940 C.3    54  LEU54       0.1693
     21  C        -48.3690  -37.0430   39.4130 C.2    54  LEU54       0.2592
     22  O        -49.0030  -36.1810   38.8010 O.2    54  LEU54      -0.2718
     23  CB       -47.1710  -36.8860   41.6120 C.3    54  LEU54       0.0284
     24  CG       -45.8440  -36.8720   42.3750 C.3    54  LEU54       0.0019
     25  CD1      -46.0540  -36.9790   43.8950 C.3    54  LEU54       0.0001
     26  CD2      -44.8940  -37.9710   41.8570 C.3    54  LEU54       0.0001
     27  N        -48.7520  -38.3120   39.5060 N.am   55  TRP55      -0.1962
     28  CA       -50.0040  -38.8020   38.9410 C.3    55  TRP55       0.1771
     29  C        -51.2080  -37.9870   39.4320 C.2    55  TRP55       0.2619
     30  O        -52.1690  -37.8080   38.6950 O.2    55  TRP55      -0.2715
     31  CB       -50.1900  -40.2750   39.3110 C.3    55  TRP55       0.0590
     32  CG       -50.3980  -40.4280   40.7850 C.ar   55  TRP55       0.0006
     33  CD1      -49.4360  -40.5100   41.7440 C.ar   55  TRP55       0.0946
     34  CD2      -51.6540  -40.4600   41.4700 C.ar   55  TRP55       0.0152
     35  NE1      -50.0130  -40.6130   42.9840 N.ar   55  TRP55      -0.2442
     36  CE2      -51.3770  -40.5790   42.8440 C.ar   55  TRP55       0.0810
     37  CE3      -52.9870  -40.3970   41.0510 C.ar   55  TRP55       0.0012
     38  CZ2      -52.3870  -40.6370   43.8100 C.ar   55  TRP55       0.0191
     39  CZ3      -53.9940  -40.4620   42.0110 C.ar   55  TRP55       0.0001
     40  CH2      -53.6880  -40.5860   43.3730 C.ar   55  TRP55       0.0015
     41  N        -51.1590  -37.4790   40.6600 N.am   56  ASN56      -0.1972
     42  CA       -52.2860  -36.6960   41.1630 C.3    56  ASN56       0.1688
     43  C        -52.0890  -35.1970   41.0220 C.2    56  ASN56       0.2292
     44  O        -52.7370  -34.4180   41.7270 O.2    56  ASN56      -0.2864
     45  CB       -52.5470  -37.0140   42.6320 C.3    56  ASN56       0.1181
     46  CG       -51.3600  -36.6860   43.5090 C.2    56  ASN56       0.2629
     47  OD1      -50.3590  -36.1030   43.0530 O.2    56  ASN56      -0.2716
     48  ND2      -51.4520  -37.0720   44.7740 N.am   56  ASN56      -0.0877
     49  N        -49.5630  -33.4330   41.9180 N.3    58  GLY58      -0.1225
     50  CA       -48.6680  -32.8350   42.9010 C.3    58  GLY58       0.1811
     51  C        -47.3770  -32.4020   42.2140 C.2    58  GLY58       0.2280
     52  O        -46.8990  -33.0810   41.2920 O.2    58  GLY58      -0.2866
     53  N        -43.3190  -30.6130   42.7680 N.3    60  PHE60      -0.1241
     54  CA       -42.2790  -30.3570   43.7600 C.3    60  PHE60       0.1605
     55  C        -41.0720  -29.7560   43.0770 C.2    60  PHE60       0.2264
     56  O        -40.7340  -30.1680   41.9820 O.2    60  PHE60      -0.2867
     57  CB       -41.9300  -31.6460   44.5020 C.3    60  PHE60       0.0534
     58  CG       -43.1090  -32.2520   45.2050 C.ar   60  PHE60      -0.0203
     59  CD1      -43.4780  -31.8140   46.4780 C.ar   60  PHE60      -0.0042
     60  CD2      -43.8840  -33.2160   44.5780 C.ar   60  PHE60      -0.0042
     61  CE1      -44.5790  -32.3610   47.1310 C.ar   60  PHE60      -0.0003
     62  CE2      -44.9930  -33.7510   45.2070 C.ar   60  PHE60      -0.0003
     63  CZ       -45.3440  -33.3270   46.4930 C.ar   60  PHE60      -0.0000
     64  N        -40.5300  -41.5460   37.8380 N.3   100  LEU100     -0.1245
     65  CA       -40.4180  -41.6750   39.2830 C.3   100  LEU100      0.1561
     66  C        -41.4360  -42.6930   39.8050 C.2   100  LEU100      0.2260
     67  O        -42.6400  -42.5680   39.5660 O.2   100  LEU100     -0.2867
     68  CB       -40.6250  -40.3100   39.9490 C.3   100  LEU100      0.0270
     69  CG       -40.8680  -40.2860   41.4630 C.3   100  LEU100      0.0019
     70  CD1      -39.7710  -41.0130   42.2220 C.3   100  LEU100      0.0001
     71  CD2      -40.9950  -38.8460   41.9640 C.3   100  LEU100      0.0001
     72  N        -42.8130  -43.7910   43.3130 N.3   102  THR102     -0.1203
     73  CA       -42.8090  -43.2490   44.6680 C.3   102  THR102      0.1994
     74  C        -43.9410  -43.8300   45.5300 C.2   102  THR102      0.2619
     75  O        -45.1040  -43.8380   45.1210 O.2   102  THR102     -0.2717
     76  CB       -42.8820  -41.7120   44.6310 C.3   102  THR102      0.1784
     77  OG1      -42.9990  -41.2010   45.9650 O.3   102  THR102     -0.2211
     78  CG2      -44.0630  -41.2490   43.7810 C.3   102  THR102      0.0376
     79  N        -43.5860  -44.3490   46.7020 N.am  103  THR103     -0.1938
     80  CA       -44.5730  -44.8200   47.6770 C.3   103  THR103      0.2028
     81  C        -44.1610  -44.3070   49.0380 C.2   103  THR103      0.2643
     82  O        -43.0970  -43.6990   49.1880 O.2   103  THR103     -0.2714
     83  CB       -44.5810  -46.3480   47.8410 C.3   103  THR103      0.1808
     84  OG1      -43.4030  -46.7400   48.5480 O.3   103  THR103     -0.2208
     85  CG2      -44.6490  -47.0700   46.5180 C.3   103  THR103      0.0379
     86  N        -44.9820  -44.6070   50.0420 N.am  104  THR104     -0.1936
     87  CA       -44.7280  -44.1690   51.4110 C.3   104  THR104      0.2028
     88  C        -43.4850  -44.8520   51.9750 C.2   104  THR104      0.2643
     89  O        -42.9380  -44.4050   52.9830 O.2   104  THR104     -0.2714
     90  CB       -45.9620  -44.4220   52.3490 C.3   104  THR104      0.1808
     91  OG1      -46.2690  -45.8220   52.3970 O.3   104  THR104     -0.2208
     92  CG2      -47.2170  -43.6580   51.8690 C.3   104  THR104      0.0379
     93  N        -43.0370  -45.9280   51.3230 N.am  105  THR105     -0.1936
     94  CA       -41.8740  -46.6980   51.7910 C.3   105  THR105      0.2028
     95  C        -40.7280  -46.8960   50.7700 C.2   105  THR105      0.2643
     96  O        -39.8130  -47.6960   51.0170 O.2   105  THR105     -0.2714
     97  CB       -42.2950  -48.0890   52.2870 C.3   105  THR105      0.1808
     98  OG1      -43.0080  -48.7610   51.2360 O.3   105  THR105     -0.2208
     99  CG2      -43.2090  -47.9750   53.5310 C.3   105  THR105      0.0379
    100  N        -40.7710  -46.1970   49.6380 N.am  106  SER106     -0.1935
    101  CA       -39.6880  -46.2940   48.6480 C.3   106  SER106      0.2055
    102  C        -39.7190  -45.1520   47.6550 C.2   106  SER106      0.2643
    103  O        -40.7600  -44.5270   47.4430 O.2   106  SER106     -0.2714
    104  CB       -39.7350  -47.6230   47.8680 C.3   106  SER106      0.2130
    105  OG       -40.9820  -47.7900   47.2080 O.3   106  SER106     -0.2179
    106  N        -38.5690  -44.8970   47.0340 N.am  107  GLY107     -0.1954
    107  CA       -38.4740  -43.9510   45.9330 C.3   107  GLY107      0.1869
    108  C        -37.2820  -44.2750   45.0410 C.2   107  GLY107      0.2309
    109  O        -36.2090  -44.6490   45.5420 O.2   107  GLY107     -0.2863
@<TRIPOS>BOND
     1    64    65    1
     2    30    29    2
     3    22    21    2
     4    28    31    1
     5    28    29    1
     6    28    27    1
     7    65    66    1
     8    65    68    1
     9    31    32    1
    10    21    27   am
    11    21    20    1
    12    29    41   am
    13    10    11    1
    14    10     9    1
    15    10    13    1
    16    67    66    2
    17    11    12    2
    18    19    20    1
    19    68    69    1
    20    13    14    1
    21    20    23    1
    22    41    42    1
    23    32    34   ar
    24    32    33   ar
    25    43    42    1
    26    43    44    2
    27    37    34   ar
    28    37    39   ar
    29    42    45    1
    30    52    51    2
    31     3     4    2
    32     3     2    1
    33    69    71    1
    34    69    70    1
    35    34    36   ar
    36    14    15   ar
    37    14    16   ar
    38    23    24    1
    39    33    35   ar
    40    26    24    1
    41    49    50    1
    42    56    55    2
    43    39    40   ar
    44    51    50    1
    45    15    17   ar
    46    24    25    1
    47    16    18   ar
    48     1     2    1
    49    45    46    1
    50     2     5    1
    51    53    54    1
    52    36    35   ar
    53    36    38   ar
    54     5     6    1
    55    47    46    2
    56    55    54    1
    57    72    73    1
    58    40    38   ar
    59    46    48   am
    60    17    18   ar
    61    54    57    1
    62    78    76    1
    63     7     6    2
    64     6     8   am
    65    57    58    1
    66    60    58   ar
    67    60    62   ar
    68    76    73    1
    69    76    77    1
    70    73    74    1
    71   108   109    2
    72   108   107    1
    73    75    74    2
    74    58    59   ar
    75    62    63   ar
    76    74    79   am
    77   107   106    1
    78    59    61   ar
    79    63    61   ar
    80    85    83    1
    81    79    80    1
    82   106   102   am
    83   105   104    1
    84   103   102    2
    85   102   101    1
    86    80    83    1
    87    80    81    1
    88    83    84    1
    89   104   101    1
    90   101   100    1
    91    81    82    2
    92    81    86   am
    93   100    95   am
    94    86    87    1
    95    95    96    2
    96    95    94    1
    97    98    97    1
    98    93    94    1
    99    93    88   am
   100    87    88    1
   101    87    90    1
   102    94    97    1
   103    92    90    1
   104    88    89    2
   105    97    99    1
   106    90    91    1
