@<TRIPOS>MOLECULE
tmp/4yrcA01.pdb
 113 110 0 0 0
SMALL
GASTEIGER

@<TRIPOS>ATOM
      1  N         70.9130   13.3410   16.5090 N.3    60  ILE60      -0.1245
      2  CA        70.7270   12.8020   17.8470 C.3    60  ILE60       0.1561
      3  C         70.9490   13.8400   18.9640 C.2    60  ILE60       0.2260
      4  O         70.1730   13.9040   19.9170 O.2    60  ILE60      -0.2867
      5  CB        71.6270   11.5610   18.0280 C.3    60  ILE60       0.0252
      6  CG1       71.1930   10.7400   19.2270 C.3    60  ILE60       0.0019
      7  CG2       73.1010   11.9400   18.1450 C.3    60  ILE60       0.0019
      8  CD1       71.8440    9.3780   19.2470 C.3    60  ILE60       0.0001
      9  N         69.6170   10.8070   24.8340 N.3    79  PRO79      -0.2116
     10  CA        69.1820   10.4760   23.4860 C.3    79  PRO79       0.1372
     11  C         69.7280    9.1290   23.0080 C.2    79  PRO79       0.2244
     12  O         69.2420    8.6030   22.0080 O.2    79  PRO79      -0.2868
     13  CB        69.7670   11.6050   22.6480 C.3    79  PRO79       0.0268
     14  CG        71.0010   12.0020   23.3610 C.3    79  PRO79       0.0207
     15  CD        70.7510   11.7430   24.8250 C.3    79  PRO79       0.0892
     16  N         65.4030    5.6370   25.5560 N.3   108  CYS108     -0.1221
     17  CA        66.0900    6.8560   25.1270 C.3   108  CYS108      0.1808
     18  C         65.0770    7.8550   24.5510 C.2   108  CYS108      0.2601
     19  O         63.9560    7.4860   24.1590 O.2   108  CYS108     -0.2717
     20  CB        67.1840    6.5240   24.1180 C.3   108  CYS108      0.0970
     21  SG        68.5180    5.4660   24.7580 S.3   108  CYS108     -0.0800
     22  N         65.4900    9.1130   24.5040 N.am  109  TRP109     -0.1962
     23  CA        64.5830   10.2280   24.3660 C.3   109  TRP109      0.1771
     24  C         65.0160   11.2240   23.2920 C.2   109  TRP109      0.2619
     25  O         66.2010   11.4010   23.0250 O.2   109  TRP109     -0.2715
     26  CB        64.4600   10.9460   25.7190 C.3   109  TRP109      0.0590
     27  CG        63.6710   10.1400   26.7130 C.ar  109  TRP109      0.0006
     28  CD1       64.1370    9.1310   27.4850 C.ar  109  TRP109      0.0946
     29  CD2       62.2720   10.2680   27.0190 C.ar  109  TRP109      0.0152
     30  NE1       63.1250    8.6150   28.2580 N.ar  109  TRP109     -0.2442
     31  CE2       61.9680    9.2940   27.9910 C.ar  109  TRP109      0.0810
     32  CE3       61.2520   11.1080   26.5650 C.ar  109  TRP109      0.0012
     33  CZ2       60.6880    9.1330   28.5170 C.ar  109  TRP109      0.0191
     34  CZ3       59.9800   10.9590   27.0940 C.ar  109  TRP109      0.0001
     35  CH2       59.7070    9.9750   28.0600 C.ar  109  TRP109      0.0015
     36  N         64.0290   11.8610   22.6780 N.am  110  ARG110     -0.1977
     37  CA        64.2760   12.9740   21.7800 C.3   110  ARG110      0.1597
     38  C         63.1730   14.0200   21.9090 C.2   110  ARG110      0.2287
     39  O         62.0860   13.7430   22.4130 O.2   110  ARG110     -0.2864
     40  CB        64.3990   12.4920   20.3300 C.3   110  ARG110      0.0334
     41  CG        63.1050   11.9870   19.7130 C.3   110  ARG110      0.0492
     42  CD        63.3680   11.3820   18.3450 C.3   110  ARG110      0.2205
     43  NE        62.1280   11.1290   17.6150 N.pl3 110  ARG110     -0.0865
     44  CZ        62.0190   10.4000   16.5030 C.cat 110  ARG110      0.5346
     45  NH1       60.8280   10.2540   15.9340 N.pl3 110  ARG110      0.1354
     46  NH2       63.0770    9.8130   15.9570 N.pl3 110  ARG110      0.1354
     47  N         57.3010   10.1410   17.5980 N.3   117  ARG117     -0.1231
     48  CA        57.6170    9.5890   18.9110 C.3   117  ARG117      0.1694
     49  C         58.7560   10.3480   19.5750 C.2   117  ARG117      0.2592
     50  O         59.7320   10.7030   18.9200 O.2   117  ARG117     -0.2718
     51  CB        58.0280    8.1300   18.7940 C.3   117  ARG117      0.0321
     52  CG        56.8820    7.1930   18.5010 C.3   117  ARG117      0.0489
     53  CD        57.1970    5.7710   18.9350 C.3   117  ARG117      0.2205
     54  NE        55.9530    5.0250   19.1060 N.pl3 117  ARG117     -0.0865
     55  CZ        55.3140    4.3580   18.1410 C.cat 117  ARG117      0.5346
     56  NH1       54.1790    3.7240   18.4290 N.pl3 117  ARG117      0.1354
     57  NH2       55.7870    4.3200   16.8940 N.pl3 117  ARG117      0.1354
     58  N         58.6390   10.5600   20.8820 N.am  118  ARG118     -0.1966
     59  CA        59.7030   11.1890   21.6510 C.3   118  ARG118      0.1729
     60  C         60.5040   10.2170   22.5230 C.2   118  ARG118      0.2616
     61  O         61.5370   10.5870   23.0660 O.2   118  ARG118     -0.2715
     62  CB        59.1180   12.3100   22.4880 C.3   118  ARG118      0.0348
     63  CG        58.6530   13.4620   21.6230 C.3   118  ARG118      0.0492
     64  CD        58.2190   14.6500   22.4520 C.3   118  ARG118      0.2205
     65  NE        57.9870   15.8180   21.6130 N.pl3 118  ARG118     -0.0865
     66  CZ        57.4450   16.9540   22.0300 C.cat 118  ARG118      0.5346
     67  NH1       57.0720   17.0910   23.2930 N.pl3 118  ARG118      0.1354
     68  NH2       57.2770   17.9580   21.1790 N.pl3 118  ARG118      0.1354
     69  N         60.0250    8.9830   22.6570 N.am  119  GLU119     -0.1963
     70  CA        60.7680    7.9560   23.3730 C.3   119  GLU119      0.1733
     71  C         60.7560    6.6140   22.6470 C.2   119  GLU119      0.2616
     72  O         59.8300    6.3010   21.8990 O.2   119  GLU119     -0.2715
     73  CB        60.2450    7.8090   24.8010 C.3   119  GLU119      0.0429
     74  CG        58.7660    7.4810   24.9350 C.3   119  GLU119      0.1163
     75  CD        58.4440    6.0290   24.6860 C.2   119  GLU119      0.3649
     76  OE1       57.2500    5.7440   24.4550 O.co2 119  GLU119     -0.2457
     77  OE2       59.3760    5.1840   24.7110 O.co2 119  GLU119     -0.2457
     78  N         61.8140    5.8450   22.8590 N.am  120  HIS120     -0.1973
     79  CA        61.8490    4.4460   22.4490 C.3   120  HIS120      0.1656
     80  C         62.8100    3.6470   23.3280 C.2   120  HIS120      0.2291
     81  O         63.6590    4.2080   24.0150 O.2   120  HIS120     -0.2864
     82  CB        62.2060    4.3030   20.9640 C.3   120  HIS120      0.0771
     83  CG        63.6380    4.5840   20.6510 C.ar  120  HIS120      0.0820
     84  ND1       64.2960    3.9800   19.6040 N.ar  120  HIS120     -0.2267
     85  CD2       64.5430    5.3960   21.2490 C.ar  120  HIS120      0.1154
     86  CE1       65.5450    4.4120   19.5670 C.ar  120  HIS120      0.1986
     87  NE2       65.7190    5.2740   20.5520 N.ar  120  HIS120     -0.2212
     88  N         65.8210    0.8780   23.3880 N.3   122  GLN122     -0.1245
     89  CA        66.8750    0.5610   22.4550 C.3   122  GLN122      0.1566
     90  C         67.8050   -0.4510   23.0840 C.2   122  GLN122      0.2260
     91  O         68.5170   -0.1420   24.0370 O.2   122  GLN122     -0.2867
     92  CB        67.6420    1.8380   22.0730 C.3   122  GLN122      0.0367
     93  CG        68.7300    1.6100   21.0440 C.3   122  GLN122      0.0905
     94  CD        69.6900    2.7990   20.8970 C.2   122  GLN122      0.2608
     95  OE1       70.3690    3.1960   21.8410 O.2   122  GLN122     -0.2717
     96  NE2       69.7730    3.3340   19.6850 N.am  122  GLN122     -0.0878
     97  N         62.1470    1.7320    8.0640 N.3   286  ARG286     -0.1245
     98  CA        63.4110    2.3930    8.4020 C.3   286  ARG286      0.1563
     99  C         64.3910    1.3660    8.9710 C.2   286  ARG286      0.2260
    100  O         64.0610    0.1930    9.0970 O.2   286  ARG286     -0.2867
    101  CB        63.1700    3.5210    9.4120 C.3   286  ARG286      0.0307
    102  CG        62.2450    4.6220    8.9080 C.3   286  ARG286      0.0489
    103  CD        62.0210    5.7110    9.9530 C.3   286  ARG286      0.2205
    104  NE        60.9610    5.3800   10.9180 N.pl3 286  ARG286     -0.0865
    105  CZ        61.1370    5.0630   12.2060 C.cat 286  ARG286      0.5346
    106  NH1       62.3500    5.0160   12.7580 N.pl3 286  ARG286      0.1354
    107  NH2       60.0730    4.7880   12.9590 N.pl3 286  ARG286      0.1354
    108  N         60.6810   -0.0970   18.0690 N.3   317  CYS317     -0.1235
    109  CA        59.4750    0.3010   17.3380 C.3   317  CYS317      0.1677
    110  C         59.3790   -0.2680   15.9190 C.2   317  CYS317      0.2270
    111  O         58.3390   -0.8090   15.5210 O.2   317  CYS317     -0.2867
    112  CB        59.3490    1.8290   17.3240 C.3   317  CYS317      0.0956
    113  SG        59.0040    2.5020   18.9770 S.3   317  CYS317     -0.0801
@<TRIPOS>BOND
     1    97    98    1
     2    98    99    1
     3    98   101    1
     4   102   101    1
     5   102   103    1
     6    99   100    2
     7   103   104    1
     8   104   105    2
     9   105   106    1
    10   105   107    1
    11   111   110    2
    12   110   109    1
    13    45    44    1
    14    46    44    1
    15    44    43    2
    16     1     2    1
    17    57    55    1
    18   112   109    1
    19   112   113    1
    20   109   108    1
    21    47    48    1
    22    43    42    1
    23     2     5    1
    24     2     3    1
    25     5     7    1
    26     5     6    1
    27    55    56    1
    28    55    54    2
    29    42    41    1
    30    52    51    1
    31    52    53    1
    32    51    48    1
    33    48    49    1
    34    50    49    2
    35    53    54    1
    36     3     4    2
    37     6     8    1
    38    86    84   ar
    39    86    87   ar
    40    49    58   am
    41    84    83   ar
    42    96    94   am
    43    41    40    1
    44    40    37    1
    45    87    85   ar
    46    83    82    1
    47    83    85   ar
    48    58    59    1
    49    94    93    1
    50    94    95    2
    51    82    79    1
    52    93    92    1
    53    68    66    1
    54    65    66    2
    55    65    64    1
    56    63    64    1
    57    63    62    1
    58    59    62    1
    59    59    60    1
    60    37    38    1
    61    37    36    1
    62    72    71    2
    63    38    39    2
    64    12    11    2
    65    66    67    1
    66    92    89    1
    67    79    78    1
    68    79    80    1
    69    89    90    1
    70    89    88    1
    71    60    69   am
    72    60    61    2
    73    71    78   am
    74    71    70    1
    75    13    14    1
    76    13    10    1
    77    69    70    1
    78    36    24   am
    79    11    10    1
    80    25    24    2
    81    90    91    2
    82    24    23    1
    83    80    81    2
    84    14    15    1
    85    70    73    1
    86    10     9    1
    87    20    21    1
    88    20    17    1
    89    19    18    2
    90    23    22    1
    91    23    26    1
    92    76    75   ar
    93    22    18   am
    94    18    17    1
    95    75    77   ar
    96    75    74    1
    97    73    74    1
    98    15     9    1
    99    17    16    1
   100    26    27    1
   101    32    29   ar
   102    32    34   ar
   103    27    29   ar
   104    27    28   ar
   105    29    31   ar
   106    34    35   ar
   107    28    30   ar
   108    31    30   ar
   109    31    33   ar
   110    35    33   ar
