@<TRIPOS>MOLECULE
tmp/4yrcA00.pdb
 134 127 0 0 0
SMALL
GASTEIGER

@<TRIPOS>ATOM
      1  N         70.9130   13.3410   16.5090 N.3    60  ILE60      -0.1245
      2  CA        70.7270   12.8020   17.8470 C.3    60  ILE60       0.1561
      3  C         70.9490   13.8400   18.9640 C.2    60  ILE60       0.2260
      4  O         70.1730   13.9040   19.9170 O.2    60  ILE60      -0.2867
      5  CB        71.6270   11.5610   18.0280 C.3    60  ILE60       0.0252
      6  CG1       71.1930   10.7400   19.2270 C.3    60  ILE60       0.0019
      7  CG2       73.1010   11.9400   18.1450 C.3    60  ILE60       0.0019
      8  CD1       71.8440    9.3780   19.2470 C.3    60  ILE60       0.0001
      9  N         69.6170   10.8070   24.8340 N.3    79  PRO79      -0.2102
     10  CA        69.1820   10.4760   23.4860 C.3    79  PRO79       0.1504
     11  C         69.7280    9.1290   23.0080 C.2    79  PRO79       0.2575
     12  O         69.2420    8.6030   22.0080 O.2    79  PRO79      -0.2718
     13  CB        69.7670   11.6050   22.6480 C.3    79  PRO79       0.0282
     14  CG        71.0010   12.0020   23.3610 C.3    79  PRO79       0.0208
     15  CD        70.7510   11.7430   24.8250 C.3    79  PRO79       0.0893
     16  N         70.7480    8.6110   23.6910 N.am   80  GLU80      -0.1980
     17  CA        71.3900    7.3440   23.3540 C.3    80  GLU80       0.1602
     18  C         72.1400    6.8300   24.5980 C.2    80  GLU80       0.2287
     19  O         72.2730    7.5580   25.5810 O.2    80  GLU80      -0.2864
     20  CB        72.3580    7.5100   22.1880 C.3    80  GLU80       0.0415
     21  CG        73.3650    8.6370   22.3850 C.3    80  GLU80       0.1163
     22  CD        74.6100    8.5380   21.5000 C.2    80  GLU80       0.3649
     23  OE1       74.9400    7.4240   21.0090 O.co2  80  GLU80      -0.2457
     24  OE2       75.2720    9.5930   21.3290 O.co2  80  GLU80      -0.2457
     25  N         75.3710    5.1710   24.4780 N.3    82  THR82      -0.1218
     26  CA        76.7980    4.9700   24.2990 C.3    82  THR82       0.1862
     27  C         77.6540    5.9300   25.1210 C.2    82  THR82       0.2287
     28  O         78.6730    5.5200   25.6610 O.2    82  THR82      -0.2866
     29  CB        77.1480    4.9590   22.8180 C.3    82  THR82       0.1770
     30  OG1       76.2630    4.0410   22.1600 O.3    82  THR82      -0.2211
     31  CG2       78.5790    4.5120   22.6020 C.3    82  THR82       0.0375
     32  N         65.8210    0.8780   23.3880 N.3   122  GLN122     -0.1245
     33  CA        66.8750    0.5610   22.4550 C.3   122  GLN122      0.1566
     34  C         67.8050   -0.4510   23.0840 C.2   122  GLN122      0.2260
     35  O         68.5170   -0.1420   24.0370 O.2   122  GLN122     -0.2867
     36  CB        67.6420    1.8380   22.0730 C.3   122  GLN122      0.0367
     37  CG        68.7300    1.6100   21.0440 C.3   122  GLN122      0.0905
     38  CD        69.6900    2.7990   20.8970 C.2   122  GLN122      0.2608
     39  OE1       70.3690    3.1960   21.8410 O.2   122  GLN122     -0.2717
     40  NE2       69.7730    3.3340   19.6850 N.am  122  GLN122     -0.0878
     41  N         70.9860   -2.1490   23.5480 N.3   124  ASN124     -0.1240
     42  CA        72.3860   -1.8030   23.2380 C.3   124  ASN124      0.1653
     43  C         73.2810   -2.9770   23.5340 C.2   124  ASN124      0.2266
     44  O         73.1370   -3.5930   24.5790 O.2   124  ASN124     -0.2867
     45  CB        72.8620   -0.6450   24.1070 C.3   124  ASN124      0.1155
     46  CG        72.4890    0.7000   23.5430 C.2   124  ASN124      0.2627
     47  OD1       73.3480    1.4420   23.0770 O.2   124  ASN124     -0.2716
     48  ND2       71.1960    1.0300   23.5900 N.am  124  ASN124     -0.0877
     49  N         77.5500   -3.8770   23.3070 N.3   126  ASP126     -0.1239
     50  CA        78.8830   -3.3360   23.0370 C.3   126  ASP126      0.1674
     51  C         79.9960   -4.2700   23.5040 C.2   126  ASP126      0.2266
     52  O         79.9060   -4.9190   24.5530 O.2   126  ASP126     -0.2867
     53  CB        79.0550   -1.9640   23.6960 C.3   126  ASP126      0.1410
     54  CG        78.2020   -0.8850   23.0370 C.2   126  ASP126      0.3668
     55  OD1       77.0190   -0.7110   23.4440 O.co2 126  ASP126     -0.2456
     56  OD2       78.7320   -0.2030   22.1150 O.co2 126  ASP126     -0.2456
     57  N         76.1490    5.7590    8.7060 N.3   266  ARG266     -0.1245
     58  CA        75.5210    6.1050    9.9830 C.3   266  ARG266      0.1563
     59  C         75.7070    7.5970   10.2910 C.2   266  ARG266      0.2260
     60  O         76.5780    8.2650    9.7240 O.2   266  ARG266     -0.2867
     61  CB        76.0400    5.2360   11.1300 C.3   266  ARG266      0.0307
     62  CG        76.0250    3.7350   10.8540 C.3   266  ARG266      0.0489
     63  CD        74.6050    3.2120   10.6630 C.3   266  ARG266      0.2205
     64  NE        73.8330    3.4090   11.8810 N.pl3 266  ARG266     -0.0865
     65  CZ        72.5190    3.6120   11.9480 C.cat 266  ARG266      0.5346
     66  NH1       71.7550    3.6580   10.8570 N.pl3 266  ARG266      0.1354
     67  NH2       71.9640    3.7790   13.1370 N.pl3 266  ARG266      0.1354
     68  N         76.2870    9.0600   13.3440 N.3   268  LEU268     -0.1245
     69  CA        77.0280    9.3870   14.5630 C.3   268  LEU268      0.1561
     70  C         78.4820    9.7470   14.2670 C.2   268  LEU268      0.2260
     71  O         79.1320    9.1360   13.4180 O.2   268  LEU268     -0.2867
     72  CB        76.9390    8.2470   15.5820 C.3   268  LEU268      0.0270
     73  CG        75.5300    8.0960   16.1800 C.3   268  LEU268      0.0019
     74  CD1       75.3440    6.7320   16.7880 C.3   268  LEU268      0.0001
     75  CD2       75.2240    9.1480   17.2310 C.3   268  LEU268      0.0001
     76  N         81.1850    9.4240   16.0350 N.3   270  TYR270     -0.1227
     77  CA        82.2970    8.6900   16.6390 C.3   270  TYR270      0.1736
     78  C         82.6870    7.3620   15.9870 C.2   270  TYR270      0.2595
     79  O         83.6670    6.7360   16.4260 O.2   270  TYR270     -0.2718
     80  CB        82.0580    8.4770   18.1450 C.3   270  TYR270      0.0548
     81  CG        80.7160    7.8910   18.5190 C.ar  270  TYR270     -0.0200
     82  CD1       80.3470    6.6000   18.1290 C.ar  270  TYR270     -0.0009
     83  CD2       79.8130    8.6310   19.2730 C.ar  270  TYR270     -0.0009
     84  CE1       79.1100    6.0690   18.4860 C.ar  270  TYR270      0.0417
     85  CE2       78.5810    8.1140   19.6320 C.ar  270  TYR270      0.0417
     86  CZ        78.2250    6.8330   19.2450 C.ar  270  TYR270      0.1957
     87  OH        76.9840    6.3380   19.6410 O.3   270  TYR270     -0.2866
     88  N         81.9560    6.9140   14.9650 N.am  271  TYR271     -0.1976
     89  CA        82.3540    5.6710   14.3060 C.3   271  TYR271      0.1639
     90  C         83.6450    5.8940   13.5190 C.2   271  TYR271      0.2290
     91  O         83.7690    6.8650   12.7800 O.2   271  TYR271     -0.2864
     92  CB        81.2440    5.1070   13.4270 C.3   271  TYR271      0.0560
     93  CG        80.0090    4.6770   14.2040 C.ar  271  TYR271     -0.0198
     94  CD1       80.0960    3.7830   15.2760 C.ar  271  TYR271     -0.0009
     95  CD2       78.7510    5.1260   13.8360 C.ar  271  TYR271     -0.0009
     96  CE1       78.9600    3.3900   15.9770 C.ar  271  TYR271      0.0417
     97  CE2       77.6100    4.7350   14.5250 C.ar  271  TYR271      0.0417
     98  CZ        77.7140    3.8740   15.5850 C.ar  271  TYR271      0.1957
     99  OH        76.5710    3.5140   16.2450 O.3   271  TYR271     -0.2866
    100  N         71.4150   -0.4460   14.1730 N.3   290  GLY290     -0.1225
    101  CA        72.5510    0.2860   13.6420 C.3   290  GLY290      0.1811
    102  C         73.6970    0.3270   14.6290 C.2   290  GLY290      0.2280
    103  O         73.4950    0.4650   15.8280 O.2   290  GLY290     -0.2866
    104  N         83.9700    2.2840   17.2550 N.3   294  TYR294     -0.1241
    105  CA        84.2950    3.6400   17.6850 C.3   294  TYR294      0.1605
    106  C         85.5110    3.6250   18.6270 C.2   294  TYR294      0.2264
    107  O         85.3660    3.6400   19.8350 O.2   294  TYR294     -0.2867
    108  CB        83.0680    4.3080   18.3330 C.3   294  TYR294      0.0534
    109  CG        82.4320    3.5370   19.4890 C.ar  294  TYR294     -0.0201
    110  CD1       81.6300    2.4070   19.2650 C.ar  294  TYR294     -0.0009
    111  CD2       82.6340    3.9420   20.8140 C.ar  294  TYR294     -0.0009
    112  CE1       81.0550    1.7030   20.3280 C.ar  294  TYR294      0.0417
    113  CE2       82.0710    3.2460   21.8810 C.ar  294  TYR294      0.0417
    114  CZ        81.2760    2.1340   21.6410 C.ar  294  TYR294      0.1957
    115  OH        80.7350    1.4680   22.7190 O.3   294  TYR294     -0.2866
    116  N         79.7940   -1.5390   18.9040 N.3   311  GLY311     -0.1210
    117  CA        78.4770   -1.9500   19.3590 C.3   311  GLY311      0.1956
    118  C         77.3820   -1.5100   18.4200 C.2   311  GLY311      0.2612
    119  O         77.6490   -0.9580   17.3430 O.2   311  GLY311     -0.2717
    120  N         76.1470   -1.7670   18.8320 N.am  312  PHE312     -0.1962
    121  CA        74.9820   -1.3180   18.1200 C.3   312  PHE312      0.1771
    122  C         73.8450   -1.0290   19.0800 C.2   312  PHE312      0.2620
    123  O         73.8930   -1.4090   20.2590 O.2   312  PHE312     -0.2715
    124  CB        74.4990   -2.3600   17.0910 C.3   312  PHE312      0.0574
    125  CG        73.9770   -3.6550   17.6890 C.ar  312  PHE312     -0.0200
    126  CD1       72.7050   -3.7440   18.1840 C.ar  312  PHE312     -0.0042
    127  CD2       74.7680   -4.8010   17.6940 C.ar  312  PHE312     -0.0042
    128  CE1       72.2180   -4.9380   18.6960 C.ar  312  PHE312     -0.0003
    129  CE2       74.2910   -5.9970   18.1950 C.ar  312  PHE312     -0.0003
    130  CZ        73.0140   -6.0700   18.6990 C.ar  312  PHE312     -0.0000
    131  N         72.8380   -0.3670   18.5360 N.am  313  GLY313     -0.1954
    132  CA        71.5790   -0.1600   19.1950 C.3   313  GLY313      0.1869
    133  C         70.5020   -0.7070   18.2760 C.2   313  GLY313      0.2309
    134  O         70.6510   -0.6810   17.0650 O.2   313  GLY313     -0.2863
@<TRIPOS>BOND
     1    57    58    1
     2    60    59    2
     3    58    59    1
     4    58    61    1
     5    63    62    1
     6    63    64    1
     7    62    61    1
     8    66    65    1
     9    64    65    2
    10    65    67    1
    11    91    90    2
    12    68    69    1
    13    71    70    2
    14    92    93    1
    15    92    89    1
    16    90    89    1
    17   101   100    1
    18   101   102    1
    19    95    93   ar
    20    95    97   ar
    21    93    94   ar
    22    70    69    1
    23    89    88    1
    24    97    98   ar
    25    69    72    1
    26   102   103    2
    27    88    78   am
    28    94    96   ar
    29    72    73    1
    30    98    96   ar
    31    98    99    1
    32    78    79    2
    33    78    77    1
    34    76    77    1
    35    73    74    1
    36    73    75    1
    37     1     2    1
    38    77    80    1
    39   134   133    2
    40   124   125    1
    41   124   121    1
    42   104   105    1
    43   119   118    2
    44   105   108    1
    45   105   106    1
    46   125   127   ar
    47   125   126   ar
    48   127   129   ar
    49     2     5    1
    50     2     3    1
    51     5     7    1
    52     5     6    1
    53   121   120    1
    54   121   122    1
    55    82    84   ar
    56    82    81   ar
    57    80    81    1
    58   126   128   ar
    59   129   130   ar
    60   133   132    1
    61   108   109    1
    62   118   120   am
    63   118   117    1
    64    84    86   ar
    65    81    83   ar
    66   131   122   am
    67   131   132    1
    68   106   107    2
    69   128   130   ar
    70   116   117    1
    71     3     4    2
    72   122   123    2
    73     6     8    1
    74    86    85   ar
    75    86    87    1
    76   110   109   ar
    77   110   112   ar
    78    83    85   ar
    79   109   111   ar
    80    40    38   am
    81   112   114   ar
    82   111   113   ar
    83    38    37    1
    84    38    39    2
    85    23    22   ar
    86    37    36    1
    87    24    22   ar
    88    22    21    1
    89   114   113   ar
    90   114   115    1
    91    12    11    2
    92    36    33    1
    93    56    54   ar
    94    30    29    1
    95    20    21    1
    96    20    17    1
    97    33    34    1
    98    33    32    1
    99    31    29    1
   100    13    14    1
   101    13    10    1
   102    29    26    1
   103    11    10    1
   104    11    16   am
   105    50    49    1
   106    50    51    1
   107    50    53    1
   108    54    55   ar
   109    54    53    1
   110    47    46    2
   111    34    35    2
   112    42    43    1
   113    42    41    1
   114    42    45    1
   115    17    16    1
   116    17    18    1
   117    14    15    1
   118    10     9    1
   119    51    52    2
   120    43    44    2
   121    46    48   am
   122    46    45    1
   123    26    25    1
   124    26    27    1
   125    18    19    2
   126    15     9    1
   127    27    28    2
