@<TRIPOS>MOLECULE
tmp/4yrdB00.pdb
 114 107 0 0 0
SMALL
GASTEIGER

@<TRIPOS>ATOM
      1  N         11.3920   29.7650  -41.1610 N.3   239  PHE239     -0.1241
      2  CA        12.0930   29.6260  -39.9000 C.3   239  PHE239      0.1605
      3  C         11.2520   28.7680  -38.9360 C.2   239  PHE239      0.2264
      4  O         10.1090   29.1210  -38.6290 O.2   239  PHE239     -0.2867
      5  CB        12.3880   31.0030  -39.2760 C.3   239  PHE239      0.0534
      6  CG        13.2110   30.9040  -38.0200 C.ar  239  PHE239     -0.0203
      7  CD1       12.6030   30.9020  -36.7700 C.ar  239  PHE239     -0.0042
      8  CD2       14.5650   30.7860  -38.0970 C.ar  239  PHE239     -0.0042
      9  CE1       13.3450   30.8220  -35.5870 C.ar  239  PHE239     -0.0003
     10  CE2       15.3340   30.7020  -36.9500 C.ar  239  PHE239     -0.0003
     11  CZ        14.7230   30.6920  -35.6590 C.ar  239  PHE239     -0.0000
     12  N         16.7020   27.5840  -39.8300 N.3   254  ASN254     -0.1240
     13  CA        16.4750   28.6230  -40.7950 C.3   254  ASN254      0.1653
     14  C         16.6890   28.1480  -42.2750 C.2   254  ASN254      0.2266
     15  O         17.7070   27.4790  -42.6150 O.2   254  ASN254     -0.2867
     16  CB        17.3920   29.8060  -40.5540 C.3   254  ASN254      0.1155
     17  CG        17.1230   30.8850  -41.5670 C.2   254  ASN254      0.2627
     18  OD1       16.0930   31.5580  -41.4630 O.2   254  ASN254     -0.2716
     19  ND2       17.9800   31.0030  -42.5930 N.am  254  ASN254     -0.0877
     20  N         19.3480   37.6600  -44.1620 N.3   262  LYS262     -0.1231
     21  CA        18.5890   37.7060  -42.9260 C.3   262  LYS262      0.1693
     22  C         19.4610   38.1520  -41.7670 C.2   262  LYS262      0.2592
     23  O         20.6810   37.9390  -41.7440 O.2   262  LYS262     -0.2718
     24  CB        18.0690   36.3110  -42.5600 C.3   262  LYS262      0.0285
     25  CG        16.8040   35.8880  -43.3100 C.3   262  LYS262      0.0035
     26  CD        16.2990   34.5070  -42.8780 C.3   262  LYS262      0.0206
     27  CE        15.1660   34.0150  -43.8000 C.3   262  LYS262      0.1093
     28  NZ        14.4730   32.8190  -43.2540 N.3   262  LYS262     -0.1314
     29  N         18.8220   38.7390  -40.7740 N.am  263  GLY263     -0.1957
     30  CA        19.5210   39.0870  -39.5500 C.3   263  GLY263      0.1869
     31  C         19.7610   40.5700  -39.4280 C.2   263  GLY263      0.2309
     32  O         18.8320   41.3000  -39.2760 O.2   263  GLY263     -0.2863
     33  N         21.2700   41.9750  -36.8400 N.3   265  HIS265     -0.1241
     34  CA        21.0450   42.3470  -35.5030 C.3   265  HIS265      0.1621
     35  C         22.1630   41.9720  -34.5270 C.2   265  HIS265      0.2264
     36  O         23.1210   41.2580  -34.8930 O.2   265  HIS265     -0.2867
     37  CB        19.6420   41.9430  -35.0160 C.3   265  HIS265      0.0745
     38  CG        19.3520   40.4770  -35.0370 C.ar  265  HIS265      0.0817
     39  ND1       18.1710   39.9720  -35.5600 N.ar  265  HIS265     -0.2268
     40  CD2       20.0330   39.4170  -34.5320 C.ar  265  HIS265      0.1154
     41  CE1       18.1590   38.6580  -35.3990 C.ar  265  HIS265      0.1986
     42  NE2       19.2730   38.2950  -34.7750 N.ar  265  HIS265     -0.2212
     43  N         23.0350   41.4430  -29.9390 N.3   267  HIS267     -0.1241
     44  CA        22.5730   41.3710  -28.5860 C.3   267  HIS267      0.1621
     45  C         23.6690   41.7080  -27.6550 C.2   267  HIS267      0.2264
     46  O         24.8300   41.6830  -28.0180 O.2   267  HIS267     -0.2867
     47  CB        22.1620   39.9560  -28.2750 C.3   267  HIS267      0.0745
     48  CG        21.5420   39.2430  -29.4200 C.ar  267  HIS267      0.0817
     49  ND1       20.2560   39.4960  -29.8310 N.ar  267  HIS267     -0.2268
     50  CD2       22.0150   38.2520  -30.2090 C.ar  267  HIS267      0.1154
     51  CE1       19.9700   38.7030  -30.8510 C.ar  267  HIS267      0.1986
     52  NE2       21.0280   37.9520  -31.1130 N.ar  267  HIS267     -0.2212
     53  N         22.4450   37.3950  -25.3000 N.3   270  LYS270     -0.1245
     54  CA        22.0100   36.3350  -26.1650 C.3   270  LYS270      0.1561
     55  C         23.0810   36.0220  -27.2180 C.2   270  LYS270      0.2260
     56  O         23.7740   36.9340  -27.7410 O.2   270  LYS270     -0.2867
     57  CB        20.7040   36.7400  -26.8300 C.3   270  LYS270      0.0271
     58  CG        20.1700   35.7170  -27.8090 C.3   270  LYS270      0.0035
     59  CD        18.7460   36.0410  -28.2810 C.3   270  LYS270      0.0206
     60  CE        17.8410   36.5110  -27.1630 C.3   270  LYS270      0.1093
     61  NZ        16.4320   36.3370  -27.5670 N.3   270  LYS270     -0.1314
     62  N         24.3160   32.7380  -30.3200 N.3   272  GLU272     -0.1245
     63  CA        23.8760   31.6600  -31.1310 C.3   272  GLU272      0.1567
     64  C         25.0490   30.8390  -31.6270 C.2   272  GLU272      0.2260
     65  O         26.2010   31.2230  -31.4770 O.2   272  GLU272     -0.2867
     66  CB        23.1500   32.1990  -32.3350 C.3   272  GLU272      0.0388
     67  CG        21.8710   32.9030  -32.0420 C.3   272  GLU272      0.1160
     68  CD        21.9830   34.3650  -32.3030 C.2   272  GLU272      0.3649
     69  OE1       22.0710   35.0780  -31.3050 O.co2 272  GLU272     -0.2457
     70  OE2       22.0180   34.8050  -33.4580 O.co2 272  GLU272     -0.2457
     71  N         25.6200   28.9270  -35.5510 N.3   274  PHE274     -0.1241
     72  CA        25.1110   28.5610  -36.8400 C.3   274  PHE274      0.1605
     73  C         25.9010   27.3500  -37.3420 C.2   274  PHE274      0.2264
     74  O         27.1090   27.2280  -37.1220 O.2   274  PHE274     -0.2867
     75  CB        25.2090   29.7100  -37.8440 C.3   274  PHE274      0.0534
     76  CG        24.3820   30.9370  -37.4980 C.ar  274  PHE274     -0.0203
     77  CD1       23.4770   30.9530  -36.4360 C.ar  274  PHE274     -0.0042
     78  CD2       24.4890   32.0820  -38.2870 C.ar  274  PHE274     -0.0042
     79  CE1       22.7300   32.0550  -36.1500 C.ar  274  PHE274     -0.0003
     80  CE2       23.7420   33.2300  -38.0070 C.ar  274  PHE274     -0.0003
     81  CZ        22.8770   33.2340  -36.9180 C.ar  274  PHE274     -0.0000
     82  N         25.4260   40.9810  -37.0620 N.3   314  HIS314     -0.1241
     83  CA        25.7190   39.8970  -37.9620 C.3   314  HIS314      0.1621
     84  C         24.5190   39.6520  -38.8640 C.2   314  HIS314      0.2264
     85  O         23.3840   39.9020  -38.4990 O.2   314  HIS314     -0.2867
     86  CB        25.9810   38.6000  -37.1760 C.3   314  HIS314      0.0745
     87  CG        24.9280   38.2980  -36.1570 C.ar  314  HIS314      0.0817
     88  ND1       25.0070   38.7530  -34.8510 N.ar  314  HIS314     -0.2268
     89  CD2       23.7220   37.6960  -36.2750 C.ar  314  HIS314      0.1154
     90  CE1       23.9250   38.3760  -34.1920 C.ar  314  HIS314      0.1986
     91  NE2       23.1330   37.7280  -35.0320 N.ar  314  HIS314     -0.2212
     92  N         23.2680   36.7700  -42.2500 N.3   316  ILE316     -0.1245
     93  CA        23.5630   35.5250  -42.9830 C.3   316  ILE316      0.1561
     94  C         22.9480   35.6040  -44.3710 C.2   316  ILE316      0.2260
     95  O         21.7890   36.0240  -44.4990 O.2   316  ILE316     -0.2867
     96  CB        23.1230   34.2570  -42.2050 C.3   316  ILE316      0.0252
     97  CG1       23.4980   33.0090  -42.9970 C.3   316  ILE316      0.0019
     98  CG2       21.6340   34.2930  -41.8400 C.3   316  ILE316      0.0019
     99  CD1       23.3830   31.6770  -42.2560 C.3   316  ILE316      0.0001
    100  N         20.2910   26.5650  -36.1680 N.3   328  MET328     -0.1245
    101  CA        20.5760   27.7280  -35.3660 C.3   328  MET328      0.1570
    102  C         20.2530   27.4180  -33.9170 C.2   328  MET328      0.2261
    103  O         19.1200   27.2770  -33.5470 O.2   328  MET328     -0.2867
    104  CB        19.7730   28.9580  -35.8650 C.3   328  MET328      0.0387
    105  CG        20.3210   29.5560  -37.1390 C.3   328  MET328      0.0595
    106  SD        19.4720   31.1040  -37.6550 S.3   328  MET328     -0.1393
    107  CE        20.4420   31.4490  -39.1250 C.3   328  MET328      0.0692
    108  N         20.2950   28.8200  -30.1220 N.3   330  VAL330     -0.1245
    109  CA        20.3940   30.0260  -29.3190 C.3   330  VAL330      0.1561
    110  C         20.4470   29.6790  -27.8120 C.2   330  VAL330      0.2260
    111  O         19.8970   28.6870  -27.3410 O.2   330  VAL330     -0.2867
    112  CB        19.2660   31.0310  -29.6690 C.3   330  VAL330      0.0252
    113  CG1       17.9060   30.4410  -29.3390 C.3   330  VAL330      0.0019
    114  CG2       19.3910   32.3590  -28.9230 C.3   330  VAL330      0.0019
@<TRIPOS>BOND
     1    95    94    2
     2    94    93    1
     3    20    21    1
     4    27    28    1
     5    27    26    1
     6    25    26    1
     7    25    24    1
     8    97    99    1
     9    97    96    1
    10    93    92    1
    11    93    96    1
    12    21    24    1
    13    21    22    1
    14    15    14    2
    15    19    17   am
    16    14    13    1
    17    96    98    1
    18    22    23    2
    19    22    29   am
    20    17    18    2
    21    17    16    1
    22     1     2    1
    23    13    16    1
    24    13    12    1
    25    29    30    1
    26     2     5    1
    27     2     3    1
    28    30    31    1
    29    31    32    2
    30     5     6    1
    31   107   106    1
    32     3     4    2
    33    84    85    2
    34    84    83    1
    35    78    80   ar
    36    78    76   ar
    37     8     6   ar
    38     8    10   ar
    39     6     7   ar
    40    80    81   ar
    41    83    86    1
    42    83    82    1
    43    75    76    1
    44    75    72    1
    45   106   105    1
    46    76    77   ar
    47    73    74    2
    48    73    72    1
    49    86    87    1
    50   105   104    1
    51    10    11   ar
    52    81    79   ar
    53    72    71    1
    54    33    34    1
    55     7     9   ar
    56    77    79   ar
    57    89    87   ar
    58    89    91   ar
    59   100   101    1
    60    87    88   ar
    61   104   101    1
    62    11     9   ar
    63    39    41   ar
    64    39    38   ar
    65    34    37    1
    66    34    35    1
    67    41    42   ar
    68   101   102    1
    69    38    37    1
    70    38    40   ar
    71    91    90   ar
    72    36    35    2
    73    88    90   ar
    74    42    40   ar
    75   102   103    2
    76    70    68   ar
    77    66    67    1
    78    66    63    1
    79    68    67    1
    80    68    69   ar
    81    64    65    2
    82    64    63    1
    83    63    62    1
    84    52    51   ar
    85    52    50   ar
    86    51    49   ar
    87    50    48   ar
    88   108   109    1
    89    43    44    1
    90    49    48   ar
    91   112   113    1
    92   112   109    1
    93   112   114    1
    94    48    47    1
    95   109   110    1
    96    44    47    1
    97    44    45    1
    98    59    58    1
    99    59    60    1
   100    46    45    2
   101   110   111    2
   102    58    57    1
   103    56    55    2
   104    61    60    1
   105    55    54    1
   106    57    54    1
   107    54    53    1
