@<TRIPOS>MOLECULE
tmp/4yreA01.pdb
 107 105 0 0 0
SMALL
GASTEIGER

@<TRIPOS>ATOM
      1  N         14.4460  -12.3970   40.7110 N.3    60  ILE60      -0.1245
      2  CA        15.3640  -11.9660   39.6520 C.3    60  ILE60       0.1561
      3  C         16.2760  -13.1110   39.1540 C.2    60  ILE60       0.2260
      4  O         16.5360  -13.2150   37.9530 O.2    60  ILE60      -0.2867
      5  CB        16.1970  -10.7430   40.1110 C.3    60  ILE60       0.0252
      6  CG1       16.7410   -9.9590   38.9180 C.3    60  ILE60       0.0019
      7  CG2       17.3390  -11.1560   41.0260 C.3    60  ILE60       0.0019
      8  CD1       15.7530   -8.9720   38.3380 C.3    60  ILE60       0.0001
      9  N         19.9560  -10.3740   34.0020 N.3    79  PRO79      -0.2116
     10  CA        18.6530  -10.0200   34.5490 C.3    79  PRO79       0.1372
     11  C         18.6710   -8.6580   35.2320 C.2    79  PRO79       0.2244
     12  O         17.6190   -8.0480   35.4430 O.2    79  PRO79      -0.2868
     13  CB        18.3880  -11.1310   35.5610 C.3    79  PRO79       0.0268
     14  CG        19.7440  -11.5480   36.0150 C.3    79  PRO79       0.0207
     15  CD        20.6280  -11.4070   34.8080 C.3    79  PRO79       0.0892
     16  N         17.7730   -5.4720   30.0630 N.3   108  CYS108     -0.1221
     17  CA        17.9040   -6.6270   30.9200 C.3   108  CYS108      0.1808
     18  C         16.8210   -7.6430   30.5710 C.2   108  CYS108      0.2601
     19  O         15.7620   -7.2830   30.0540 O.2   108  CYS108     -0.2717
     20  CB        17.8210   -6.2060   32.3840 C.3   108  CYS108      0.0970
     21  SG        19.2270   -5.1860   32.9160 S.3   108  CYS108     -0.0800
     22  N         17.0980   -8.9040   30.8950 N.am  109  TRP109     -0.1962
     23  CA        16.3330  -10.0340   30.4000 C.3   109  TRP109      0.1771
     24  C         15.8310  -10.9920   31.4670 C.2   109  TRP109      0.2619
     25  O         16.3920  -11.0960   32.5530 O.2   109  TRP109     -0.2715
     26  CB        17.1990  -10.8130   29.4230 C.3   109  TRP109      0.0590
     27  CG        17.4790  -10.0240   28.2000 C.ar  109  TRP109      0.0006
     28  CD1       18.4420   -9.0840   28.0390 C.ar  109  TRP109      0.0946
     29  CD2       16.7690  -10.0930   26.9680 C.ar  109  TRP109      0.0152
     30  NE1       18.3810   -8.5570   26.7750 N.ar  109  TRP109     -0.2442
     31  CE2       17.3640   -9.1660   26.0940 C.ar  109  TRP109      0.0810
     32  CE3       15.6880  -10.8500   26.5190 C.ar  109  TRP109      0.0012
     33  CZ2       16.9160   -8.9780   24.7940 C.ar  109  TRP109      0.0191
     34  CZ3       15.2480  -10.6710   25.2380 C.ar  109  TRP109      0.0001
     35  CH2       15.8570   -9.7410   24.3840 C.ar  109  TRP109      0.0015
     36  N         14.7490  -11.6850   31.1380 N.am  110  ARG110     -0.1977
     37  CA        14.2200  -12.7760   31.9550 C.3   110  ARG110      0.1597
     38  C         13.4930  -13.7680   31.0490 C.2   110  ARG110      0.2287
     39  O         13.0920  -13.4270   29.9480 O.2   110  ARG110     -0.2864
     40  CB        13.2660  -12.2350   33.0180 C.3   110  ARG110      0.0334
     41  CG        11.9530  -11.6970   32.4740 C.3   110  ARG110      0.0492
     42  CD        11.1050  -11.0980   33.5840 C.3   110  ARG110      0.2205
     43  NE         9.8090  -10.6450   33.0890 N.pl3 110  ARG110     -0.0865
     44  CZ         8.8510  -10.0940   33.8370 C.cat 110  ARG110      0.5346
     45  NH1        7.7000   -9.7370   33.2780 N.pl3 110  ARG110      0.1354
     46  NH2        9.0340   -9.8950   35.1380 N.pl3 110  ARG110      0.1354
     47  N          6.3250  -10.0070   29.5640 N.3   113  ARG113     -0.1231
     48  CA         7.5450   -9.3800   29.0330 C.3   113  ARG113      0.1694
     49  C          8.7720  -10.2030   29.4150 C.2   113  ARG113      0.2592
     50  O          8.8570  -10.6910   30.5340 O.2   113  ARG113     -0.2718
     51  CB         7.7470   -7.9720   29.6070 C.3   113  ARG113      0.0321
     52  CG         6.7660   -6.9190   29.1440 C.3   113  ARG113      0.0489
     53  CD         7.1700   -5.5460   29.6790 C.3   113  ARG113      0.2205
     54  NE         6.8650   -5.3480   31.1070 N.pl3 113  ARG113     -0.0865
     55  CZ         7.7510   -5.1120   32.0780 C.cat 113  ARG113      0.5346
     56  NH1        9.0530   -5.0480   31.8350 N.pl3 113  ARG113      0.1354
     57  NH2        7.3270   -4.9350   33.3220 N.pl3 113  ARG113      0.1354
     58  N          9.7270  -10.3150   28.4940 N.am  114  ARG114     -0.1966
     59  CA        11.0110  -10.9690   28.7540 C.3   114  ARG114      0.1729
     60  C         12.1980  -10.0060   28.7210 C.2   114  ARG114      0.2616
     61  O         13.3520  -10.4070   28.8640 O.2   114  ARG114     -0.2715
     62  CB        11.2180  -12.0860   27.7420 C.3   114  ARG114      0.0348
     63  CG        10.2900  -13.2460   27.9960 C.3   114  ARG114      0.0492
     64  CD        10.5500  -14.3630   27.0210 C.3   114  ARG114      0.2205
     65  NE         9.7600  -15.5320   27.3630 N.pl3 114  ARG114     -0.0865
     66  CZ         9.6520  -16.6150   26.6050 C.cat 114  ARG114      0.5346
     67  NH1       10.2810  -16.6860   25.4370 N.pl3 114  ARG114      0.1354
     68  NH2        8.8990  -17.6250   27.0150 N.pl3 114  ARG114      0.1354
     69  N         11.9060   -8.7340   28.5220 N.am  115  GLU115     -0.1963
     70  CA        12.9240   -7.7800   28.1680 C.3   115  GLU115      0.1733
     71  C         12.4710   -6.4040   28.6130 C.2   115  GLU115      0.2616
     72  O         11.3080   -6.0700   28.4780 O.2   115  GLU115     -0.2715
     73  CB        13.0540   -7.9380   26.6400 C.3   115  GLU115      0.0429
     74  CG        13.6380   -6.8290   25.8210 C.3   115  GLU115      0.1163
     75  CD        12.7080   -5.6690   25.5940 C.2   115  GLU115      0.3649
     76  OE1       11.6750   -5.7910   24.8910 O.co2 115  GLU115     -0.2457
     77  OE2       13.0670   -4.6110   26.1160 O.co2 115  GLU115     -0.2457
     78  N         13.3720   -5.6300   29.2010 N.am  116  HIS116     -0.1973
     79  CA        13.0930   -4.2400   29.5380 C.3   116  HIS116      0.1656
     80  C         14.4020   -3.4820   29.6060 C.2   116  HIS116      0.2291
     81  O         15.4540   -4.0850   29.7700 O.2   116  HIS116     -0.2864
     82  CB        12.2570   -4.1170   30.8440 C.3   116  HIS116      0.0771
     83  CG        13.0210   -4.3460   32.1160 C.ar  116  HIS116      0.0820
     84  ND1       12.6430   -3.7740   33.3120 N.ar  116  HIS116     -0.2267
     85  CD2       14.1250   -5.0790   32.3870 C.ar  116  HIS116      0.1154
     86  CE1       13.4840   -4.1350   34.2630 C.ar  116  HIS116      0.1986
     87  NE2       14.3900   -4.9320   33.7300 N.ar  116  HIS116     -0.2212
     88  N         16.4460   -0.5690   31.7440 N.3   118  GLN118     -0.1245
     89  CA        16.4790   -0.1540   33.1280 C.3   118  GLN118      0.1566
     90  C         17.6180    0.8280   33.3460 C.2   118  GLN118      0.2260
     91  O         18.7830    0.4920   33.2030 O.2   118  GLN118     -0.2867
     92  CB        16.6650   -1.3730   34.0320 C.3   118  GLN118      0.0367
     93  CG        16.5380   -1.0700   35.5220 C.3   118  GLN118      0.0905
     94  CD        17.0090   -2.2230   36.3950 C.2   118  GLN118      0.2608
     95  OE1       18.1590   -2.6590   36.3070 O.2   118  GLN118     -0.2717
     96  NE2       16.1260   -2.7100   37.2500 N.am  118  GLN118     -0.0878
     97  N          2.7340   -1.0630   39.6110 N.3   282  ARG282     -0.1245
     98  CA         3.8970   -1.6070   40.3210 C.3   282  ARG282      0.1563
     99  C          4.9550   -0.5170   40.5260 C.2   282  ARG282      0.2260
    100  O          4.7660    0.6130   40.0770 O.2   282  ARG282     -0.2867
    101  CB         4.4970   -2.7610   39.5180 C.3   282  ARG282      0.0307
    102  CG         3.5950   -3.9800   39.4280 C.3   282  ARG282      0.0489
    103  CD         4.1360   -5.0000   38.4320 C.3   282  ARG282      0.2205
    104  NE         3.7890   -4.6780   37.0380 N.pl3 282  ARG282     -0.0865
    105  CZ         4.6200   -4.1790   36.1130 C.cat 282  ARG282      0.5346
    106  NH1        5.9020   -3.9070   36.3920 N.pl3 282  ARG282      0.1354
    107  NH2        4.1580   -3.9500   34.8820 N.pl3 282  ARG282      0.1354
@<TRIPOS>BOND
     1    35    33   ar
     2    35    34   ar
     3    33    31   ar
     4    76    75   ar
     5    34    32   ar
     6    67    66    1
     7    75    74    1
     8    75    77   ar
     9    74    73    1
    10    31    30   ar
    11    31    29   ar
    12    32    29   ar
    13    66    68    1
    14    66    65    2
    15    73    70    1
    16    30    28   ar
    17    29    27   ar
    18    64    65    1
    19    64    63    1
    20    62    63    1
    21    62    59    1
    22    28    27   ar
    23    70    69    1
    24    70    71    1
    25    27    26    1
    26    72    71    2
    27    58    59    1
    28    58    49   am
    29    69    60   am
    30    71    78   am
    31    60    59    1
    32    60    61    2
    33    48    49    1
    34    48    47    1
    35    48    51    1
    36    52    51    1
    37    52    53    1
    38    78    79    1
    39    49    50    2
    40    26    23    1
    41    79    80    1
    42    79    82    1
    43    80    81    2
    44    53    54    1
    45    39    38    2
    46    19    18    2
    47    16    17    1
    48    23    22    1
    49    23    24    1
    50    18    22   am
    51    18    17    1
    52    82    83    1
    53    17    20    1
    54    38    37    1
    55    54    55    2
    56    36    24   am
    57    36    37    1
    58    24    25    2
    59    88    89    1
    60    56    55    1
    61    37    40    1
    62    55    57    1
    63    83    85   ar
    64    83    84   ar
    65    20    21    1
    66    85    87   ar
    67    41    40    1
    68    41    42    1
    69    43    42    1
    70    43    44    2
    71    89    90    1
    72    89    92    1
    73    91    90    2
    74    45    44    1
    75    84    86   ar
    76    87    86   ar
    77    44    46    1
    78     9    10    1
    79     9    15    1
    80    92    93    1
    81    10    11    1
    82    10    13    1
    83    15    14    1
    84   107   105    1
    85    11    12    2
    86    93    94    1
    87    13    14    1
    88   105   106    1
    89   105   104    2
    90    95    94    2
    91    94    96   am
    92   104   103    1
    93     4     3    2
    94     8     6    1
    95   103   102    1
    96     6     5    1
    97     3     2    1
    98   102   101    1
    99   101    98    1
   100    97    98    1
   101     2     5    1
   102     2     1    1
   103   100    99    2
   104     5     7    1
   105    98    99    1
