@<TRIPOS>MOLECULE
tmp/4yrfA01.pdb
 96 95 0 0 0
SMALL
GASTEIGER

@<TRIPOS>ATOM
      1  N         70.3410   13.3430   16.3800 N.3    59  ILE59      -0.1245
      2  CA        70.1300   12.7770   17.7110 C.3    59  ILE59       0.1561
      3  C         70.3870   13.8100   18.8120 C.2    59  ILE59       0.2260
      4  O         69.6860   13.8300   19.8290 O.2    59  ILE59      -0.2867
      5  CB        71.0140   11.5230   17.9070 C.3    59  ILE59       0.0252
      6  CG1       70.5440   10.7070   19.0990 C.3    59  ILE59       0.0019
      7  CG2       72.4890   11.8810   18.0780 C.3    59  ILE59       0.0019
      8  CD1       71.1930    9.3460   19.1450 C.3    59  ILE59       0.0001
      9  N         67.7570   16.8610   18.3750 N.3    62  GLN62      -0.1245
     10  CA        66.4390   16.5180   18.9160 C.3    62  GLN62       0.1566
     11  C         66.5300   16.0540   20.3710 C.2    62  GLN62       0.2260
     12  O         65.8720   15.1000   20.7680 O.2    62  GLN62      -0.2867
     13  CB        65.7980   15.4170   18.0630 C.3    62  GLN62       0.0367
     14  CG        65.6100   15.7860   16.5990 C.3    62  GLN62       0.0905
     15  CD        65.0740   14.6360   15.7590 C.2    62  GLN62       0.2608
     16  OE1       65.2710   13.4590   16.0790 O.2    62  GLN62      -0.2717
     17  NE2       64.3930   14.9760   14.6670 N.am   62  GLN62      -0.0878
     18  N         69.2320   10.7940   24.8050 N.3    78  PRO78      -0.2116
     19  CA        68.7990   10.5010   23.4410 C.3    78  PRO78       0.1372
     20  C         69.3800    9.1880   22.9360 C.2    78  PRO78       0.2244
     21  O         68.8990    8.6380   21.9550 O.2    78  PRO78      -0.2868
     22  CB        69.3570   11.6880   22.6430 C.3    78  PRO78       0.0268
     23  CG        70.5960   12.0560   23.3720 C.3    78  PRO78       0.0207
     24  CD        70.2460   11.8690   24.8220 C.3    78  PRO78       0.0892
     25  N         65.0110    5.6700   25.6860 N.3   107  CYS107     -0.1221
     26  CA        65.7180    6.8900   25.2460 C.3   107  CYS107      0.1808
     27  C         64.7110    7.9270   24.7210 C.2   107  CYS107      0.2601
     28  O         63.5950    7.5760   24.3410 O.2   107  CYS107     -0.2717
     29  CB        66.8020    6.5470   24.2140 C.3   107  CYS107      0.0970
     30  SG        67.9800    5.2570   24.7660 S.3   107  CYS107     -0.0800
     31  N         65.1090    9.1980   24.7120 N.am  108  TRP108     -0.1962
     32  CA        64.1640   10.3100   24.5590 C.3   108  TRP108      0.1771
     33  C         64.5130   11.3190   23.4580 C.2   108  TRP108      0.2619
     34  O         65.6580   11.4290   23.0310 O.2   108  TRP108     -0.2715
     35  CB        64.0130   11.0460   25.9010 C.3   108  TRP108      0.0590
     36  CG        63.2980   10.2170   26.9080 C.ar  108  TRP108      0.0006
     37  CD1       63.8250    9.2000   27.6480 C.ar  108  TRP108      0.0946
     38  CD2       61.9120   10.2900   27.2590 C.ar  108  TRP108      0.0152
     39  NE1       62.8620    8.6440   28.4410 N.ar  108  TRP108     -0.2442
     40  CE2       61.6760    9.2880   28.2270 C.ar  108  TRP108      0.0810
     41  CE3       60.8480   11.0970   26.8510 C.ar  108  TRP108      0.0012
     42  CZ2       60.4220    9.0800   28.8020 C.ar  108  TRP108      0.0191
     43  CZ3       59.6010   10.8950   27.4240 C.ar  108  TRP108      0.0001
     44  CH2       59.3980    9.8910   28.3890 C.ar  108  TRP108      0.0015
     45  N         63.4990   12.0410   22.9980 N.am  109  ARG109     -0.1977
     46  CA        63.7070   13.1610   22.0810 C.3   109  ARG109      0.1597
     47  C         62.5910   14.1990   22.1920 C.2   109  ARG109      0.2287
     48  O         61.4970   13.9140   22.6850 O.2   109  ARG109     -0.2864
     49  CB        63.8490   12.6750   20.6290 C.3   109  ARG109      0.0334
     50  CG        62.5910   12.0860   20.0170 C.3   109  ARG109      0.0492
     51  CD        62.8580   11.5790   18.6070 C.3   109  ARG109      0.2205
     52  NE        61.6860   10.9140   18.0260 N.pl3 109  ARG109     -0.0865
     53  CZ        61.6140   10.4230   16.7850 C.cat 109  ARG109      0.5346
     54  NH1       62.6540   10.5050   15.9570 N.pl3 109  ARG109      0.1354
     55  NH2       60.4870    9.8460   16.3660 N.pl3 109  ARG109      0.1354
     56  N         56.6990   10.3940   18.0820 N.3   113  ARG113     -0.1231
     57  CA        57.0120    9.8360   19.4040 C.3   113  ARG113      0.1694
     58  C         58.2450   10.4980   20.0300 C.2   113  ARG113      0.2592
     59  O         59.2380   10.7410   19.3450 O.2   113  ARG113     -0.2718
     60  CB        57.2780    8.3260   19.3160 C.3   113  ARG113      0.0321
     61  CG        56.2170    7.5170   18.5800 C.3   113  ARG113      0.0489
     62  CD        56.1630    6.0530   19.0320 C.3   113  ARG113      0.2205
     63  NE        57.4840    5.4800   19.3140 N.pl3 113  ARG113     -0.0865
     64  CZ        57.7320    4.1840   19.5070 C.cat 113  ARG113      0.5346
     65  NH1       58.9760    3.7900   19.7670 N.pl3 113  ARG113      0.1354
     66  NH2       56.7640    3.2720   19.4220 N.pl3 113  ARG113      0.1354
     67  N         58.1860   10.7430   21.3380 N.am  114  ARG114     -0.1966
     68  CA        59.2890   11.3410   22.0880 C.3   114  ARG114      0.1729
     69  C         60.0740   10.3240   22.9340 C.2   114  ARG114      0.2616
     70  O         61.0750   10.6760   23.5560 O.2   114  ARG114     -0.2715
     71  CB        58.7490   12.4720   22.9660 C.3   114  ARG114      0.0348
     72  CG        58.3060   13.6830   22.1490 C.3   114  ARG114      0.0492
     73  CD        57.8260   14.8330   23.0170 C.3   114  ARG114      0.2205
     74  NE        57.2870   15.9260   22.2090 N.pl3 114  ARG114     -0.0865
     75  CZ        56.8270   17.0780   22.6970 C.cat 114  ARG114      0.5346
     76  NH1       56.8330   17.3120   24.0070 N.pl3 114  ARG114      0.1354
     77  NH2       56.3530   18.0070   21.8680 N.pl3 114  ARG114      0.1354
     78  N         59.6330    9.0690   22.9590 N.am  115  GLU115     -0.1963
     79  CA        60.3830    8.0390   23.6610 C.3   115  GLU115      0.1733
     80  C         60.3480    6.7080   22.9230 C.2   115  GLU115      0.2616
     81  O         59.3850    6.3780   22.2320 O.2   115  GLU115     -0.2715
     82  CB        59.8950    7.8750   25.1200 C.3   115  GLU115      0.0429
     83  CG        58.4290    7.4990   25.2970 C.3   115  GLU115      0.1163
     84  CD        58.1440    6.0300   25.0380 C.2   115  GLU115      0.3649
     85  OE1       56.9870    5.6960   24.7010 O.co2 115  GLU115     -0.2457
     86  OE2       59.0720    5.2050   25.1750 O.co2 115  GLU115     -0.2457
     87  N         61.4250    5.9570   23.0690 N.am  116  HIS116     -0.1973
     88  CA        61.4570    4.5670   22.6110 C.3   116  HIS116      0.1656
     89  C         62.4120    3.7740   23.4850 C.2   116  HIS116      0.2291
     90  O         63.2590    4.3470   24.1580 O.2   116  HIS116     -0.2864
     91  CB        61.8570    4.4910   21.1260 C.3   116  HIS116      0.0771
     92  CG        63.3100    4.7540   20.8560 C.ar  116  HIS116      0.0820
     93  ND1       63.9990    4.1210   19.8430 N.ar  116  HIS116     -0.2267
     94  CD2       64.2030    5.5780   21.4550 C.ar  116  HIS116      0.1154
     95  CE1       65.2510    4.5500   19.8240 C.ar  116  HIS116      0.1986
     96  NE2       65.4020    5.4320   20.7950 N.ar  116  HIS116     -0.2212
@<TRIPOS>BOND
     1    17    15   am
     2    15    16    2
     3    15    14    1
     4    54    53    1
     5    55    53    1
     6     1     2    1
     7    14    13    1
     8    53    52    2
     9     2     5    1
    10     2     3    1
    11     5     7    1
    12     5     6    1
    13    52    51    1
    14    13    10    1
    15    56    57    1
    16     9    10    1
    17    61    62    1
    18    61    60    1
    19    51    50    1
    20     3     4    2
    21    10    11    1
    22    62    63    1
    23     6     8    1
    24    63    64    2
    25    60    57    1
    26    59    58    2
    27    57    58    1
    28    66    64    1
    29    64    65    1
    30    95    93   ar
    31    95    96   ar
    32    93    92   ar
    33    50    49    1
    34    58    67   am
    35    11    12    2
    36    49    46    1
    37    96    94   ar
    38    92    91    1
    39    92    94   ar
    40    91    88    1
    41    67    68    1
    42    77    75    1
    43    21    20    2
    44    46    47    1
    45    46    45    1
    46    68    69    1
    47    68    71    1
    48    72    71    1
    49    72    73    1
    50    47    48    2
    51    74    75    2
    52    74    73    1
    53    81    80    2
    54    88    87    1
    55    88    89    1
    56    22    23    1
    57    22    19    1
    58    75    76    1
    59    80    87   am
    60    80    79    1
    61    69    78   am
    62    69    70    2
    63    20    19    1
    64    78    79    1
    65    45    33   am
    66    34    33    2
    67    23    24    1
    68    19    18    1
    69    33    32    1
    70    89    90    2
    71    79    82    1
    72    29    30    1
    73    29    26    1
    74    28    27    2
    75    32    31    1
    76    32    35    1
    77    85    84   ar
    78    31    27   am
    79    27    26    1
    80    18    24    1
    81    84    86   ar
    82    84    83    1
    83    82    83    1
    84    26    25    1
    85    35    36    1
    86    41    38   ar
    87    41    43   ar
    88    36    38   ar
    89    36    37   ar
    90    38    40   ar
    91    43    44   ar
    92    37    39   ar
    93    40    39   ar
    94    40    42   ar
    95    44    42   ar
