@<TRIPOS>MOLECULE
tmp/4yrgA01.pdb
 114 112 0 0 0
SMALL
GASTEIGER

@<TRIPOS>ATOM
      1  N         71.5080   14.5280   14.2880 N.3    58  GLU58      -0.1231
      2  CA        70.0730   14.6250   14.5530 C.3    58  GLU58       0.1699
      3  C         69.7610   14.2300   15.9960 C.2    58  GLU58       0.2592
      4  O         68.9060   14.8250   16.6450 O.2    58  GLU58      -0.2718
      5  CB        69.2700   13.7400   13.5910 C.3    58  GLU58       0.0402
      6  CG        67.9210   14.3410   13.2280 C.3    58  GLU58       0.1161
      7  CD        66.9600   13.3380   12.6230 C.2    58  GLU58       0.3649
      8  OE1       66.6720   12.3220   13.2890 O.co2  58  GLU58      -0.2457
      9  OE2       66.4780   13.5860   11.4890 O.co2  58  GLU58      -0.2457
     10  N         70.4760   13.2310   16.4930 N.am   59  ILE59      -0.1980
     11  CA        70.2230   12.6880   17.8250 C.3    59  ILE59       0.1595
     12  C         70.5180   13.6860   18.9530 C.2    59  ILE59       0.2287
     13  O         69.8740   13.6460   20.0140 O.2    59  ILE59      -0.2864
     14  CB        71.0240   11.3850   18.0370 C.3    59  ILE59       0.0276
     15  CG1       70.4570   10.5930   19.2120 C.3    59  ILE59       0.0022
     16  CG2       72.5060   11.6670   18.2480 C.3    59  ILE59       0.0022
     17  CD1       70.9150    9.1540   19.2170 C.3    59  ILE59       0.0001
     18  N         68.0190   16.8910   18.6900 N.3    62  GLN62      -0.1245
     19  CA        66.6950   16.5980   19.2290 C.3    62  GLN62       0.1566
     20  C         66.7790   16.0930   20.6670 C.2    62  GLN62       0.2260
     21  O         66.1030   15.1330   21.0430 O.2    62  GLN62      -0.2867
     22  CB        66.0100   15.5630   18.3370 C.3    62  GLN62       0.0367
     23  CG        65.8980   15.9990   16.8820 C.3    62  GLN62       0.0905
     24  CD        65.1530   15.0020   16.0120 C.2    62  GLN62       0.2608
     25  OE1       64.9700   13.8390   16.3830 O.2    62  GLN62      -0.2717
     26  NE2       64.7130   15.4580   14.8390 N.am   62  GLN62      -0.0878
     27  N         69.3600   10.6970   24.9740 N.3    78  PRO78      -0.2116
     28  CA        68.9180   10.3920   23.6080 C.3    78  PRO78       0.1372
     29  C         69.4380    9.0600   23.0700 C.2    78  PRO78       0.2244
     30  O         68.9810    8.6000   22.0270 O.2    78  PRO78      -0.2868
     31  CB        69.5010   11.5460   22.7850 C.3    78  PRO78       0.0268
     32  CG        70.6890   12.0120   23.5480 C.3    78  PRO78       0.0207
     33  CD        70.3530   11.7950   24.9960 C.3    78  PRO78       0.0892
     34  N         65.0970    5.5420   25.7660 N.3   107  CYS107     -0.1221
     35  CA        65.7760    6.7720   25.3600 C.3   107  CYS107      0.1808
     36  C         64.7630    7.7690   24.8370 C.2   107  CYS107      0.2601
     37  O         63.6760    7.3900   24.4100 O.2   107  CYS107     -0.2717
     38  CB        66.8480    6.4790   24.3110 C.3   107  CYS107      0.0970
     39  SG        68.1400    5.3790   24.9390 S.3   107  CYS107     -0.0800
     40  N         65.1450    9.0370   24.8620 N.am  108  TRP108     -0.1962
     41  CA        64.2190   10.1430   24.7140 C.3   108  TRP108      0.1771
     42  C         64.6260   11.1630   23.6570 C.2   108  TRP108      0.2619
     43  O         65.7850   11.2450   23.2650 O.2   108  TRP108     -0.2715
     44  CB        64.0970   10.8630   26.0550 C.3   108  TRP108      0.0590
     45  CG        63.3810   10.0440   27.0590 C.ar  108  TRP108      0.0006
     46  CD1       63.9030    9.0540   27.8150 C.ar  108  TRP108      0.0946
     47  CD2       62.0010   10.1400   27.4170 C.ar  108  TRP108      0.0152
     48  NE1       62.9410    8.5160   28.6250 N.ar  108  TRP108     -0.2442
     49  CE2       61.7570    9.1590   28.3990 C.ar  108  TRP108      0.0810
     50  CE3       60.9460   10.9540   27.0020 C.ar  108  TRP108      0.0012
     51  CZ2       60.5060    8.9760   28.9810 C.ar  108  TRP108      0.0191
     52  CZ3       59.6990   10.7680   27.5800 C.ar  108  TRP108      0.0001
     53  CH2       59.4890    9.7950   28.5590 C.ar  108  TRP108      0.0015
     54  N         63.6510   11.9460   23.2150 N.am  109  ARG109     -0.1977
     55  CA        63.9020   13.0860   22.3390 C.3   109  ARG109      0.1597
     56  C         62.7490   14.0890   22.4270 C.2   109  ARG109      0.2287
     57  O         61.6430   13.7440   22.8590 O.2   109  ARG109     -0.2864
     58  CB        64.1000   12.6270   20.8880 C.3   109  ARG109      0.0334
     59  CG        62.8370   12.1330   20.2040 C.3   109  ARG109      0.0492
     60  CD        63.1300   11.6200   18.8060 C.3   109  ARG109      0.2205
     61  NE        61.9640   10.9520   18.2290 N.pl3 109  ARG109     -0.0865
     62  CZ        61.8930   10.4720   16.9880 C.cat 109  ARG109      0.5346
     63  NH1       62.9300   10.5720   16.1600 N.pl3 109  ARG109      0.1354
     64  NH2       60.7730    9.8900   16.5690 N.pl3 109  ARG109      0.1354
     65  N         56.9770   10.1230   18.1040 N.3   113  ARG113     -0.1231
     66  CA        57.3390    9.5410   19.3920 C.3   113  ARG113      0.1694
     67  C         58.4880   10.3130   20.0380 C.2   113  ARG113      0.2592
     68  O         59.4730   10.6390   19.3750 O.2   113  ARG113     -0.2718
     69  CB        57.7510    8.0790   19.2240 C.3   113  ARG113      0.0321
     70  CG        56.6430    7.1720   18.7240 C.3   113  ARG113      0.0489
     71  CD        56.8440    5.7460   19.2280 C.3   113  ARG113      0.2205
     72  NE        55.8790    4.8040   18.6570 N.pl3 113  ARG113     -0.0865
     73  CZ        54.5950    4.7030   19.0110 C.cat 113  ARG113      0.5346
     74  NH1       53.8180    3.8010   18.4150 N.pl3 113  ARG113      0.1354
     75  NH2       54.0730    5.4910   19.9510 N.pl3 113  ARG113      0.1354
     76  N         58.3590   10.5840   21.3360 N.am  114  ARG114     -0.1966
     77  CA        59.4230   11.2000   22.1160 C.3   114  ARG114      0.1729
     78  C         60.2200   10.1840   22.9420 C.2   114  ARG114      0.2616
     79  O         61.2400   10.5260   23.5340 O.2   114  ARG114     -0.2715
     80  CB        58.8380   12.2840   23.0120 C.3   114  ARG114      0.0348
     81  CG        58.4470   13.5230   22.2240 C.3   114  ARG114      0.0492
     82  CD        58.0010   14.6600   23.1130 C.3   114  ARG114      0.2205
     83  NE        57.5440   15.7850   22.3030 N.pl3 114  ARG114     -0.0865
     84  CZ        57.0820   16.9300   22.7910 C.cat 114  ARG114      0.5346
     85  NH1       57.0140   17.1210   24.1040 N.pl3 114  ARG114      0.1354
     86  NH2       56.6880   17.8930   21.9630 N.pl3 114  ARG114      0.1354
     87  N         59.7580    8.9400   22.9870 N.am  115  GLU115     -0.1963
     88  CA        60.5030    7.8930   23.6660 C.3   115  GLU115      0.1733
     89  C         60.4600    6.6000   22.8920 C.2   115  GLU115      0.2616
     90  O         59.5190    6.3300   22.1480 O.2   115  GLU115     -0.2715
     91  CB        59.9970    7.6670   25.1140 C.3   115  GLU115      0.0429
     92  CG        58.5070    7.3690   25.2760 C.3   115  GLU115      0.1163
     93  CD        58.1320    5.9190   25.0170 C.2   115  GLU115      0.3649
     94  OE1       56.9200    5.6360   24.8240 O.co2 115  GLU115     -0.2457
     95  OE2       59.0330    5.0630   25.0050 O.co2 115  GLU115     -0.2457
     96  N         61.5050    5.8040   23.0810 N.am  116  HIS116     -0.1973
     97  CA        61.5010    4.4280   22.6390 C.3   116  HIS116      0.1656
     98  C         62.4280    3.6590   23.5540 C.2   116  HIS116      0.2291
     99  O         63.1930    4.2600   24.3140 O.2   116  HIS116     -0.2864
    100  CB        61.9120    4.3200   21.1510 C.3   116  HIS116      0.0771
    101  CG        63.3640    4.6050   20.8770 C.ar  116  HIS116      0.0820
    102  ND1       64.0030    4.1440   19.7430 N.ar  116  HIS116     -0.2267
    103  CD2       64.3000    5.2920   21.5800 C.ar  116  HIS116      0.1154
    104  CE1       65.2680    4.5360   19.7590 C.ar  116  HIS116      0.1986
    105  NE2       65.4740    5.2370   20.8600 N.ar  116  HIS116     -0.2212
    106  N         65.4810    0.8090   23.5060 N.3   118  GLN118     -0.1245
    107  CA        66.5210    0.4630   22.5810 C.3   118  GLN118      0.1566
    108  C         67.4610   -0.5410   23.1730 C.2   118  GLN118      0.2260
    109  O         68.1940   -0.2500   24.1310 O.2   118  GLN118     -0.2867
    110  CB        67.2930    1.7110   22.1740 C.3   118  GLN118      0.0367
    111  CG        68.2990    1.4350   21.0580 C.3   118  GLN118      0.0905
    112  CD        69.2700    2.5730   20.8460 C.2   118  GLN118      0.2608
    113  OE1       69.9780    2.9910   21.7800 O.2   118  GLN118     -0.2717
    114  NE2       69.3310    3.0690   19.6180 N.am  118  GLN118     -0.0878
@<TRIPOS>BOND
     1     9     7   ar
     2     7     6    1
     3     7     8   ar
     4     6     5    1
     5     5     2    1
     6     1     2    1
     7     2     3    1
     8    26    24   am
     9     3    10   am
    10     3     4    2
    11    24    25    2
    12    24    23    1
    13    63    62    1
    14    10    11    1
    15    64    62    1
    16    23    22    1
    17    62    61    2
    18    11    14    1
    19    11    12    1
    20    14    16    1
    21    14    15    1
    22    65    66    1
    23    61    60    1
    24    22    19    1
    25    74    73    1
    26    72    73    2
    27    72    71    1
    28    18    19    1
    29    70    69    1
    30    70    71    1
    31    60    59    1
    32    12    13    2
    33    73    75    1
    34    15    17    1
    35    69    66    1
    36    19    20    1
    37    68    67    2
    38    66    67    1
    39   114   112   am
    40   102   104   ar
    41   102   101   ar
    42   104   105   ar
    43    67    76   am
    44    59    58    1
    45    20    21    2
    46   112   111    1
    47   112   113    2
    48   105   103   ar
    49   101   100    1
    50   101   103   ar
    51    58    55    1
    52   111   110    1
    53   100    97    1
    54    76    77    1
    55    86    84    1
    56    30    29    2
    57    77    78    1
    58    77    80    1
    59    90    89    2
    60   110   107    1
    61    81    80    1
    62    81    82    1
    63    83    84    2
    64    83    82    1
    65    55    56    1
    66    55    54    1
    67    56    57    2
    68   107   108    1
    69   107   106    1
    70    97    96    1
    71    97    98    1
    72    31    32    1
    73    31    28    1
    74    84    85    1
    75    89    96   am
    76    89    88    1
    77    78    87   am
    78    78    79    2
    79    87    88    1
    80    29    28    1
    81   108   109    2
    82    54    42   am
    83    43    42    2
    84    32    33    1
    85    98    99    2
    86    28    27    1
    87    42    41    1
    88    88    91    1
    89    38    39    1
    90    38    35    1
    91    37    36    2
    92    41    40    1
    93    41    44    1
    94    94    93   ar
    95    36    40   am
    96    36    35    1
    97    27    33    1
    98    95    93   ar
    99    93    92    1
   100    91    92    1
   101    35    34    1
   102    44    45    1
   103    50    47   ar
   104    50    52   ar
   105    45    47   ar
   106    45    46   ar
   107    47    49   ar
   108    52    53   ar
   109    46    48   ar
   110    49    48   ar
   111    49    51   ar
   112    53    51   ar
