@<TRIPOS>MOLECULE
tmp/4yrhA00.pdb
 226 224 0 0 0
SMALL
GASTEIGER

@<TRIPOS>ATOM
      1  N          5.4950   33.7820   84.6450 N.3    41  SER41      -0.1217
      2  CA         5.1220   35.1580   84.3430 C.3    41  SER41       0.1889
      3  C          3.8970   35.5750   85.1510 C.2    41  SER41       0.2288
      4  O          3.8450   36.6760   85.6980 O.2    41  SER41      -0.2866
      5  CB         4.8520   35.3210   82.8450 C.3    41  SER41       0.2089
      6  OG         4.4690   36.6490   82.5320 O.3    41  SER41      -0.2183
      7  N          4.9290   36.0080   88.8250 N.3    44  ALA44      -0.1231
      8  CA         5.7490   37.1920   89.0560 C.3    44  ALA44       0.1694
      9  C          4.8180   38.3620   89.3370 C.2    44  ALA44       0.2591
     10  O          4.9270   39.0320   90.3620 O.2    44  ALA44      -0.2718
     11  CB         6.6420   37.4820   87.8580 C.3    44  ALA44       0.0304
     12  N          3.8960   38.5920   88.4100 N.am   45  GLN45      -0.1979
     13  CA         2.7420   39.4450   88.6520 C.3    45  GLN45       0.1601
     14  C          1.8260   38.7370   89.6510 C.2    45  GLN45       0.2287
     15  O          2.0250   37.5620   89.9430 O.2    45  GLN45      -0.2864
     16  CB         2.0210   39.7420   87.3370 C.3    45  GLN45       0.0394
     17  CG         2.9830   39.9690   86.1730 C.3    45  GLN45       0.0908
     18  CD         2.2810   40.1510   84.8400 C.2    45  GLN45       0.2608
     19  OE1        1.3630   40.9600   84.7100 O.2    45  GLN45      -0.2717
     20  NE2        2.7110   39.3910   83.8410 N.am   45  GLN45      -0.0878
     21  N         -1.9060   33.9610   81.9530 N.3    51  ILE51      -0.1245
     22  CA        -2.5030   34.4920   80.7540 C.3    51  ILE51       0.1561
     23  C         -1.8200   34.0150   79.5070 C.2    51  ILE51       0.2260
     24  O         -2.2730   34.2620   78.4280 O.2    51  ILE51      -0.2867
     25  CB        -2.5440   36.0220   80.7470 C.3    51  ILE51       0.0252
     26  CG1       -1.1480   36.6200   80.8160 C.3    51  ILE51       0.0019
     27  CG2       -3.4310   36.5350   81.8550 C.3    51  ILE51       0.0019
     28  CD1       -0.6110   36.7870   82.2050 C.3    51  ILE51       0.0001
     29  N          1.3010   44.4790   73.5000 N.3   107  VAL107     -0.1231
     30  CA         2.0930   43.6260   74.3720 C.3   107  VAL107      0.1692
     31  C          1.1540   42.9200   75.3450 C.2   107  VAL107      0.2592
     32  O          0.6000   43.5420   76.2530 O.2   107  VAL107     -0.2718
     33  CB         3.1480   44.4330   75.1400 C.3   107  VAL107      0.0266
     34  CG1        3.8590   43.5540   76.1550 C.3   107  VAL107      0.0020
     35  CG2        4.1420   45.0510   74.1680 C.3   107  VAL107      0.0020
     36  N          0.9750   41.6170   75.1460 N.am  108  LEU108     -0.1966
     37  CA         0.0070   40.8520   75.9220 C.3   108  LEU108      0.1728
     38  C          0.6630   40.1760   77.1170 C.2   108  LEU108      0.2616
     39  O          0.0340   39.9970   78.1590 O.2   108  LEU108     -0.2715
     40  CB        -0.6860   39.8190   75.0350 C.3   108  LEU108      0.0311
     41  CG        -1.5240   40.4510   73.9220 C.3   108  LEU108      0.0022
     42  CD1       -2.0950   39.3870   72.9910 C.3   108  LEU108      0.0001
     43  CD2       -2.6280   41.3200   74.5080 C.3   108  LEU108      0.0001
     44  N          1.9300   39.8100   76.9630 N.am  109  ASP109     -0.1957
     45  CA         2.6940   39.2400   78.0630 C.3   109  ASP109      0.1840
     46  C          4.1830   39.3960   77.7970 C.2   109  ASP109      0.2622
     47  O          4.6180   39.4830   76.6490 O.2   109  ASP109     -0.2715
     48  CB         2.3400   37.7680   78.2790 C.3   109  ASP109      0.1450
     49  CG         2.7370   37.2740   79.6590 C.2   109  ASP109      0.3671
     50  OD1        3.1170   38.1160   80.5010 O.co2 109  ASP109     -0.2456
     51  OD2        2.6700   36.0500   79.9040 O.co2 109  ASP109     -0.2456
     52  N          4.9590   39.4320   78.8720 N.am  110  PHE110     -0.1960
     53  CA         6.3550   39.8290   78.8050 C.3   110  PHE110      0.1771
     54  C          7.0160   39.3980   80.1040 C.2   110  PHE110      0.2620
     55  O          6.6560   39.8870   81.1710 O.2   110  PHE110     -0.2715
     56  CB         6.4670   41.3440   78.6020 C.3   110  PHE110      0.0574
     57  CG         7.8220   41.8090   78.1510 C.ar  110  PHE110     -0.0200
     58  CD1        8.8250   40.9030   77.8560 C.ar  110  PHE110     -0.0042
     59  CD2        8.0860   43.1600   78.0090 C.ar  110  PHE110     -0.0042
     60  CE1       10.0640   41.3380   77.4350 C.ar  110  PHE110     -0.0003
     61  CE2        9.3230   43.5980   77.5890 C.ar  110  PHE110     -0.0003
     62  CZ        10.3130   42.6850   77.3010 C.ar  110  PHE110     -0.0000
     63  N          7.9750   38.4820   80.0300 N.am  111  TYR111     -0.1960
     64  CA         8.5630   37.9580   81.2570 C.3   111  TYR111      0.1771
     65  C          9.9930   37.4670   81.1040 C.2   111  TYR111      0.2619
     66  O         10.3530   36.8220   80.1200 O.2   111  TYR111     -0.2715
     67  CB         7.7010   36.8190   81.8150 C.3   111  TYR111      0.0574
     68  CG         8.3210   36.1040   82.9970 C.ar  111  TYR111     -0.0198
     69  CD1        8.1740   36.6000   84.2860 C.ar  111  TYR111     -0.0009
     70  CD2        9.0480   34.9300   82.8270 C.ar  111  TYR111     -0.0009
     71  CE1        8.7370   35.9530   85.3710 C.ar  111  TYR111      0.0417
     72  CE2        9.6140   34.2760   83.9070 C.ar  111  TYR111      0.0417
     73  CZ         9.4550   34.7930   85.1760 C.ar  111  TYR111      0.1957
     74  OH        10.0150   34.1510   86.2570 O.3   111  TYR111     -0.2866
     75  N         10.7970   37.7970   82.1070 N.am  112  VAL112     -0.1977
     76  CA        12.1490   37.2890   82.2510 C.3   112  VAL112      0.1596
     77  C         12.2420   36.7480   83.6680 C.2   112  VAL112      0.2287
     78  O         11.5040   37.1990   84.5450 O.2   112  VAL112     -0.2864
     79  CB        13.2130   38.3740   82.0110 C.3   112  VAL112      0.0276
     80  CG1       14.6050   37.8160   82.2700 C.3   112  VAL112      0.0022
     81  CG2       13.1020   38.9110   80.5960 C.3   112  VAL112      0.0022
     82  N         17.1860   39.2340   85.6470 N.3   117  GLN117     -0.1231
     83  CA        16.5540   40.5060   85.2940 C.3   117  GLN117      0.1698
     84  C         17.5320   41.6660   85.3740 C.2   117  GLN117      0.2592
     85  O         18.5680   41.5790   86.0320 O.2   117  GLN117     -0.2718
     86  CB        15.3490   40.8070   86.1910 C.3   117  GLN117      0.0381
     87  CG        14.0410   40.2120   85.7120 C.3   117  GLN117      0.0905
     88  CD        12.9020   40.4520   86.6840 C.2   117  GLN117      0.2608
     89  OE1       13.0080   41.2790   87.5890 O.2   117  GLN117     -0.2717
     90  NE2       11.8040   39.7280   86.5020 N.am  117  GLN117     -0.0878
     91  N         17.1810   42.7550   84.6990 N.am  118  ARG118     -0.1966
     92  CA        18.0090   43.9520   84.6500 C.3   118  ARG118      0.1729
     93  C         19.3420   43.6090   84.0000 C.2   118  ARG118      0.2616
     94  O         20.3790   44.2060   84.2880 O.2   118  ARG118     -0.2715
     95  CB        18.1910   44.5480   86.0460 C.3   118  ARG118      0.0348
     96  CG        16.8610   44.9020   86.6990 C.3   118  ARG118      0.0492
     97  CD        16.9860   46.0300   87.7040 C.3   118  ARG118      0.2205
     98  NE        17.1490   47.3210   87.0390 N.pl3 118  ARG118     -0.0865
     99  CZ        16.8860   48.4940   87.6070 C.cat 118  ARG118      0.5346
    100  NH1       16.4320   48.5430   88.8510 N.pl3 118  ARG118      0.1354
    101  NH2       17.0650   49.6180   86.9280 N.pl3 118  ARG118      0.1354
    102  N         19.2790   42.6140   83.1220 N.am  119  HIS119     -0.1959
    103  CA        20.3400   42.3100   82.1810 C.3   119  HIS119      0.1787
    104  C         19.7350   42.6530   80.8210 C.2   119  HIS119      0.2621
    105  O         18.5300   42.8730   80.7290 O.2   119  HIS119     -0.2715
    106  CB        20.7760   40.8450   82.2650 C.3   119  HIS119      0.0785
    107  CG        21.2320   40.4230   83.6290 C.ar  119  HIS119      0.0821
    108  ND1       20.3740   40.3270   84.7030 N.ar  119  HIS119     -0.2267
    109  CD2       22.4550   40.0730   84.0960 C.ar  119  HIS119      0.1154
    110  CE1       21.0450   39.9270   85.7690 C.ar  119  HIS119      0.1986
    111  NE2       22.3100   39.7710   85.4280 N.ar  119  HIS119     -0.2212
    112  N         20.5410   42.6890   79.7680 N.am  120  GLY120     -0.1940
    113  CA        20.0400   43.0880   78.4610 C.3   120  GLY120      0.2014
    114  C         18.9770   42.2330   77.7850 C.2   120  GLY120      0.2639
    115  O         18.6920   42.4330   76.6040 O.2   120  GLY120     -0.2714
    116  N         18.3780   41.2960   78.5140 N.am  121  TYR121     -0.1959
    117  CA        17.5220   40.2860   77.8910 C.3   121  TYR121      0.1771
    118  C         16.1440   40.7850   77.4470 C.2   121  TYR121      0.2620
    119  O         15.7210   40.5290   76.3180 O.2   121  TYR121     -0.2715
    120  CB        17.3300   39.1180   78.8530 C.3   121  TYR121      0.0574
    121  CG        18.5550   38.2480   78.9790 C.ar  121  TYR121     -0.0198
    122  CD1       19.1050   37.6220   77.8700 C.ar  121  TYR121     -0.0009
    123  CD2       19.1760   38.0740   80.2060 C.ar  121  TYR121     -0.0009
    124  CE1       20.2360   36.8360   77.9830 C.ar  121  TYR121      0.0417
    125  CE2       20.3040   37.2920   80.3310 C.ar  121  TYR121      0.0417
    126  CZ        20.8320   36.6730   79.2180 C.ar  121  TYR121      0.1957
    127  OH        21.9590   35.8920   79.3440 O.3   121  TYR121     -0.2866
    128  N         15.4430   41.4820   78.3360 N.am  122  GLY122     -0.1940
    129  CA        14.1510   42.0580   78.0010 C.3   122  GLY122      0.2014
    130  C         14.2510   43.0340   76.8470 C.2   122  GLY122      0.2639
    131  O         13.3980   43.0630   75.9600 O.2   122  GLY122     -0.2714
    132  N         15.3060   43.8400   76.8710 N.am  123  SER123     -0.1949
    133  CA        15.5360   44.8480   75.8470 C.3   123  SER123      0.1924
    134  C         15.8160   44.1940   74.4990 C.2   123  SER123      0.2314
    135  O         15.4480   44.7240   73.4490 O.2   123  SER123     -0.2863
    136  CB        16.6960   45.7590   76.2490 C.3   123  SER123      0.2116
    137  OG        16.5220   46.2380   77.5720 O.3   123  SER123     -0.2180
    138  N         -1.3170   45.8620   77.3760 N.3   141  ASP141     -0.1225
    139  CA        -2.3090   45.2900   78.2780 C.3   141  ASP141      0.1805
    140  C         -1.8140   45.2540   79.7160 C.2   141  ASP141      0.2598
    141  O         -1.0040   44.3980   80.0770 O.2   141  ASP141     -0.2718
    142  CB        -2.6790   43.8750   77.8340 C.3   141  ASP141      0.1424
    143  CG        -3.8900   43.3280   78.5700 C.2   141  ASP141      0.3668
    144  OD1       -4.6280   44.1330   79.1760 O.co2 141  ASP141     -0.2456
    145  OD2       -4.0910   42.0930   78.5560 O.co2 141  ASP141     -0.2456
    146  N         -2.3290   46.1720   80.5290 N.am  142  ARG142     -0.1966
    147  CA        -2.0530   46.2080   81.9620 C.3   142  ARG142      0.1714
    148  C         -0.5660   46.0790   82.2680 C.2   142  ARG142      0.2458
    149  O         -0.1440   45.1270   82.9250 O.2   142  ARG142     -0.2730
    150  CB        -2.8250   45.0880   82.6590 C.3   142  ARG142      0.0347
    151  CG        -4.1560   44.8110   81.9930 C.3   142  ARG142      0.0492
    152  CD        -5.1060   43.9690   82.8290 C.3   142  ARG142      0.2205
    153  NE        -6.3890   43.8330   82.1420 N.pl3 142  ARG142     -0.0865
    154  CZ        -7.4940   43.3430   82.6910 C.cat 142  ARG142      0.5346
    155  NH1       -7.4920   42.9440   83.9560 N.pl3 142  ARG142      0.1354
    156  NH2       -8.6060   43.2620   81.9730 N.pl3 142  ARG142      0.1354
    157  N          0.2360   47.0400   81.7870 N.am  143  PRO143     -0.2716
    158  CA         1.6830   46.9930   82.0050 C.3   143  PRO143      0.1536
    159  C          2.0300   47.1440   83.4800 C.2   143  PRO143      0.2599
    160  O          1.3650   47.8910   84.1990 O.2   143  PRO143     -0.2715
    161  CB         2.1960   48.1840   81.1920 C.3   143  PRO143      0.0310
    162  CG         1.0430   49.1310   81.1540 C.3   143  PRO143      0.0237
    163  CD        -0.1780   48.2580   81.0710 C.3   143  PRO143      0.0939
    164  N          3.0630   46.4370   83.9220 N.am  144  SER144     -0.1950
    165  CA         3.5050   46.5350   85.3030 C.3   144  SER144      0.1924
    166  C          4.4040   47.7480   85.4710 C.2   144  SER144      0.2314
    167  O          4.9090   48.2880   84.4870 O.2   144  SER144     -0.2863
    168  CB         4.2400   45.2650   85.7290 C.3   144  SER144      0.2116
    169  OG         5.5880   45.2830   85.2910 O.3   144  SER144     -0.2180
    170  N          7.4010   47.9040   86.4040 N.3   146  LYS146     -0.1231
    171  CA         8.7120   47.6520   85.8210 C.3   146  LYS146      0.1693
    172  C          8.7020   47.8330   84.3060 C.2   146  LYS146      0.2592
    173  O          9.6640   48.3390   83.7300 O.2   146  LYS146     -0.2718
    174  CB         9.1930   46.2390   86.1590 C.3   146  LYS146      0.0285
    175  CG         8.9310   45.7870   87.5800 C.3   146  LYS146      0.0035
    176  CD         9.6420   44.4670   87.8440 C.3   146  LYS146      0.0206
    177  CE         9.4560   43.9970   89.2750 C.3   146  LYS146      0.1093
    178  NZ        10.0740   42.6580   89.4900 N.3   146  LYS146     -0.1314
    179  N          7.6110   47.4220   83.6670 N.am  147  PHE147     -0.1976
    180  CA         7.4840   47.5600   82.2210 C.3   147  PHE147      0.1639
    181  C          7.3310   49.0310   81.8510 C.2   147  PHE147      0.2290
    182  O          7.8620   49.4840   80.8370 O.2   147  PHE147     -0.2864
    183  CB         6.2980   46.7490   81.6940 C.3   147  PHE147      0.0560
    184  CG         6.2620   46.6330   80.1950 C.ar  147  PHE147     -0.0200
    185  CD1        7.4170   46.7930   79.4460 C.ar  147  PHE147     -0.0042
    186  CD2        5.0760   46.3600   79.5350 C.ar  147  PHE147     -0.0042
    187  CE1        7.3880   46.6870   78.0670 C.ar  147  PHE147     -0.0003
    188  CE2        5.0430   46.2510   78.1570 C.ar  147  PHE147     -0.0003
    189  CZ         6.1990   46.4150   77.4230 C.ar  147  PHE147     -0.0000
    190  N          8.5530   51.4590   83.6040 N.3   149  SER149     -0.1202
    191  CA         9.9190   51.9380   83.7700 C.3   149  SER149      0.2020
    192  C         10.7340   51.5720   82.5360 C.2   149  SER149      0.2618
    193  O         11.4710   52.3970   81.9950 O.2   149  SER149     -0.2717
    194  CB        10.5580   51.3440   85.0270 C.3   149  SER149      0.2103
    195  OG         9.9130   51.8040   86.2020 O.3   149  SER149     -0.2182
    196  N         10.5960   50.3190   82.1110 N.am  150  PHE150     -0.1975
    197  CA        11.2430   49.8070   80.9070 C.3   150  PHE150      0.1639
    198  C         10.9220   50.6680   79.6900 C.2   150  PHE150      0.2290
    199  O         11.8200   51.1090   78.9750 O.2   150  PHE150     -0.2864
    200  CB        10.8140   48.3550   80.6550 C.3   150  PHE150      0.0560
    201  CG        11.2780   47.7950   79.3330 C.ar  150  PHE150     -0.0200
    202  CD1       10.5280   47.9720   78.1800 C.ar  150  PHE150     -0.0042
    203  CD2       12.4580   47.0710   79.2510 C.ar  150  PHE150     -0.0042
    204  CE1       10.9540   47.4540   76.9690 C.ar  150  PHE150     -0.0003
    205  CE2       12.8890   46.5480   78.0440 C.ar  150  PHE150     -0.0003
    206  CZ        12.1360   46.7390   76.9010 C.ar  150  PHE150     -0.0000
    207  N         12.3380   54.4560   79.7810 N.3   153  LYS153     -0.1231
    208  CA        13.7830   54.6230   79.6800 C.3   153  LYS153      0.1693
    209  C         14.3550   54.1250   78.3570 C.2   153  LYS153      0.2591
    210  O         15.4440   54.5350   77.9510 O.2   153  LYS153     -0.2718
    211  CB        14.4820   53.8840   80.8210 C.3   153  LYS153      0.0285
    212  CG        15.9920   54.0000   80.7630 C.3   153  LYS153      0.0035
    213  CD        16.6530   52.6790   81.1060 C.3   153  LYS153      0.0206
    214  CE        18.1430   52.7340   80.8220 C.3   153  LYS153      0.1093
    215  NZ        18.7980   51.4170   81.0560 N.3   153  LYS153     -0.1314
    216  N         13.6190   53.2590   77.6720 N.am  154  ARG154     -0.1980
    217  CA        14.1070   52.6990   76.4190 C.3   154  ARG154      0.1597
    218  C         13.5760   53.4550   75.2090 C.2   154  ARG154      0.2287
    219  O         14.2870   53.6330   74.2200 O.2   154  ARG154     -0.2864
    220  CB        13.7310   51.2190   76.3110 C.3   154  ARG154      0.0334
    221  CG        14.5150   50.3040   77.2410 C.3   154  ARG154      0.0492
    222  CD        15.0490   49.0730   76.5160 C.3   154  ARG154      0.2205
    223  NE        16.0780   49.4020   75.5330 N.pl3 154  ARG154     -0.0865
    224  CZ        16.1030   48.9360   74.2870 C.cat 154  ARG154      0.5346
    225  NH1       15.1530   48.1140   73.8610 N.pl3 154  ARG154      0.1354
    226  NH2       17.0810   49.2880   73.4640 N.pl3 154  ARG154      0.1354
@<TRIPOS>BOND
     1    42    41    1
     2   135   134    2
     3   226   224    1
     4    29    30    1
     5   225   224    1
     6    41    43    1
     7    41    40    1
     8    35    33    1
     9   219   218    2
    10   224   223    2
    11    30    33    1
    12    30    31    1
    13   134   133    1
    14    40    37    1
    15    33    34    1
    16    36    31   am
    17    36    37    1
    18   218   217    1
    19    31    32    2
    20   223   222    1
    21   133   136    1
    22   133   132    1
    23    37    38    1
    24   131   130    2
    25   136   137    1
    26   220   217    1
    27   220   221    1
    28   119   118    2
    29   217   216    1
    30   222   221    1
    31   115   114    2
    32    47    46    2
    33   130   132   am
    34   130   129    1
    35   206   204   ar
    36   206   205   ar
    37    44    38   am
    38    44    45    1
    39   204   202   ar
    40    38    39    2
    41    62    60   ar
    42    62    61   ar
    43   138   139    1
    44   189   187   ar
    45   189   188   ar
    46    60    58   ar
    47   118   117    1
    48   118   128   am
    49    61    59   ar
    50   216   209   am
    51   114   113    1
    52   114   116   am
    53    46    45    1
    54    46    52   am
    55   142   139    1
    56   142   143    1
    57    58    57   ar
    58   122   124   ar
    59   122   121   ar
    60   117   116    1
    61   117   120    1
    62   210   209    2
    63   124   126   ar
    64   129   128    1
    65    59    57   ar
    66   205   203   ar
    67    45    48    1
    68   187   185   ar
    69    57    56    1
    70   188   186   ar
    71   202   201   ar
    72   139   140    1
    73    48    49    1
    74   209   208    1
    75    24    23    2
    76   113   112    1
    77   145   143   ar
    78   143   144   ar
    79    56    53    1
    80    53    52    1
    81    53    54    1
    82   120   121    1
    83   199   198    2
    84   121   123   ar
    85   126   127    1
    86   126   125   ar
    87   203   201   ar
    88   201   200    1
    89   185   184   ar
    90    23    22    1
    91   186   184   ar
    92    49    51   ar
    93    49    50   ar
    94   208   207    1
    95   208   211    1
    96   198   197    1
    97   140   141    2
    98   140   146   am
    99   112   104   am
   100    63    54   am
   101    63    64    1
   102    54    55    2
   103    66    65    2
   104   184   183    1
   105   123   125   ar
   106   146   147    1
   107    81    79    1
   108   200   197    1
   109   105   104    2
   110    25    22    1
   111    25    26    1
   112    25    27    1
   113    22    21    1
   114   212   211    1
   115   212   213    1
   116    26    28    1
   117   104   103    1
   118   214   215    1
   119   214   213    1
   120   182   181    2
   121   197   196    1
   122   163   162    1
   123   163   157    1
   124    65    64    1
   125    65    75   am
   126   162   161    1
   127   161   158    1
   128    64    67    1
   129   183   180    1
   130   157   158    1
   131   157   148   am
   132    67    68    1
   133   181   180    1
   134   147   148    1
   135   147   150    1
   136   156   154    1
   137   151   150    1
   138   151   152    1
   139   193   192    2
   140   158   159    1
   141    79    76    1
   142    79    80    1
   143    75    76    1
   144   196   192   am
   145   153   154    2
   146   153   152    1
   147   103   106    1
   148   103   102    1
   149   180   179    1
   150    76    77    1
   151   106   107    1
   152   148   149    2
   153     6     5    1
   154   192   191    1
   155   154   155    1
   156    70    68   ar
   157    70    72   ar
   158     5     2    1
   159    68    69   ar
   160   102    93   am
   161   159   164   am
   162   159   160    2
   163   190   191    1
   164   107   109   ar
   165   107   108   ar
   166   179   172   am
   167    77    78    2
   168   173   172    2
   169   191   194    1
   170    20    18   am
   171    72    73   ar
   172   164   165    1
   173    93    94    2
   174    93    92    1
   175   109   111   ar
   176    69    71   ar
   177   172   171    1
   178     2     1    1
   179     2     3    1
   180   167   166    2
   181    92    91    1
   182    92    95    1
   183    91    84   am
   184   108   110   ar
   185    19    18    2
   186    18    17    1
   187   194   195    1
   188     3     4    2
   189    73    71   ar
   190    73    74    1
   191   169   168    1
   192    83    84    1
   193    83    82    1
   194    83    86    1
   195   165   166    1
   196   165   168    1
   197    84    85    2
   198   111   110   ar
   199    87    86    1
   200    87    88    1
   201   171   174    1
   202   171   170    1
   203    95    96    1
   204   174   175    1
   205    17    16    1
   206    90    88   am
   207    88    89    2
   208    96    97    1
   209   101    99    1
   210    98    99    2
   211    98    97    1
   212    16    13    1
   213   175   176    1
   214    99   100    1
   215   176   177    1
   216    11     8    1
   217    12    13    1
   218    12     9   am
   219    13    14    1
   220     7     8    1
   221     8     9    1
   222   177   178    1
   223     9    10    2
   224    14    15    2
