@<TRIPOS>MOLECULE
tmp/4yrjA01.pdb
 96 95 0 0 0
SMALL
GASTEIGER

@<TRIPOS>ATOM
      1  N         70.8010   13.3810   16.7830 N.3    59  ILE59      -0.1245
      2  CA        70.6560   12.8960   18.1460 C.3    59  ILE59       0.1561
      3  C         71.0210   13.9710   19.1810 C.2    59  ILE59       0.2260
      4  O         70.4770   13.9740   20.2860 O.2    59  ILE59      -0.2867
      5  CB        71.4800   11.6000   18.3390 C.3    59  ILE59       0.0252
      6  CG1       70.8770   10.7220   19.4310 C.3    59  ILE59       0.0019
      7  CG2       72.9470   11.9050   18.6240 C.3    59  ILE59       0.0019
      8  CD1       71.2420    9.2630   19.2850 C.3    59  ILE59       0.0001
      9  N         69.5390   10.7250   24.9470 N.3    78  PRO78      -0.2116
     10  CA        69.0780   10.3860   23.6000 C.3    78  PRO78       0.1372
     11  C         69.6430    9.0560   23.0800 C.2    78  PRO78       0.2244
     12  O         69.1560    8.5320   22.0770 O.2    78  PRO78      -0.2868
     13  CB        69.5990   11.5530   22.7610 C.3    78  PRO78       0.0268
     14  CG        70.8500   11.9700   23.4470 C.3    78  PRO78       0.0207
     15  CD        70.6470   11.6970   24.9140 C.3    78  PRO78       0.0892
     16  N         65.3330    5.6750   25.8060 N.3   107  CYS107     -0.1221
     17  CA        66.0440    6.8830   25.3850 C.3   107  CYS107      0.1808
     18  C         65.0340    7.9090   24.8800 C.2   107  CYS107      0.2601
     19  O         63.9350    7.5470   24.4730 O.2   107  CYS107     -0.2717
     20  CB        67.1090    6.5410   24.3350 C.3   107  CYS107      0.0970
     21  SG        68.3890    5.3960   24.9410 S.3   107  CYS107     -0.0800
     22  N         65.4000    9.1840   24.9230 N.am  108  TRP108     -0.1962
     23  CA        64.4420   10.2750   24.7010 C.3   108  TRP108      0.1771
     24  C         64.8700   11.2900   23.6450 C.2   108  TRP108      0.2619
     25  O         66.0490   11.4410   23.3380 O.2   108  TRP108     -0.2715
     26  CB        64.1730   11.0130   26.0160 C.3   108  TRP108      0.0590
     27  CG        63.5320   10.1430   27.0470 C.ar  108  TRP108      0.0006
     28  CD1       64.1240    9.1410   27.7430 C.ar  108  TRP108      0.0946
     29  CD2       62.1750   10.1960   27.4980 C.ar  108  TRP108      0.0152
     30  NE1       63.2330    8.5710   28.5980 N.ar  108  TRP108     -0.2442
     31  CE2       62.0240    9.1930   28.4680 C.ar  108  TRP108      0.0810
     32  CE3       61.0750   11.0000   27.1800 C.ar  108  TRP108      0.0012
     33  CZ2       60.8210    8.9610   29.1240 C.ar  108  TRP108      0.0191
     34  CZ3       59.8780   10.7660   27.8280 C.ar  108  TRP108      0.0001
     35  CH2       59.7600    9.7540   28.7910 C.ar  108  TRP108      0.0015
     36  N         63.8820   11.9830   23.0950 N.am  109  ARG109     -0.1977
     37  CA        64.1250   13.0790   22.1700 C.3   109  ARG109      0.1597
     38  C         63.0170   14.1170   22.2700 C.2   109  ARG109      0.2287
     39  O         61.9360   13.8460   22.7980 O.2   109  ARG109     -0.2864
     40  CB        64.2460   12.5610   20.7310 C.3   109  ARG109      0.0334
     41  CG        62.9530   12.0520   20.1050 C.3   109  ARG109      0.0492
     42  CD        63.2150   11.5340   18.6990 C.3   109  ARG109      0.2205
     43  NE        61.9990   11.0700   18.0300 N.pl3 109  ARG109     -0.0865
     44  CZ        61.9650   10.4790   16.8350 C.cat 109  ARG109      0.5346
     45  NH1       60.8010   10.1010   16.3150 N.pl3 109  ARG109      0.1354
     46  NH2       63.0860   10.2570   16.1550 N.pl3 109  ARG109      0.1354
     47  N         56.9360   10.1690   18.1080 N.3   113  ARG113     -0.1231
     48  CA        57.3980    9.5220   19.3450 C.3   113  ARG113      0.1694
     49  C         58.5660   10.2900   19.9790 C.2   113  ARG113      0.2592
     50  O         59.5210   10.6570   19.2900 O.2   113  ARG113     -0.2718
     51  CB        57.7860    8.0490   19.0970 C.3   113  ARG113      0.0321
     52  CG        56.6000    7.0930   19.1810 C.3   113  ARG113      0.0489
     53  CD        56.8980    5.6390   18.8030 C.3   113  ARG113      0.2205
     54  NE        58.0270    5.0140   19.5060 N.pl3 113  ARG113     -0.0865
     55  CZ        58.2810    3.6980   19.5130 C.cat 113  ARG113      0.5346
     56  NH1       59.3420    3.2260   20.1590 N.pl3 113  ARG113      0.1354
     57  NH2       57.4770    2.8380   18.8850 N.pl3 113  ARG113      0.1354
     58  N         58.4680   10.5400   21.2880 N.am  114  ARG114     -0.1966
     59  CA        59.5430   11.1870   22.0520 C.3   114  ARG114      0.1729
     60  C         60.3260   10.2320   22.9760 C.2   114  ARG114      0.2616
     61  O         61.2960   10.6480   23.6070 O.2   114  ARG114     -0.2715
     62  CB        58.9860   12.3570   22.8580 C.3   114  ARG114      0.0348
     63  CG        58.6710   13.5830   22.0140 C.3   114  ARG114      0.0492
     64  CD        57.9840   14.6480   22.8430 C.3   114  ARG114      0.2205
     65  NE        57.5430   15.7690   22.0230 N.pl3 114  ARG114     -0.0865
     66  CZ        56.8150   16.7890   22.4650 C.cat 114  ARG114      0.5346
     67  NH1       56.4350   16.8460   23.7350 N.pl3 114  ARG114      0.1354
     68  NH2       56.4650   17.7590   21.6290 N.pl3 114  ARG114      0.1354
     69  N         59.9050    8.9690   23.0700 N.am  115  GLU115     -0.1963
     70  CA        60.7280    7.9450   23.7140 C.3   115  GLU115      0.1733
     71  C         60.6640    6.6150   22.9830 C.2   115  GLU115      0.2616
     72  O         59.7110    6.3160   22.2740 O.2   115  GLU115     -0.2715
     73  CB        60.3720    7.7710   25.1990 C.3   115  GLU115      0.0429
     74  CG        58.9150    7.4550   25.5110 C.3   115  GLU115      0.1163
     75  CD        58.5140    6.0440   25.1410 C.2   115  GLU115      0.3649
     76  OE1       57.3270    5.8490   24.8150 O.co2 115  GLU115     -0.2457
     77  OE2       59.3740    5.1330   25.1670 O.co2 115  GLU115     -0.2457
     78  N         61.7130    5.8280   23.1530 N.am  116  HIS116     -0.1973
     79  CA        61.7510    4.4740   22.6340 C.3   116  HIS116      0.1656
     80  C         62.6890    3.6630   23.5080 C.2   116  HIS116      0.2291
     81  O         63.5160    4.2280   24.2110 O.2   116  HIS116     -0.2864
     82  CB        62.1820    4.4610   21.1560 C.3   116  HIS116      0.0771
     83  CG        63.6320    4.7670   20.9210 C.ar  116  HIS116      0.0820
     84  ND1       64.3320    4.2330   19.8610 N.ar  116  HIS116     -0.2267
     85  CD2       64.5120    5.5440   21.5960 C.ar  116  HIS116      0.1154
     86  CE1       65.5790    4.6690   19.8900 C.ar  116  HIS116      0.1986
     87  NE2       65.7160    5.4630   20.9350 N.ar  116  HIS116     -0.2212
     88  N         65.7380    0.8370   23.4760 N.3   118  GLN118     -0.1245
     89  CA        66.7920    0.4910   22.5500 C.3   118  GLN118      0.1566
     90  C         67.7470   -0.5050   23.1660 C.2   118  GLN118      0.2260
     91  O         68.5200   -0.1700   24.0600 O.2   118  GLN118     -0.2867
     92  CB        67.5730    1.7510   22.1260 C.3   118  GLN118      0.0367
     93  CG        68.6290    1.4960   21.0490 C.3   118  GLN118      0.0905
     94  CD        69.5030    2.7150   20.7830 C.2   118  GLN118      0.2608
     95  OE1       70.2620    3.1580   21.6550 O.2   118  GLN118     -0.2717
     96  NE2       69.4080    3.2560   19.5810 N.am  118  GLN118     -0.0878
@<TRIPOS>BOND
     1    46    44    1
     2    45    44    1
     3     1     2    1
     4    44    43    2
     5    43    42    1
     6    47    48    1
     7     2     5    1
     8     2     3    1
     9     5     7    1
    10     5     6    1
    11    42    41    1
    12    53    52    1
    13    53    54    1
    14    57    55    1
    15    51    52    1
    16    51    48    1
    17     3     4    2
    18     8     6    1
    19    50    49    2
    20    48    49    1
    21    54    55    2
    22    55    56    1
    23    96    94   am
    24    84    86   ar
    25    84    83   ar
    26    86    87   ar
    27    49    58   am
    28    41    40    1
    29    40    37    1
    30    94    93    1
    31    94    95    2
    32    83    82    1
    33    83    85   ar
    34    87    85   ar
    35    93    92    1
    36    82    79    1
    37    58    59    1
    38    68    66    1
    39    63    64    1
    40    63    62    1
    41    65    66    2
    42    65    64    1
    43    59    62    1
    44    59    60    1
    45    12    11    2
    46    92    89    1
    47    37    38    1
    48    37    36    1
    49    38    39    2
    50    72    71    2
    51    66    67    1
    52    89    90    1
    53    89    88    1
    54    79    78    1
    55    79    80    1
    56    13    14    1
    57    13    10    1
    58    60    69   am
    59    60    61    2
    60    71    78   am
    61    71    70    1
    62    69    70    1
    63    11    10    1
    64    36    24   am
    65    90    91    2
    66    25    24    2
    67    14    15    1
    68    80    81    2
    69    10     9    1
    70    24    23    1
    71    70    73    1
    72    20    21    1
    73    20    17    1
    74    19    18    2
    75    23    22    1
    76    23    26    1
    77    76    75   ar
    78    18    22   am
    79    18    17    1
    80    15     9    1
    81    75    77   ar
    82    75    74    1
    83    73    74    1
    84    17    16    1
    85    26    27    1
    86    27    29   ar
    87    27    28   ar
    88    32    29   ar
    89    32    34   ar
    90    29    31   ar
    91    28    30   ar
    92    34    35   ar
    93    31    30   ar
    94    31    33   ar
    95    35    33   ar
