@<TRIPOS>MOLECULE
tmp/4yrkA01.pdb
 114 112 0 0 0
SMALL
GASTEIGER

@<TRIPOS>ATOM
      1  N         13.5720  -13.9190   43.1380 N.3    58  GLU58      -0.1231
      2  CA        12.8030  -13.9290   41.9040 C.3    58  GLU58       0.1699
      3  C         13.6970  -13.6210   40.7010 C.2    58  GLU58       0.2592
      4  O         13.5880  -14.2640   39.6620 O.2    58  GLU58      -0.2718
      5  CB        11.6640  -12.9100   42.0010 C.3    58  GLU58       0.0402
      6  CG        10.8440  -12.7500   40.7280 C.3    58  GLU58       0.1161
      7  CD         9.5750  -11.9470   40.9490 C.2    58  GLU58       0.3649
      8  OE1        9.3950  -10.9170   40.2580 O.co2  58  GLU58      -0.2457
      9  OE2        8.7640  -12.3500   41.8160 O.co2  58  GLU58      -0.2457
     10  N         14.5970  -12.6560   40.8650 N.am   59  ILE59      -0.1980
     11  CA        15.4490  -12.2080   39.7690 C.3    59  ILE59       0.1595
     12  C         16.4220  -13.2860   39.2560 C.2    59  ILE59       0.2287
     13  O         16.7310  -13.3260   38.0560 O.2    59  ILE59      -0.2864
     14  CB        16.2130  -10.9250   40.1620 C.3    59  ILE59       0.0276
     15  CG1       16.7630  -10.2320   38.9280 C.3    59  ILE59       0.0022
     16  CG2       17.3490  -11.2190   41.1410 C.3    59  ILE59       0.0022
     17  CD1       17.0970   -8.7840   39.1850 C.3    59  ILE59       0.0001
     18  N         14.3600  -16.3710   37.5300 N.3    62  GLN62      -0.1245
     19  CA        13.8240  -16.1180   36.2010 C.3    62  GLN62       0.1566
     20  C         14.9080  -15.6680   35.2210 C.2    62  GLN62       0.2260
     21  O         14.6610  -14.8230   34.3740 O.2    62  GLN62      -0.2867
     22  CB        12.7150  -15.0690   36.3020 C.3    62  GLN62       0.0367
     23  CG        11.5740  -15.4970   37.2060 C.3    62  GLN62       0.0905
     24  CD        10.4850  -14.4480   37.3560 C.2    62  GLN62       0.2608
     25  OE1       10.7290  -13.2500   37.2230 O.2    62  GLN62      -0.2717
     26  NE2        9.2680  -14.9030   37.6570 N.am   62  GLN62      -0.0878
     27  N         20.0230  -10.4260   34.0080 N.3    78  PRO78      -0.2116
     28  CA        18.7260  -10.0820   34.5900 C.3    78  PRO78       0.1372
     29  C         18.7150   -8.7080   35.2330 C.2    78  PRO78       0.2244
     30  O         17.6440   -8.1170   35.4190 O.2    78  PRO78      -0.2868
     31  CB        18.5190  -11.1650   35.6550 C.3    78  PRO78       0.0268
     32  CG        19.8970  -11.5430   36.0650 C.3    78  PRO78       0.0207
     33  CD        20.7250  -11.4450   34.8100 C.3    78  PRO78       0.0892
     34  N         17.7760   -5.4360   30.1250 N.3   107  CYS107     -0.1221
     35  CA        17.9250   -6.6060   30.9680 C.3   107  CYS107      0.1808
     36  C         16.8190   -7.6060   30.6210 C.2   107  CYS107      0.2601
     37  O         15.7500   -7.2280   30.1160 O.2   107  CYS107     -0.2717
     38  CB        17.9120   -6.2090   32.4460 C.3   107  CYS107      0.0970
     39  SG        19.2630   -5.0800   32.9290 S.3   107  CYS107     -0.0800
     40  N         17.0860   -8.8700   30.9320 N.am  108  TRP108     -0.1962
     41  CA        16.3320   -9.9910   30.4090 C.3   108  TRP108      0.1771
     42  C         15.8530  -10.9580   31.4900 C.2   108  TRP108      0.2619
     43  O         16.4060  -11.0170   32.5870 O.2   108  TRP108     -0.2715
     44  CB        17.2110  -10.7540   29.4210 C.3   108  TRP108      0.0590
     45  CG        17.5100   -9.9690   28.2100 C.ar  108  TRP108      0.0006
     46  CD1       18.4470   -9.0000   28.0750 C.ar  108  TRP108      0.0946
     47  CD2       16.8560  -10.0740   26.9490 C.ar  108  TRP108      0.0152
     48  NE1       18.4210   -8.4890   26.8060 N.ar  108  TRP108     -0.2442
     49  CE2       17.4530   -9.1290   26.0900 C.ar  108  TRP108      0.0810
     50  CE3       15.8290  -10.8810   26.4550 C.ar  108  TRP108      0.0012
     51  CZ2       17.0660   -8.9750   24.7660 C.ar  108  TRP108      0.0191
     52  CZ3       15.4390  -10.7170   25.1420 C.ar  108  TRP108      0.0001
     53  CH2       16.0560   -9.7690   24.3120 C.ar  108  TRP108      0.0015
     54  N         14.8200  -11.7150   31.1480 N.am  109  ARG109     -0.1977
     55  CA        14.2760  -12.7670   32.0000 C.3   109  ARG109      0.1597
     56  C         13.5520  -13.8030   31.1380 C.2   109  ARG109      0.2287
     57  O         13.1890  -13.5300   30.0040 O.2   109  ARG109     -0.2864
     58  CB        13.3140  -12.1800   33.0400 C.3   109  ARG109      0.0334
     59  CG        12.0000  -11.6660   32.4670 C.3   109  ARG109      0.0492
     60  CD        11.1590  -10.9990   33.5390 C.3   109  ARG109      0.2205
     61  NE         9.8660  -10.5670   33.0220 N.pl3 109  ARG109     -0.0865
     62  CZ         8.9030   -9.9800   33.7370 C.cat 109  ARG109      0.5346
     63  NH1        9.0700   -9.7280   35.0280 N.pl3 109  ARG109      0.1354
     64  NH2        7.7600   -9.6410   33.1480 N.pl3 109  ARG109      0.1354
     65  N          6.3880   -9.9940   29.3530 N.3   113  ARG113     -0.1231
     66  CA         7.5720   -9.4310   28.7110 C.3   113  ARG113      0.1694
     67  C          8.8350  -10.1220   29.2480 C.2   113  ARG113      0.2592
     68  O          8.9230  -10.4470   30.4310 O.2   113  ARG113     -0.2718
     69  CB         7.6250   -7.8950   28.8660 C.3   113  ARG113      0.0321
     70  CG         7.5720   -7.3860   30.2890 C.3   113  ARG113      0.0489
     71  CD         7.5270   -5.8710   30.3650 C.3   113  ARG113      0.2205
     72  NE         7.1610   -5.4900   31.7280 N.pl3 113  ARG113     -0.0865
     73  CZ         8.0170   -5.2580   32.7210 C.cat 113  ARG113      0.5346
     74  NH1        9.3340   -5.2990   32.5390 N.pl3 113  ARG113      0.1354
     75  NH2        7.5420   -4.9530   33.9180 N.pl3 113  ARG113      0.1354
     76  N          9.7910  -10.3690   28.3570 N.am  114  ARG114     -0.1966
     77  CA        11.0510  -11.0010   28.7140 C.3   114  ARG114      0.1729
     78  C         12.1970  -10.0110   28.6880 C.2   114  ARG114      0.2616
     79  O         13.3590  -10.3770   28.8160 O.2   114  ARG114     -0.2715
     80  CB        11.3360  -12.1430   27.7570 C.3   114  ARG114      0.0348
     81  CG        10.3420  -13.2640   27.9110 C.3   114  ARG114      0.0492
     82  CD        10.7120  -14.4480   27.0560 C.3   114  ARG114      0.2205
     83  NE         9.8020  -15.5470   27.3180 N.pl3 114  ARG114     -0.0865
     84  CZ         9.7570  -16.6690   26.6160 C.cat 114  ARG114      0.5346
     85  NH1       10.5770  -16.8560   25.5850 N.pl3 114  ARG114      0.1354
     86  NH2        8.8730  -17.6030   26.9410 N.pl3 114  ARG114      0.1354
     87  N         11.8720   -8.7370   28.5630 N.am  115  GLU115     -0.1963
     88  CA        12.8930   -7.7720   28.2470 C.3   115  GLU115      0.1733
     89  C         12.4370   -6.3880   28.6500 C.2   115  GLU115      0.2616
     90  O         11.2900   -6.0330   28.4360 O.2   115  GLU115     -0.2715
     91  CB        13.1760   -7.9530   26.7470 C.3   115  GLU115      0.0429
     92  CG        13.8070   -6.8320   26.0070 C.3   115  GLU115      0.1163
     93  CD        12.8430   -5.7260   25.7130 C.2   115  GLU115      0.3649
     94  OE1       11.8110   -5.9560   25.0410 O.co2 115  GLU115     -0.2457
     95  OE2       13.1710   -4.6160   26.1660 O.co2 115  GLU115     -0.2457
     96  N         13.3250   -5.6260   29.2810 N.am  116  HIS116     -0.1973
     97  CA        13.0840   -4.2070   29.5530 C.3   116  HIS116      0.1656
     98  C         14.4060   -3.4530   29.6260 C.2   116  HIS116      0.2291
     99  O         15.4630   -4.0650   29.7570 O.2   116  HIS116     -0.2864
    100  CB        12.2390   -4.0150   30.8400 C.3   116  HIS116      0.0771
    101  CG        12.9680   -4.2960   32.1240 C.ar  116  HIS116      0.0820
    102  ND1       12.5150   -3.8360   33.3440 N.ar  116  HIS116     -0.2267
    103  CD2       14.1070   -4.9820   32.3830 C.ar  116  HIS116      0.1154
    104  CE1       13.3450   -4.2200   34.2980 C.ar  116  HIS116      0.1986
    105  NE2       14.3250   -4.9120   33.7410 N.ar  116  HIS116     -0.2212
    106  N         16.4910   -0.5810   31.8290 N.3   118  GLN118     -0.1245
    107  CA        16.5220   -0.1760   33.2170 C.3   118  GLN118      0.1566
    108  C         17.6360    0.8220   33.4480 C.2   118  GLN118      0.2260
    109  O         18.8070    0.5040   33.2860 O.2   118  GLN118     -0.2867
    110  CB        16.7360   -1.3940   34.1030 C.3   118  GLN118      0.0367
    111  CG        16.5330   -1.1010   35.5850 C.3   118  GLN118      0.0905
    112  CD        17.0230   -2.2350   36.4570 C.2   118  GLN118      0.2608
    113  OE1       18.1820   -2.6340   36.3780 O.2   118  GLN118     -0.2717
    114  NE2       16.1440   -2.7600   37.2890 N.am  118  GLN118     -0.0878
@<TRIPOS>BOND
     1    53    51   ar
     2    53    52   ar
     3    51    49   ar
     4    94    93   ar
     5    52    50   ar
     6    85    84    1
     7    93    92    1
     8    93    95   ar
     9    92    91    1
    10    49    48   ar
    11    49    47   ar
    12    50    47   ar
    13    84    86    1
    14    84    83    2
    15    91    88    1
    16    48    46   ar
    17    47    45   ar
    18    82    83    1
    19    82    81    1
    20    80    81    1
    21    80    77    1
    22    46    45   ar
    23    45    44    1
    24    88    87    1
    25    88    89    1
    26    76    77    1
    27    76    67   am
    28    90    89    2
    29    87    78   am
    30    89    96   am
    31    78    77    1
    32    78    79    2
    33    66    69    1
    34    66    67    1
    35    66    65    1
    36    69    70    1
    37    67    68    2
    38    96    97    1
    39    44    41    1
    40    97    98    1
    41    97   100    1
    42    98    99    2
    43    57    56    2
    44    37    36    2
    45    34    35    1
    46    70    71    1
    47    71    72    1
    48    41    40    1
    49    41    42    1
    50    36    40   am
    51    36    35    1
    52   100   101    1
    53    35    38    1
    54    56    55    1
    55    54    42   am
    56    54    55    1
    57    42    43    2
    58    72    73    2
    59   106   107    1
    60    55    58    1
    61   101   103   ar
    62   101   102   ar
    63   103   105   ar
    64    38    39    1
    65    59    58    1
    66    59    60    1
    67    74    73    1
    68    73    75    1
    69    61    60    1
    70    61    62    2
    71    64    62    1
    72   107   108    1
    73   107   110    1
    74   109   108    2
    75   102   104   ar
    76    62    63    1
    77   105   104   ar
    78    27    28    1
    79    27    33    1
    80   110   111    1
    81    21    20    2
    82    28    29    1
    83    28    31    1
    84    33    32    1
    85    20    19    1
    86    29    30    2
    87   111   112    1
    88    31    32    1
    89    19    22    1
    90    19    18    1
    91    22    23    1
    92   113   112    2
    93   112   114   am
    94    23    24    1
    95    25    24    2
    96    24    26   am
    97    13    12    2
    98    15    17    1
    99    15    14    1
   100    12    11    1
   101     4     3    2
   102    11    14    1
   103    11    10    1
   104    14    16    1
   105     8     7   ar
   106     3    10   am
   107     3     2    1
   108     6     7    1
   109     6     5    1
   110     7     9   ar
   111     2     5    1
   112     2     1    1
