@<TRIPOS>MOLECULE
tmp/4yrlA01.pdb
 107 105 0 0 0
SMALL
GASTEIGER

@<TRIPOS>ATOM
      1  N         70.6330   13.4600   16.6880 N.3    59  ILE59      -0.1245
      2  CA        70.4930   12.9780   18.0540 C.3    59  ILE59       0.1561
      3  C         70.7760   14.0720   19.0830 C.2    59  ILE59       0.2260
      4  O         70.1460   14.1120   20.1430 O.2    59  ILE59      -0.2867
      5  CB        71.4090   11.7510   18.2680 C.3    59  ILE59       0.0252
      6  CG1       70.9330   10.9080   19.4350 C.3    59  ILE59       0.0019
      7  CG2       72.8640   12.1540   18.4750 C.3    59  ILE59       0.0019
      8  CD1       71.4750    9.5030   19.3650 C.3    59  ILE59       0.0001
      9  N         69.4450   10.7300   24.8560 N.3    78  PRO78      -0.2116
     10  CA        68.9920   10.3760   23.5050 C.3    78  PRO78       0.1372
     11  C         69.5680    9.0540   23.0130 C.2    78  PRO78       0.2244
     12  O         69.0120    8.4370   22.1150 O.2    78  PRO78      -0.2868
     13  CB        69.4910   11.5370   22.6490 C.3    78  PRO78       0.0268
     14  CG        70.6530   12.0980   23.3870 C.3    78  PRO78       0.0207
     15  CD        70.3660   11.8840   24.8440 C.3    78  PRO78       0.0892
     16  N         65.2640    5.7000   25.7770 N.3   107  CYS107     -0.1221
     17  CA        65.9720    6.9190   25.3560 C.3   107  CYS107      0.1808
     18  C         64.9740    7.9420   24.8120 C.2   107  CYS107      0.2601
     19  O         63.8790    7.5800   24.4000 O.2   107  CYS107     -0.2717
     20  CB        67.0610    6.5890   24.3340 C.3   107  CYS107      0.0970
     21  SG        68.2910    5.3900   24.9250 S.3   107  CYS107     -0.0800
     22  N         65.3650    9.2120   24.8130 N.am  108  TRP108     -0.1962
     23  CA        64.4230   10.3320   24.6650 C.3   108  TRP108      0.1771
     24  C         64.7680   11.3430   23.5850 C.2   108  TRP108      0.2619
     25  O         65.9130   11.4710   23.1750 O.2   108  TRP108     -0.2715
     26  CB        64.2990   11.0660   26.0090 C.3   108  TRP108      0.0590
     27  CG        63.5930   10.2220   27.0140 C.ar  108  TRP108      0.0006
     28  CD1       64.1250    9.2040   27.7410 C.ar  108  TRP108      0.0946
     29  CD2       62.2060   10.2860   27.3610 C.ar  108  TRP108      0.0152
     30  NE1       63.1640    8.6400   28.5310 N.ar  108  TRP108     -0.2442
     31  CE2       61.9740    9.2830   28.3200 C.ar  108  TRP108      0.0810
     32  CE3       61.1380   11.0980   26.9560 C.ar  108  TRP108      0.0012
     33  CZ2       60.7200    9.0660   28.8890 C.ar  108  TRP108      0.0191
     34  CZ3       59.8890   10.8850   27.5230 C.ar  108  TRP108      0.0001
     35  CH2       59.6920    9.8750   28.4810 C.ar  108  TRP108      0.0015
     36  N         63.7510   12.0710   23.1400 N.am  109  ARG109     -0.1977
     37  CA        63.9510   13.2240   22.2570 C.3   109  ARG109      0.1597
     38  C         62.8090   14.2430   22.3570 C.2   109  ARG109      0.2287
     39  O         61.6880   13.9100   22.7370 O.2   109  ARG109     -0.2864
     40  CB        64.1250   12.7650   20.8010 C.3   109  ARG109      0.0334
     41  CG        62.9090   12.0840   20.1960 C.3   109  ARG109      0.0492
     42  CD        63.2080   11.6140   18.7820 C.3   109  ARG109      0.2205
     43  NE        62.0190   11.1020   18.0960 N.pl3 109  ARG109     -0.0865
     44  CZ        61.9750   10.7410   16.8120 C.cat 109  ARG109      0.5346
     45  NH1       63.0600   10.8260   16.0380 N.pl3 109  ARG109      0.1354
     46  NH2       60.8320   10.2960   16.2930 N.pl3 109  ARG109      0.1354
     47  N         56.8820   10.3170   17.9870 N.3   113  ARG113     -0.1231
     48  CA        57.1880    9.7750   19.3140 C.3   113  ARG113      0.1694
     49  C         58.4220   10.4450   19.9170 C.2   113  ARG113      0.2592
     50  O         59.3760   10.7770   19.2030 O.2   113  ARG113     -0.2718
     51  CB        57.4020    8.2490   19.2840 C.3   113  ARG113      0.0321
     52  CG        56.2270    7.4620   18.7180 C.3   113  ARG113      0.0489
     53  CD        55.9020    6.1630   19.4620 C.3   113  ARG113      0.2205
     54  NE        57.0450    5.4580   20.0620 N.pl3 113  ARG113     -0.0865
     55  CZ        58.0420    4.8760   19.3930 C.cat 113  ARG113      0.5346
     56  NH1       59.0140    4.2530   20.0640 N.pl3 113  ARG113      0.1354
     57  NH2       58.0920    4.9220   18.0630 N.pl3 113  ARG113      0.1354
     58  N         58.3910   10.6260   21.2350 N.am  114  ARG114     -0.1966
     59  CA        59.4840   11.2450   21.9720 C.3   114  ARG114      0.1729
     60  C         60.2890   10.2690   22.8370 C.2   114  ARG114      0.2616
     61  O         61.3080   10.6600   23.3990 O.2   114  ARG114     -0.2715
     62  CB        58.9340   12.3890   22.8180 C.3   114  ARG114      0.0348
     63  CG        58.5610   13.6050   21.9800 C.3   114  ARG114      0.0492
     64  CD        58.1040   14.7570   22.8470 C.3   114  ARG114      0.2205
     65  NE        57.5440   15.8440   22.0520 N.pl3 114  ARG114     -0.0865
     66  CZ        57.0730   16.9780   22.5630 C.cat 114  ARG114      0.5346
     67  NH1       57.0880   17.1780   23.8800 N.pl3 114  ARG114      0.1354
     68  NH2       56.5780   17.9150   21.7590 N.pl3 114  ARG114      0.1354
     69  N         59.8440    9.0130   22.9520 N.am  115  GLU115     -0.1963
     70  CA        60.6530    7.9770   23.6030 C.3   115  GLU115      0.1733
     71  C         60.6010    6.6490   22.8850 C.2   115  GLU115      0.2616
     72  O         59.6290    6.3210   22.2120 O.2   115  GLU115     -0.2715
     73  CB        60.2570    7.7630   25.0780 C.3   115  GLU115      0.0429
     74  CG        58.7930    7.4420   25.3480 C.3   115  GLU115      0.1163
     75  CD        58.3880    6.0190   25.0370 C.2   115  GLU115      0.3649
     76  OE1       57.1920    5.8210   24.7510 O.co2 115  GLU115     -0.2457
     77  OE2       59.2360    5.0910   25.0910 O.co2 115  GLU115     -0.2457
     78  N         61.6650    5.8820   23.0590 N.am  116  HIS116     -0.1973
     79  CA        61.6920    4.4970   22.6210 C.3   116  HIS116      0.1656
     80  C         62.6550    3.7070   23.5010 C.2   116  HIS116      0.2291
     81  O         63.5410    4.2760   24.1410 O.2   116  HIS116     -0.2864
     82  CB        62.0640    4.4130   21.1300 C.3   116  HIS116      0.0771
     83  CG        63.5080    4.7010   20.8260 C.ar  116  HIS116      0.0820
     84  ND1       64.1280    4.2330   19.6860 N.ar  116  HIS116     -0.2267
     85  CD2       64.4540    5.3970   21.5020 C.ar  116  HIS116      0.1154
     86  CE1       65.3880    4.6330   19.6690 C.ar  116  HIS116      0.1986
     87  NE2       65.6150    5.3330   20.7630 N.ar  116  HIS116     -0.2212
     88  N         65.6760    0.9890   23.4700 N.3   118  GLN118     -0.1245
     89  CA        66.7150    0.6500   22.5260 C.3   118  GLN118      0.1566
     90  C         67.6670   -0.3420   23.1220 C.2   118  GLN118      0.2260
     91  O         68.4890   -0.0000   23.9700 O.2   118  GLN118     -0.2867
     92  CB        67.4850    1.9020   22.1070 C.3   118  GLN118      0.0367
     93  CG        68.5930    1.6150   21.0940 C.3   118  GLN118      0.0905
     94  CD        69.4300    2.8360   20.7660 C.2   118  GLN118      0.2608
     95  OE1       70.1750    3.3460   21.6130 O.2   118  GLN118     -0.2717
     96  NE2       69.3470    3.2830   19.5280 N.am  118  GLN118     -0.0878
     97  N         61.9470    1.9450    8.0260 N.3   278  ARG278     -0.1245
     98  CA        63.2270    2.5470    8.3850 C.3   278  ARG278      0.1563
     99  C         64.1550    1.4650    8.9330 C.2   278  ARG278      0.2260
    100  O         63.7880    0.2980    8.9930 O.2   278  ARG278     -0.2867
    101  CB        63.0240    3.6620    9.4150 C.3   278  ARG278      0.0307
    102  CG        62.3710    4.8710    8.7630 C.3   278  ARG278      0.0489
    103  CD        61.9750    5.9120    9.8130 C.3   278  ARG278      0.2205
    104  NE        61.1290    5.3900   10.8860 N.pl3 278  ARG278     -0.0865
    105  CZ        60.8560    6.0600   12.0170 C.cat 278  ARG278      0.5346
    106  NH1       61.3820    7.2820   12.2280 N.pl3 278  ARG278      0.1354
    107  NH2       60.0600    5.4890   12.9500 N.pl3 278  ARG278      0.1354
@<TRIPOS>BOND
     1    97    98    1
     2    98    99    1
     3    98   101    1
     4   102   101    1
     5   102   103    1
     6    99   100    2
     7   103   104    1
     8   104   105    2
     9   105   106    1
    10   105   107    1
    11    45    44    1
    12    46    44    1
    13     1     2    1
    14    44    43    2
    15    47    48    1
    16     2     5    1
    17     2     3    1
    18    57    55    1
    19    43    42    1
    20     5     7    1
    21     5     6    1
    22    52    51    1
    23    52    53    1
    24    42    41    1
    25     3     4    2
    26    50    49    2
    27    51    48    1
    28    48    49    1
    29     8     6    1
    30    55    54    2
    31    55    56    1
    32    53    54    1
    33    96    94   am
    34    86    84   ar
    35    86    87   ar
    36    84    83   ar
    37    49    58   am
    38    41    40    1
    39    87    85   ar
    40    94    93    1
    41    94    95    2
    42    40    37    1
    43    83    82    1
    44    83    85   ar
    45    93    92    1
    46    82    79    1
    47    58    59    1
    48    68    66    1
    49    59    62    1
    50    59    60    1
    51    63    62    1
    52    63    64    1
    53    65    66    2
    54    65    64    1
    55    92    89    1
    56    12    11    2
    57    72    71    2
    58    37    38    1
    59    37    36    1
    60    38    39    2
    61    89    90    1
    62    89    88    1
    63    66    67    1
    64    79    78    1
    65    79    80    1
    66    13    14    1
    67    13    10    1
    68    60    69   am
    69    60    61    2
    70    71    78   am
    71    71    70    1
    72    69    70    1
    73    11    10    1
    74    90    91    2
    75    36    24   am
    76    25    24    2
    77    14    15    1
    78    80    81    2
    79    10     9    1
    80    24    23    1
    81    70    73    1
    82    20    21    1
    83    20    17    1
    84    19    18    2
    85    23    22    1
    86    23    26    1
    87    76    75   ar
    88    18    22   am
    89    18    17    1
    90    15     9    1
    91    75    77   ar
    92    75    74    1
    93    73    74    1
    94    17    16    1
    95    26    27    1
    96    32    29   ar
    97    32    34   ar
    98    27    29   ar
    99    27    28   ar
   100    29    31   ar
   101    34    35   ar
   102    28    30   ar
   103    31    30   ar
   104    31    33   ar
   105    35    33   ar
