@<TRIPOS>MOLECULE
tmp/4yrmB01.pdb
 96 95 0 0 0
SMALL
GASTEIGER

@<TRIPOS>ATOM
      1  N         14.5790   46.1860   87.1490 N.3    59  ILE59      -0.1245
      2  CA        15.2740   46.6250   85.9380 C.3    59  ILE59       0.1561
      3  C         16.3970   45.6680   85.5180 C.2    59  ILE59       0.2260
      4  O         16.7320   45.6010   84.3350 O.2    59  ILE59      -0.2867
      5  CB        15.7700   48.0840   86.0260 C.3    59  ILE59       0.0252
      6  CG1       16.9600   48.2320   86.9730 C.3    59  ILE59       0.0019
      7  CG2       14.6280   49.0110   86.4480 C.3    59  ILE59       0.0019
      8  CD1       17.6310   49.5800   86.8260 C.3    59  ILE59       0.0001
      9  N         19.8590   48.7300   80.8700 N.3    78  PRO78      -0.2116
     10  CA        18.5480   49.0190   81.4390 C.3    78  PRO78       0.1372
     11  C         18.5360   50.3310   82.2130 C.2    78  PRO78       0.2244
     12  O         17.4780   50.8500   82.5210 O.2    78  PRO78      -0.2868
     13  CB        18.3040   47.8250   82.3700 C.3    78  PRO78       0.0268
     14  CG        19.6630   47.3840   82.7890 C.3    78  PRO78       0.0207
     15  CD        20.6280   47.7850   81.7030 C.3    78  PRO78       0.0892
     16  N         17.4590   53.8150   77.1810 N.3   107  CYS107     -0.1221
     17  CA        17.6390   52.6240   77.9940 C.3   107  CYS107      0.1808
     18  C         16.5670   51.6070   77.6500 C.2   107  CYS107      0.2601
     19  O         15.4990   51.9470   77.1190 O.2   107  CYS107     -0.2717
     20  CB        17.6080   52.9890   79.4770 C.3   107  CYS107      0.0970
     21  SG        18.9840   54.0690   79.9760 S.3   107  CYS107     -0.0800
     22  N         16.8730   50.3540   77.9420 N.am  108  TRP108     -0.1962
     23  CA        16.1480   49.2380   77.3790 C.3   108  TRP108      0.1771
     24  C         15.6580   48.2420   78.4070 C.2   108  TRP108      0.2619
     25  O         16.1790   48.1460   79.5110 O.2   108  TRP108     -0.2715
     26  CB        17.0410   48.5220   76.3730 C.3   108  TRP108      0.0590
     27  CG        17.2930   49.3660   75.1770 C.ar  108  TRP108      0.0006
     28  CD1       18.2090   50.3590   75.0610 C.ar  108  TRP108      0.0946
     29  CD2       16.5900   49.3190   73.9330 C.ar  108  TRP108      0.0152
     30  NE1       18.1380   50.9320   73.8200 N.ar  108  TRP108     -0.2442
     31  CE2       17.1540   50.3120   73.1020 C.ar  108  TRP108      0.0810
     32  CE3       15.5440   48.5370   73.4390 C.ar  108  TRP108      0.0012
     33  CZ2       16.7080   50.5450   71.8080 C.ar  108  TRP108      0.0191
     34  CZ3       15.1070   48.7630   72.1520 C.ar  108  TRP108      0.0001
     35  CH2       15.6880   49.7650   71.3510 C.ar  108  TRP108      0.0015
     36  N         14.6310   47.5040   78.0100 N.am  109  ARG109     -0.1977
     37  CA        14.1180   46.3950   78.7860 C.3   109  ARG109      0.1597
     38  C         13.4290   45.3820   77.8740 C.2   109  ARG109      0.2287
     39  O         13.1420   45.6620   76.7110 O.2   109  ARG109     -0.2864
     40  CB        13.1420   46.9020   79.8510 C.3   109  ARG109      0.0334
     41  CG        11.7840   47.3310   79.3230 C.3   109  ARG109      0.0492
     42  CD        10.8970   47.7720   80.4660 C.3   109  ARG109      0.2205
     43  NE         9.5680   48.1360   79.9960 N.pl3 109  ARG109     -0.0865
     44  CZ         8.6690   48.8200   80.7010 C.cat 109  ARG109      0.5346
     45  NH1        8.9400   49.2290   81.9380 N.pl3 109  ARG109      0.1354
     46  NH2        7.4840   49.0960   80.1610 N.pl3 109  ARG109      0.1354
     47  N          6.2000   49.1450   76.3510 N.3   113  ARG113     -0.1231
     48  CA         7.3840   49.7890   75.7830 C.3   113  ARG113      0.1694
     49  C          8.6510   49.0250   76.1500 C.2   113  ARG113      0.2592
     50  O          8.8380   48.6630   77.3080 O.2   113  ARG113     -0.2718
     51  CB         7.5060   51.2340   76.2920 C.3   113  ARG113      0.0321
     52  CG         6.4770   52.1900   75.7030 C.3   113  ARG113      0.0489
     53  CD         6.3290   53.5200   76.4480 C.3   113  ARG113      0.2205
     54  NE         6.7610   53.4680   77.8550 N.pl3 113  ARG113     -0.0865
     55  CZ         6.0360   52.9490   78.8480 C.cat 113  ARG113      0.5346
     56  NH1        4.8390   52.4150   78.6060 N.pl3 113  ARG113      0.1354
     57  NH2        6.5150   52.9510   80.0890 N.pl3 113  ARG113      0.1354
     58  N          9.5280   48.8080   75.1750 N.am  114  ARG114     -0.1966
     59  CA        10.8170   48.1850   75.4320 C.3   114  ARG114      0.1729
     60  C         11.9480   49.2050   75.5460 C.2   114  ARG114      0.2616
     61  O         13.1030   48.8550   75.7850 O.2   114  ARG114     -0.2715
     62  CB        11.1350   47.1970   74.3230 C.3   114  ARG114      0.0348
     63  CG        10.0940   46.0970   74.1790 C.3   114  ARG114      0.0492
     64  CD        10.7200   44.7550   73.8560 C.3   114  ARG114      0.2205
     65  NE         9.7070   43.6990   73.9350 N.pl3 114  ARG114     -0.0865
     66  CZ         9.3300   42.8910   72.9440 C.cat 114  ARG114      0.5346
     67  NH1        9.8880   42.9550   71.7370 N.pl3 114  ARG114      0.1354
     68  NH2        8.3800   41.9930   73.1720 N.pl3 114  ARG114      0.1354
     69  N         11.6100   50.4780   75.4320 N.am  115  GLU115     -0.1963
     70  CA        12.6100   51.4730   75.1590 C.3   115  GLU115      0.1733
     71  C         12.1700   52.8410   75.7030 C.2   115  GLU115      0.2616
     72  O         11.0210   53.2410   75.5510 O.2   115  GLU115     -0.2715
     73  CB        12.8180   51.4310   73.6390 C.3   115  GLU115      0.0429
     74  CG        13.3670   52.6390   72.9600 C.3   115  GLU115      0.1163
     75  CD        12.3660   53.7490   72.8530 C.2   115  GLU115      0.3649
     76  OE1       11.3160   53.6030   72.1900 O.co2 115  GLU115     -0.2457
     77  OE2       12.6530   54.7900   73.4470 O.co2 115  GLU115     -0.2457
     78  N         13.0620   53.5340   76.4000 N.am  116  HIS116     -0.1973
     79  CA        12.7850   54.9250   76.7380 C.3   116  HIS116      0.1656
     80  C         14.0670   55.7260   76.8290 C.2   116  HIS116      0.2291
     81  O         15.1440   55.1550   76.8850 O.2   116  HIS116     -0.2864
     82  CB        11.9460   55.0260   78.0240 C.3   116  HIS116      0.0771
     83  CG        12.7170   54.7830   79.2870 C.ar  116  HIS116      0.0820
     84  ND1       12.3360   55.3210   80.4980 N.ar  116  HIS116     -0.2267
     85  CD2       13.8490   54.0820   79.5300 C.ar  116  HIS116      0.1154
     86  CE1       13.1980   54.9590   81.4320 C.ar  116  HIS116      0.1986
     87  NE2       14.1320   54.2150   80.8700 N.ar  116  HIS116     -0.2212
     88  N         16.0460   58.5700   79.1290 N.3   118  GLN118     -0.1245
     89  CA        16.0880   58.8680   80.5310 C.3   118  GLN118      0.1566
     90  C         17.2030   59.8520   80.7960 C.2   118  GLN118      0.2260
     91  O         18.3880   59.5210   80.6840 O.2   118  GLN118     -0.2867
     92  CB        16.3110   57.5980   81.3430 C.3   118  GLN118      0.0367
     93  CG        16.2470   57.8460   82.8470 C.3   118  GLN118      0.0905
     94  CD        16.8040   56.7040   83.6710 C.2   118  GLN118      0.2608
     95  OE1       17.9750   56.3420   83.5480 O.2   118  GLN118     -0.2717
     96  NE2       15.9680   56.1370   84.5330 N.am  118  GLN118     -0.0878
@<TRIPOS>BOND
     1    35    33   ar
     2    35    34   ar
     3    67    66    1
     4    33    31   ar
     5    34    32   ar
     6    76    75   ar
     7    75    74    1
     8    75    77   ar
     9    66    68    1
    10    66    65    2
    11    74    73    1
    12    31    30   ar
    13    31    29   ar
    14    32    29   ar
    15    73    70    1
    16    30    28   ar
    17    64    65    1
    18    64    63    1
    19    29    27   ar
    20    63    62    1
    21    62    59    1
    22    28    27   ar
    23    70    69    1
    24    70    71    1
    25    58    59    1
    26    58    49   am
    27    27    26    1
    28    69    60   am
    29    59    60    1
    30    60    61    2
    31    72    71    2
    32    52    51    1
    33    52    53    1
    34    71    78   am
    35    48    49    1
    36    48    51    1
    37    48    47    1
    38    49    50    2
    39    26    23    1
    40    78    79    1
    41    53    54    1
    42    39    38    2
    43    79    80    1
    44    79    82    1
    45    80    81    2
    46    19    18    2
    47    16    17    1
    48    23    22    1
    49    23    24    1
    50    18    22   am
    51    18    17    1
    52    54    55    2
    53    38    37    1
    54    17    20    1
    55    36    24   am
    56    36    37    1
    57    82    83    1
    58    24    25    2
    59    56    55    1
    60    37    40    1
    61    55    57    1
    62    88    89    1
    63    83    85   ar
    64    83    84   ar
    65    41    40    1
    66    41    42    1
    67    20    21    1
    68    85    87   ar
    69    43    42    1
    70    43    44    2
    71    46    44    1
    72    84    86   ar
    73    89    90    1
    74    89    92    1
    75    91    90    2
    76    44    45    1
    77     9    10    1
    78     9    15    1
    79    87    86   ar
    80    92    93    1
    81    10    11    1
    82    10    13    1
    83    15    14    1
    84    11    12    2
    85    13    14    1
    86    93    94    1
    87    95    94    2
    88    94    96   am
    89     4     3    2
    90     3     2    1
    91     2     5    1
    92     2     1    1
    93     5     7    1
    94     5     6    1
    95     8     6    1
