@<TRIPOS>MOLECULE
tmp/4yroA01.pdb
 96 95 0 0 0
SMALL
GASTEIGER

@<TRIPOS>ATOM
      1  N         70.5810   13.3430   16.4580 N.3    59  ILE59      -0.1245
      2  CA        70.3390   12.9070   17.8330 C.3    59  ILE59       0.1561
      3  C         70.6500   14.0110   18.8590 C.2    59  ILE59       0.2260
      4  O         69.9360   14.1590   19.8590 O.2    59  ILE59      -0.2867
      5  CB        71.1100   11.5950   18.1230 C.3    59  ILE59       0.0252
      6  CG1       70.4330   10.8010   19.2180 C.3    59  ILE59       0.0019
      7  CG2       72.5680   11.8480   18.4870 C.3    59  ILE59       0.0019
      8  CD1       70.8830    9.3590   19.2360 C.3    59  ILE59       0.0001
      9  N         69.3700   10.7670   24.8700 N.3    78  PRO78      -0.2116
     10  CA        68.8820   10.4500   23.5320 C.3    78  PRO78       0.1372
     11  C         69.3820    9.0960   23.0350 C.2    78  PRO78       0.2244
     12  O         68.7460    8.4940   22.1700 O.2    78  PRO78      -0.2868
     13  CB        69.4510   11.5840   22.6870 C.3    78  PRO78       0.0268
     14  CG        70.7310   11.9110   23.3520 C.3    78  PRO78       0.0207
     15  CD        70.4860   11.7280   24.8220 C.3    78  PRO78       0.0892
     16  N         65.0250    5.6810   25.7440 N.3   107  CYS107     -0.1221
     17  CA        65.7040    6.9080   25.3020 C.3   107  CYS107      0.1808
     18  C         64.7150    7.9650   24.7960 C.2   107  CYS107      0.2601
     19  O         63.6160    7.6420   24.3530 O.2   107  CYS107     -0.2717
     20  CB        66.7610    6.5880   24.2430 C.3   107  CYS107      0.0970
     21  SG        68.0970    5.5240   24.8480 S.3   107  CYS107     -0.0800
     22  N         65.1370    9.2220   24.8540 N.am  108  TRP108     -0.1962
     23  CA        64.2570   10.3700   24.6770 C.3   108  TRP108      0.1771
     24  C         64.7110   11.3600   23.6110 C.2   108  TRP108      0.2619
     25  O         65.9040   11.5920   23.4140 O.2   108  TRP108     -0.2715
     26  CB        64.1250   11.1190   26.0070 C.3   108  TRP108      0.0590
     27  CG        63.4640   10.2820   27.0500 C.ar  108  TRP108      0.0006
     28  CD1       64.0530    9.3420   27.8330 C.ar  108  TRP108      0.0946
     29  CD2       62.0770   10.2860   27.3980 C.ar  108  TRP108      0.0152
     30  NE1       63.1240    8.7690   28.6590 N.ar  108  TRP108     -0.2442
     31  CE2       61.9000    9.3300   28.4130 C.ar  108  TRP108      0.0810
     32  CE3       60.9680   11.0140   26.9550 C.ar  108  TRP108      0.0012
     33  CZ2       60.6560    9.0730   28.9940 C.ar  108  TRP108      0.0191
     34  CZ3       59.7330   10.7640   27.5340 C.ar  108  TRP108      0.0001
     35  CH2       59.5890    9.8000   28.5440 C.ar  108  TRP108      0.0015
     36  N         63.7230   11.9390   22.9310 N.am  109  ARG109     -0.1977
     37  CA        63.9160   13.0930   22.0540 C.3   109  ARG109      0.1597
     38  C         62.7510   14.0690   22.2260 C.2   109  ARG109      0.2287
     39  O         61.6520   13.6870   22.6420 O.2   109  ARG109     -0.2864
     40  CB        64.0390   12.6600   20.5850 C.3   109  ARG109      0.0334
     41  CG        62.7860   12.0360   19.9960 C.3   109  ARG109      0.0492
     42  CD        63.0070   11.5120   18.5860 C.3   109  ARG109      0.2205
     43  NE        61.7440   11.0610   17.9920 N.pl3 109  ARG109     -0.0865
     44  CZ        61.5890   10.6230   16.7400 C.cat 109  ARG109      0.5346
     45  NH1       62.6220   10.5650   15.9030 N.pl3 109  ARG109      0.1354
     46  NH2       60.3820   10.2460   16.3170 N.pl3 109  ARG109      0.1354
     47  N         56.7160   10.4600   17.8800 N.3   113  ARG113     -0.1231
     48  CA        56.9360    9.9080   19.2220 C.3   113  ARG113      0.1694
     49  C         58.2480   10.4430   19.8420 C.2   113  ARG113      0.2592
     50  O         59.2140   10.7200   19.1240 O.2   113  ARG113     -0.2718
     51  CB        56.8740    8.3740   19.2110 C.3   113  ARG113      0.0321
     52  CG        58.0630    7.6940   18.5660 C.3   113  ARG113      0.0489
     53  CD        57.8230    6.2130   18.3320 C.3   113  ARG113      0.2205
     54  NE        59.0640    5.5630   17.9080 N.pl3 113  ARG113     -0.0865
     55  CZ        59.6050    5.6730   16.6930 C.cat 113  ARG113      0.5346
     56  NH1       59.0220    6.4030   15.7420 N.pl3 113  ARG113      0.1354
     57  NH2       60.7410    5.0480   16.4260 N.pl3 113  ARG113      0.1354
     58  N         58.2470   10.6100   21.1680 N.am  114  ARG114     -0.1966
     59  CA        59.3540   11.2390   21.9110 C.3   114  ARG114      0.1729
     60  C         60.1410   10.2840   22.8140 C.2   114  ARG114      0.2616
     61  O         61.1470   10.6670   23.4010 O.2   114  ARG114     -0.2715
     62  CB        58.8190   12.4040   22.7490 C.3   114  ARG114      0.0348
     63  CG        58.4780   13.6240   21.9090 C.3   114  ARG114      0.0492
     64  CD        57.8370   14.7220   22.7310 C.3   114  ARG114      0.2205
     65  NE        57.5830   15.8980   21.9110 N.pl3 114  ARG114     -0.0865
     66  CZ        57.0230   17.0200   22.3510 C.cat 114  ARG114      0.5346
     67  NH1       56.6500   17.1270   23.6210 N.pl3 114  ARG114      0.1354
     68  NH2       56.8400   18.0420   21.5180 N.pl3 114  ARG114      0.1354
     69  N         59.6800    9.0500   22.9560 N.am  115  GLU115     -0.1963
     70  CA        60.4930    8.0550   23.6250 C.3   115  GLU115      0.1733
     71  C         60.4170    6.7170   22.9160 C.2   115  GLU115      0.2616
     72  O         59.4850    6.4410   22.1580 O.2   115  GLU115     -0.2715
     73  CB        60.1470    7.9380   25.1220 C.3   115  GLU115      0.0429
     74  CG        58.6970    7.6160   25.4620 C.3   115  GLU115      0.1163
     75  CD        58.3060    6.1980   25.1190 C.2   115  GLU115      0.3649
     76  OE1       57.1330    5.9690   24.7710 O.co2 115  GLU115     -0.2457
     77  OE2       59.1700    5.3080   25.1850 O.co2 115  GLU115     -0.2457
     78  N         61.4430    5.9160   23.1500 N.am  116  HIS116     -0.1973
     79  CA        61.4670    4.5360   22.7020 C.3   116  HIS116      0.1656
     80  C         62.4610    3.7330   23.5380 C.2   116  HIS116      0.2291
     81  O         63.2930    4.2870   24.2430 O.2   116  HIS116     -0.2864
     82  CB        61.7990    4.4590   21.2030 C.3   116  HIS116      0.0771
     83  CG        63.2330    4.7450   20.8700 C.ar  116  HIS116      0.0820
     84  ND1       63.8250    4.2910   19.7120 N.ar  116  HIS116     -0.2267
     85  CD2       64.1940    5.4280   21.5410 C.ar  116  HIS116      0.1154
     86  CE1       65.0880    4.6830   19.6810 C.ar  116  HIS116      0.1986
     87  NE2       65.3370    5.3740   20.7800 N.ar  116  HIS116     -0.2212
     88  N         65.5330    0.8530   23.3920 N.3   118  GLN118     -0.1245
     89  CA        66.5860    0.5430   22.4660 C.3   118  GLN118      0.1566
     90  C         67.4840   -0.4310   23.1430 C.2   118  GLN118      0.2260
     91  O         68.1410   -0.1020   24.1330 O.2   118  GLN118     -0.2867
     92  CB        67.3730    1.8090   22.0900 C.3   118  GLN118      0.0367
     93  CG        68.5010    1.5830   21.0740 C.3   118  GLN118      0.0905
     94  CD        69.3040    2.8460   20.7860 C.2   118  GLN118      0.2608
     95  OE1       69.9920    3.3710   21.6660 O.2   118  GLN118     -0.2717
     96  NE2       69.2330    3.3280   19.5500 N.am  118  GLN118     -0.0878
@<TRIPOS>BOND
     1    56    55    1
     2    45    44    1
     3    46    44    1
     4    57    55    1
     5     1     2    1
     6    55    54    2
     7    44    43    2
     8     2     5    1
     9     2     3    1
    10    47    48    1
    11    54    53    1
    12    43    42    1
    13     5     7    1
    14     5     6    1
    15    53    52    1
    16    52    51    1
    17    42    41    1
    18     3     4    2
    19    50    49    2
    20    51    48    1
    21     6     8    1
    22    48    49    1
    23    96    94   am
    24    86    84   ar
    25    86    87   ar
    26    84    83   ar
    27    49    58   am
    28    41    40    1
    29    40    37    1
    30    87    85   ar
    31    94    93    1
    32    94    95    2
    33    83    82    1
    34    83    85   ar
    35    93    92    1
    36    58    59    1
    37    82    79    1
    38    68    66    1
    39    63    64    1
    40    63    62    1
    41    59    62    1
    42    59    60    1
    43    65    66    2
    44    65    64    1
    45    37    38    1
    46    37    36    1
    47    92    89    1
    48    72    71    2
    49    12    11    2
    50    38    39    2
    51    66    67    1
    52    89    90    1
    53    89    88    1
    54    13    14    1
    55    13    10    1
    56    79    78    1
    57    79    80    1
    58    60    69   am
    59    60    61    2
    60    71    78   am
    61    71    70    1
    62    36    24   am
    63    69    70    1
    64    11    10    1
    65    90    91    2
    66    14    15    1
    67    25    24    2
    68    10     9    1
    69    80    81    2
    70    24    23    1
    71    70    73    1
    72    20    21    1
    73    20    17    1
    74    19    18    2
    75    23    22    1
    76    23    26    1
    77    76    75   ar
    78    18    22   am
    79    18    17    1
    80    15     9    1
    81    75    77   ar
    82    75    74    1
    83    73    74    1
    84    17    16    1
    85    26    27    1
    86    32    29   ar
    87    32    34   ar
    88    27    29   ar
    89    27    28   ar
    90    29    31   ar
    91    34    35   ar
    92    28    30   ar
    93    31    30   ar
    94    31    33   ar
    95    35    33   ar
