@<TRIPOS>MOLECULE
tmp/4yrpB01.pdb
 101 98 0 0 0
SMALL
GASTEIGER

@<TRIPOS>ATOM
      1  N         19.3780   48.4960   80.5330 N.3    78  PRO78      -0.2116
      2  CA        18.0820   48.8210   81.1220 C.3    78  PRO78       0.1372
      3  C         18.0810   50.1530   81.8700 C.2    78  PRO78       0.2244
      4  O         17.0170   50.7060   82.1610 O.2    78  PRO78      -0.2868
      5  CB        17.8470   47.6580   82.0940 C.3    78  PRO78       0.0268
      6  CG        19.2110   47.2210   82.4860 C.3    78  PRO78       0.0207
      7  CD        20.0500   47.3990   81.2530 C.3    78  PRO78       0.0892
      8  N         17.0500   53.6670   76.9180 N.3   107  CYS107     -0.1221
      9  CA        17.2290   52.4460   77.6850 C.3   107  CYS107      0.1808
     10  C         16.1620   51.4460   77.3070 C.2   107  CYS107      0.2601
     11  O         15.1020   51.8170   76.7970 O.2   107  CYS107     -0.2717
     12  CB        17.2030   52.7400   79.1810 C.3   107  CYS107      0.0970
     13  SG        18.5570   53.8150   79.7050 S.3   107  CYS107     -0.0800
     14  N         16.4550   50.1760   77.5680 N.am  108  TRP108     -0.1962
     15  CA        15.7030   49.0650   77.0080 C.3   108  TRP108      0.1771
     16  C         15.1980   48.0730   78.0520 C.2   108  TRP108      0.2619
     17  O         15.7050   47.9900   79.1620 O.2   108  TRP108     -0.2715
     18  CB        16.5810   48.3370   75.9840 C.3   108  TRP108      0.0590
     19  CG        16.8780   49.2020   74.7990 C.ar  108  TRP108      0.0006
     20  CD1       17.8050   50.1950   74.7220 C.ar  108  TRP108      0.0946
     21  CD2       16.2220   49.1650   73.5340 C.ar  108  TRP108      0.0152
     22  NE1       17.7730   50.7780   73.4870 N.ar  108  TRP108     -0.2442
     23  CE2       16.8120   50.1590   72.7310 C.ar  108  TRP108      0.0810
     24  CE3       15.1910   48.3890   73.0010 C.ar  108  TRP108      0.0012
     25  CZ2       16.4020   50.4010   71.4200 C.ar  108  TRP108      0.0191
     26  CZ3       14.7890   48.6220   71.7000 C.ar  108  TRP108      0.0001
     27  CH2       15.3890   49.6210   70.9260 C.ar  108  TRP108      0.0015
     28  N         14.1700   47.3320   77.6720 N.am  109  ARG109     -0.1977
     29  CA        13.6570   46.2500   78.4840 C.3   109  ARG109      0.1597
     30  C         12.9640   45.2240   77.5910 C.2   109  ARG109      0.2287
     31  O         12.5530   45.5310   76.4740 O.2   109  ARG109     -0.2864
     32  CB        12.7010   46.7750   79.5640 C.3   109  ARG109      0.0334
     33  CG        11.3260   47.1640   79.0610 C.3   109  ARG109      0.0492
     34  CD        10.4980   47.8120   80.1550 C.3   109  ARG109      0.2205
     35  NE         9.2290   48.3050   79.6250 N.pl3 109  ARG109     -0.0865
     36  CZ         8.2380   48.8170   80.3520 C.cat 109  ARG109      0.5346
     37  NH1        8.3410   48.9280   81.6760 N.pl3 109  ARG109      0.1354
     38  NH2        7.1290   49.2260   79.7440 N.pl3 109  ARG109      0.1354
     39  N          5.7430   48.9790   75.9290 N.3   113  ARG113     -0.1245
     40  CA         6.9570   49.6270   75.4360 C.3   113  ARG113      0.1563
     41  C          8.2100   48.8720   75.8810 C.2   113  ARG113      0.2260
     42  O          8.3270   48.4970   77.0500 O.2   113  ARG113     -0.2867
     43  CB         7.0360   51.0750   75.9380 C.3   113  ARG113      0.0307
     44  CG         5.8900   51.9480   75.4520 C.3   113  ARG113      0.0489
     45  CD         6.2760   53.4190   75.3450 C.3   113  ARG113      0.2205
     46  NE         5.7040   54.0280   74.1380 N.pl3 113  ARG113     -0.0865
     47  CZ         4.5740   54.7370   74.0820 C.cat 113  ARG113      0.5346
     48  NH1        3.8330   54.9520   75.1710 N.pl3 113  ARG113      0.1354
     49  NH2        4.1740   55.2340   72.9090 N.pl3 113  ARG113      0.1354
     50  N         11.2510   50.2900   75.1950 N.3   115  GLU115     -0.1231
     51  CA        12.2510   51.2710   74.9170 C.3   115  GLU115      0.1699
     52  C         11.7540   52.6380   75.3820 C.2   115  GLU115      0.2592
     53  O         10.5980   52.9790   75.1920 O.2   115  GLU115     -0.2718
     54  CB        12.5320   51.1810   73.4120 C.3   115  GLU115      0.0402
     55  CG        13.1200   52.3770   72.7450 C.3   115  GLU115      0.1161
     56  CD        12.1240   53.4850   72.5560 C.2   115  GLU115      0.3649
     57  OE1       11.1100   53.2910   71.8520 O.co2 115  GLU115     -0.2457
     58  OE2       12.3830   54.5570   73.1270 O.co2 115  GLU115     -0.2457
     59  N         12.6170   53.3830   76.0600 N.am  116  HIS116     -0.1976
     60  CA        12.3180   54.7740   76.4140 C.3   116  HIS116      0.1656
     61  C         13.5950   55.5700   76.4950 C.2   116  HIS116      0.2291
     62  O         14.6790   55.0000   76.5390 O.2   116  HIS116     -0.2864
     63  CB        11.5230   54.8530   77.7280 C.3   116  HIS116      0.0771
     64  CG        12.3190   54.5450   78.9630 C.ar  116  HIS116      0.0820
     65  ND1       11.9410   54.9890   80.2120 N.ar  116  HIS116     -0.2267
     66  CD2       13.4600   53.8400   79.1470 C.ar  116  HIS116      0.1154
     67  CE1       12.8150   54.5710   81.1110 C.ar  116  HIS116      0.1986
     68  NE2       13.7440   53.8690   80.4910 N.ar  116  HIS116     -0.2212
     69  N         15.6110   58.3710   78.8530 N.3   118  GLN118     -0.1245
     70  CA        15.6440   58.6550   80.2630 C.3   118  GLN118      0.1566
     71  C         16.7400   59.6470   80.5510 C.2   118  GLN118      0.2260
     72  O         17.9230   59.3380   80.4260 O.2   118  GLN118     -0.2867
     73  CB        15.8650   57.3740   81.0710 C.3   118  GLN118      0.0367
     74  CG        15.6670   57.5850   82.5730 C.3   118  GLN118      0.0905
     75  CD        16.2150   56.4560   83.4210 C.2   118  GLN118      0.2608
     76  OE1       17.3870   56.0820   83.3050 O.2   118  GLN118     -0.2717
     77  NE2       15.3770   55.9260   84.3060 N.am  118  GLN118     -0.0878
     78  N          1.8790   57.0130   86.5940 N.3   273  ARG273     -0.1245
     79  CA         3.0260   56.4040   87.2630 C.3   273  ARG273      0.1563
     80  C          4.0460   57.4910   87.5770 C.2   273  ARG273      0.2260
     81  O          3.8550   58.6430   87.2080 O.2   273  ARG273     -0.2867
     82  CB         3.6570   55.3310   86.3620 C.3   273  ARG273      0.0307
     83  CG         2.7540   54.1100   86.2820 C.3   273  ARG273      0.0489
     84  CD         3.2630   53.1200   85.2320 C.3   273  ARG273      0.2205
     85  NE         3.4590   53.7000   83.9040 N.pl3 273  ARG273     -0.0865
     86  CZ         4.1070   53.0810   82.9050 C.cat 273  ARG273      0.5346
     87  NH1        4.6390   51.8570   83.0930 N.pl3 273  ARG273      0.1354
     88  NH2        4.2340   53.7030   81.7100 N.pl3 273  ARG273      0.1354
     89  N          8.2340   59.2600   78.6480 N.3   304  CYS304     -0.1221
     90  CA         6.8750   58.8590   78.2920 C.3   304  CYS304      0.1808
     91  C          5.7960   59.3620   79.2650 C.2   304  CYS304      0.2601
     92  O          4.7940   59.9160   78.8240 O.2   304  CYS304     -0.2717
     93  CB         6.8050   57.3430   78.0830 C.3   304  CYS304      0.0970
     94  SG         7.7520   56.7870   76.6270 S.3   304  CYS304     -0.0800
     95  N          5.9950   59.2010   80.5690 N.am  305  VAL305     -0.1979
     96  CA         4.9680   59.6250   81.5270 C.3   305  VAL305      0.1595
     97  C          4.7740   61.1440   81.5330 C.2   305  VAL305      0.2287
     98  O          3.6370   61.6220   81.5110 O.2   305  VAL305     -0.2864
     99  CB         5.2510   59.1440   82.9630 C.3   305  VAL305      0.0276
    100  CG1        4.1970   59.6910   83.9230 C.3   305  VAL305      0.0022
    101  CG2        5.2510   57.6230   83.0150 C.3   305  VAL305      0.0022
@<TRIPOS>BOND
     1    27    25   ar
     2    27    26   ar
     3    25    23   ar
     4    26    24   ar
     5    57    56   ar
     6    56    55    1
     7    56    58   ar
     8    23    22   ar
     9    23    21   ar
    10    55    54    1
    11    49    47    1
    12    24    21   ar
    13    54    51    1
    14    22    20   ar
    15    21    19   ar
    16    47    46    2
    17    47    48    1
    18    46    45    1
    19    20    19   ar
    20    19    18    1
    21    51    50    1
    22    51    52    1
    23    53    52    2
    24    45    44    1
    25    52    59   am
    26    40    41    1
    27    40    39    1
    28    40    43    1
    29    44    43    1
    30    41    42    2
    31    18    15    1
    32    59    60    1
    33    60    61    1
    34    60    63    1
    35    31    30    2
    36    61    62    2
    37    94    93    1
    38    11    10    2
    39     8     9    1
    40    15    14    1
    41    15    16    1
    42    10    14   am
    43    10     9    1
    44    30    29    1
    45    28    16   am
    46    28    29    1
    47     9    12    1
    48    63    64    1
    49    16    17    2
    50    93    90    1
    51    90    89    1
    52    90    91    1
    53    29    32    1
    54    92    91    2
    55    69    70    1
    56    64    66   ar
    57    64    65   ar
    58    33    32    1
    59    33    34    1
    60    66    68   ar
    61    12    13    1
    62    91    95   am
    63    35    34    1
    64    35    36    2
    65    38    36    1
    66    65    67   ar
    67    70    71    1
    68    70    73    1
    69    36    37    1
    70    72    71    2
    71    68    67   ar
    72     1     2    1
    73     1     7    1
    74    95    96    1
    75    73    74    1
    76     2     3    1
    77     2     5    1
    78     7     6    1
    79    98    97    2
    80    96    97    1
    81    96    99    1
    82    88    86    1
    83     3     4    2
    84     5     6    1
    85    74    75    1
    86    86    87    1
    87    86    85    2
    88    99   101    1
    89    99   100    1
    90    76    75    2
    91    75    77   am
    92    85    84    1
    93    84    83    1
    94    83    82    1
    95    82    79    1
    96    78    79    1
    97    81    80    2
    98    79    80    1
