@<TRIPOS>MOLECULE
tmp/4yrqA01.pdb
 102 100 0 0 0
SMALL
GASTEIGER

@<TRIPOS>ATOM
      1  N         71.0650   13.2810   16.6440 N.3    59  ILE59      -0.1245
      2  CA        70.8780   12.7410   17.9910 C.3    59  ILE59       0.1561
      3  C         71.1770   13.7650   19.0890 C.2    59  ILE59       0.2260
      4  O         70.5190   13.7650   20.1310 O.2    59  ILE59      -0.2867
      5  CB        71.7240   11.4600   18.1940 C.3    59  ILE59       0.0252
      6  CG1       71.1560   10.6130   19.3220 C.3    59  ILE59       0.0019
      7  CG2       73.1810   11.7900   18.4790 C.3    59  ILE59       0.0019
      8  CD1       71.6380    9.1840   19.2910 C.3    59  ILE59       0.0001
      9  N         68.4570   16.8740   18.7290 N.3    62  GLN62      -0.1245
     10  CA        67.0850   16.6350   19.1860 C.3    62  GLN62       0.1566
     11  C         67.0590   16.1800   20.6570 C.2    62  GLN62       0.2260
     12  O         66.2630   15.3300   21.0590 O.2    62  GLN62      -0.2867
     13  CB        66.4040   15.6210   18.2580 C.3    62  GLN62       0.0367
     14  CG        66.3280   16.0930   16.8090 C.3    62  GLN62       0.0905
     15  CD        65.5780   15.1340   15.8900 C.2    62  GLN62       0.2608
     16  OE1       65.4690   13.9400   16.1610 O.2    62  GLN62      -0.2717
     17  NE2       65.0630   15.6640   14.7820 N.am   62  GLN62      -0.0878
     18  N         69.7880   10.7050   25.0000 N.3    78  PRO78      -0.2116
     19  CA        69.3370   10.4200   23.6440 C.3    78  PRO78       0.1372
     20  C         69.8600    9.0800   23.1160 C.2    78  PRO78       0.2244
     21  O         69.3520    8.5790   22.1030 O.2    78  PRO78      -0.2868
     22  CB        69.8950   11.5870   22.8360 C.3    78  PRO78       0.0268
     23  CG        71.1250   12.0150   23.5760 C.3    78  PRO78       0.0207
     24  CD        70.8740   11.7090   25.0290 C.3    78  PRO78       0.0892
     25  N         65.4950    5.5860   25.7360 N.3   107  CYS107     -0.1221
     26  CA        66.2110    6.7690   25.2820 C.3   107  CYS107      0.1808
     27  C         65.2010    7.7840   24.7660 C.2   107  CYS107      0.2601
     28  O         64.1080    7.4230   24.3350 O.2   107  CYS107     -0.2717
     29  CB        67.2380    6.3950   24.2250 C.3   107  CYS107      0.0970
     30  SG        68.5750    5.3830   24.9220 S.3   107  CYS107     -0.0800
     31  N         65.5830    9.0500   24.8150 N.am  108  TRP108     -0.1962
     32  CA        64.6510   10.1510   24.6690 C.3   108  TRP108      0.1771
     33  C         65.0710   11.1590   23.6210 C.2   108  TRP108      0.2619
     34  O         66.2600   11.3540   23.3570 O.2   108  TRP108     -0.2715
     35  CB        64.5170   10.8720   26.0100 C.3   108  TRP108      0.0590
     36  CG        63.7830   10.0750   27.0120 C.ar  108  TRP108      0.0006
     37  CD1       64.2960    9.0970   27.8040 C.ar  108  TRP108      0.0946
     38  CD2       62.3960   10.1650   27.3330 C.ar  108  TRP108      0.0152
     39  NE1       63.3230    8.5750   28.5980 N.ar  108  TRP108     -0.2442
     40  CE2       62.1400    9.2070   28.3300 C.ar  108  TRP108      0.0810
     41  CE3       61.3460   10.9610   26.8760 C.ar  108  TRP108      0.0012
     42  CZ2       60.8790    9.0240   28.8830 C.ar  108  TRP108      0.0191
     43  CZ3       60.0900   10.7810   27.4260 C.ar  108  TRP108      0.0001
     44  CH2       59.8660    9.8250   28.4210 C.ar  108  TRP108      0.0015
     45  N         64.0750   11.8060   23.0320 N.am  109  ARG109     -0.1977
     46  CA        64.3150   12.9380   22.1410 C.3   109  ARG109      0.1597
     47  C         63.1970   13.9650   22.2520 C.2   109  ARG109      0.2287
     48  O         62.1110   13.6830   22.7730 O.2   109  ARG109     -0.2864
     49  CB        64.4730   12.4720   20.6920 C.3   109  ARG109      0.0334
     50  CG        63.2050   11.9260   20.0540 C.3   109  ARG109      0.0492
     51  CD        63.4630   11.4480   18.6370 C.3   109  ARG109      0.2205
     52  NE        62.2350   10.9380   18.0390 N.pl3 109  ARG109     -0.0865
     53  CZ        62.1340   10.3850   16.8280 C.cat 109  ARG109      0.5346
     54  NH1       63.2000   10.2430   16.0450 N.pl3 109  ARG109      0.1354
     55  NH2       60.9470    9.9630   16.3990 N.pl3 109  ARG109      0.1354
     56  N         57.2200   10.3350   17.9790 N.3   113  ARG113     -0.1231
     57  CA        57.4910    9.6890   19.2590 C.3   113  ARG113      0.1694
     58  C         58.7280   10.3390   19.9020 C.2   113  ARG113      0.2592
     59  O         59.6920   10.6820   19.2090 O.2   113  ARG113     -0.2718
     60  CB        57.6900    8.1850   19.0560 C.3   113  ARG113      0.0321
     61  CG        57.3460    7.3450   20.2740 C.3   113  ARG113      0.0489
     62  CD        57.1620    5.8830   19.9030 C.3   113  ARG113      0.2205
     63  NE        55.8890    5.6440   19.2230 N.pl3 113  ARG113     -0.0865
     64  CZ        55.4950    4.4640   18.7450 C.cat 113  ARG113      0.5346
     65  NH1       54.3140    4.3570   18.1420 N.pl3 113  ARG113      0.1354
     66  NH2       56.2720    3.3860   18.8660 N.pl3 113  ARG113      0.1354
     67  N         58.6840   10.5210   21.2190 N.am  114  ARG114     -0.1966
     68  CA        59.7780   11.1420   21.9640 C.3   114  ARG114      0.1729
     69  C         60.5700   10.1640   22.8400 C.2   114  ARG114      0.2616
     70  O         61.5750   10.5380   23.4500 O.2   114  ARG114     -0.2715
     71  CB        59.2350   12.2830   22.8090 C.3   114  ARG114      0.0348
     72  CG        58.8660   13.5050   21.9760 C.3   114  ARG114      0.0492
     73  CD        58.3750   14.6440   22.8430 C.3   114  ARG114      0.2205
     74  NE        58.1420   15.8360   22.0400 N.pl3 114  ARG114     -0.0865
     75  CZ        57.5140   16.9300   22.4570 C.cat 114  ARG114      0.5346
     76  NH1       57.0400   17.0090   23.6910 N.pl3 114  ARG114      0.1354
     77  NH2       57.3590   17.9550   21.6250 N.pl3 114  ARG114      0.1354
     78  N         60.1200    8.9170   22.9160 N.am  115  GLU115     -0.1963
     79  CA        60.8780    7.8920   23.6280 C.3   115  GLU115      0.1733
     80  C         60.8270    6.5630   22.8930 C.2   115  GLU115      0.2616
     81  O         59.8490    6.2530   22.2010 O.2   115  GLU115     -0.2715
     82  CB        60.4110    7.7420   25.0930 C.3   115  GLU115      0.0429
     83  CG        58.9460    7.3970   25.3030 C.3   115  GLU115      0.1163
     84  CD        58.6000    5.9510   25.0010 C.2   115  GLU115      0.3649
     85  OE1       57.4180    5.7030   24.6510 O.co2 115  GLU115     -0.2457
     86  OE2       59.4860    5.0600   25.1170 O.co2 115  GLU115     -0.2457
     87  N         61.9080    5.8000   23.0280 N.am  116  HIS116     -0.1973
     88  CA        61.9200    4.4100   22.6000 C.3   116  HIS116      0.1656
     89  C         62.8780    3.6390   23.4930 C.2   116  HIS116      0.2291
     90  O         63.7210    4.2230   24.1770 O.2   116  HIS116     -0.2864
     91  CB        62.2930    4.2930   21.1030 C.3   116  HIS116      0.0771
     92  CG        63.7260    4.5970   20.7970 C.ar  116  HIS116      0.0820
     93  ND1       64.3760    4.0640   19.7040 N.ar  116  HIS116     -0.2267
     94  CD2       64.6340    5.3770   21.4300 C.ar  116  HIS116      0.1154
     95  CE1       65.6260    4.4990   19.6840 C.ar  116  HIS116      0.1986
     96  NE2       65.8080    5.2930   20.7240 N.ar  116  HIS116     -0.2212
     97  N         60.7500   -0.1180   18.1650 N.3   311  CYS311     -0.1235
     98  CA        59.5630    0.3280   17.4230 C.3   311  CYS311      0.1677
     99  C         59.4920   -0.1780   15.9780 C.2   311  CYS311      0.2270
    100  O         58.5090   -0.8160   15.5920 O.2   311  CYS311     -0.2867
    101  CB        59.4540    1.8480   17.4910 C.3   311  CYS311      0.0956
    102  SG        59.0560    2.4190   19.1740 S.3   311  CYS311     -0.0801
@<TRIPOS>BOND
     1    17    15   am
     2   100    99    2
     3    15    16    2
     4    15    14    1
     5    99    98    1
     6    54    53    1
     7    55    53    1
     8     1     2    1
     9    14    13    1
    10    53    52    2
    11    98   101    1
    12    98    97    1
    13   101   102    1
    14    56    57    1
    15     2     5    1
    16     2     3    1
    17    52    51    1
    18    65    64    1
    19     5     7    1
    20     5     6    1
    21    13    10    1
    22    51    50    1
    23     9    10    1
    24    64    66    1
    25    64    63    2
    26    60    57    1
    27    60    61    1
    28     3     4    2
    29    10    11    1
    30    59    58    2
    31    63    62    1
    32    57    58    1
    33     8     6    1
    34    95    93   ar
    35    95    96   ar
    36    93    92   ar
    37    58    67   am
    38    62    61    1
    39    50    49    1
    40    11    12    2
    41    49    46    1
    42    96    94   ar
    43    92    91    1
    44    92    94   ar
    45    91    88    1
    46    67    68    1
    47    77    75    1
    48    68    71    1
    49    68    69    1
    50    72    71    1
    51    72    73    1
    52    74    75    2
    53    74    73    1
    54    21    20    2
    55    46    47    1
    56    46    45    1
    57    81    80    2
    58    47    48    2
    59    75    76    1
    60    88    87    1
    61    88    89    1
    62    22    23    1
    63    22    19    1
    64    69    78   am
    65    69    70    2
    66    80    87   am
    67    80    79    1
    68    78    79    1
    69    45    33   am
    70    20    19    1
    71    34    33    2
    72    89    90    2
    73    23    24    1
    74    33    32    1
    75    79    82    1
    76    19    18    1
    77    29    30    1
    78    29    26    1
    79    28    27    2
    80    85    84   ar
    81    32    31    1
    82    32    35    1
    83    27    31   am
    84    27    26    1
    85    18    24    1
    86    84    86   ar
    87    84    83    1
    88    82    83    1
    89    26    25    1
    90    35    36    1
    91    41    38   ar
    92    41    43   ar
    93    36    38   ar
    94    36    37   ar
    95    38    40   ar
    96    43    44   ar
    97    37    39   ar
    98    40    39   ar
    99    40    42   ar
   100    44    42   ar
