@<TRIPOS>MOLECULE
tmp/4yrrB01.pdb
 109 105 0 0 0
SMALL
GASTEIGER

@<TRIPOS>ATOM
      1  N         14.0930   45.5380   86.6120 N.3    59  ILE59      -0.1245
      2  CA        14.9660   46.0680   85.5620 C.3    59  ILE59       0.1561
      3  C         15.8770   44.9750   84.9680 C.2    59  ILE59       0.2260
      4  O         16.0580   44.9150   83.7520 O.2    59  ILE59      -0.2867
      5  CB        15.7880   47.2870   86.0770 C.3    59  ILE59       0.0252
      6  CG1       16.3120   48.1300   84.9170 C.3    59  ILE59       0.0019
      7  CG2       16.9400   46.8650   86.9790 C.3    59  ILE59       0.0019
      8  CD1       15.2690   49.0580   84.3360 C.3    59  ILE59       0.0001
      9  N         19.5590   48.1580   79.9370 N.3    75  PRO75      -0.2116
     10  CA        18.2480   48.4750   80.4970 C.3    75  PRO75       0.1372
     11  C         18.2320   49.7840   81.3080 C.2    75  PRO75       0.2244
     12  O         17.1630   50.2980   81.6260 O.2    75  PRO75      -0.2868
     13  CB        17.9840   47.2930   81.4150 C.3    75  PRO75       0.0268
     14  CG        19.3400   46.9410   81.9260 C.3    75  PRO75       0.0207
     15  CD        20.2970   47.2180   80.7980 C.3    75  PRO75       0.0892
     16  N         17.2670   53.3010   76.4020 N.3   104  CYS104     -0.1221
     17  CA        17.4700   52.0700   77.1650 C.3   104  CYS104      0.1808
     18  C         16.4150   51.0400   76.7520 C.2   104  CYS104      0.2601
     19  O         15.3430   51.4140   76.2560 O.2   104  CYS104     -0.2717
     20  CB        17.4310   52.3550   78.6690 C.3   104  CYS104      0.0970
     21  SG        18.7060   53.5330   79.2330 S.3   104  CYS104     -0.0800
     22  N         16.7240   49.7620   76.9680 N.am  105  TRP105     -0.1962
     23  CA        16.0090   48.6470   76.3460 C.3   105  TRP105      0.1771
     24  C         15.5160   47.5690   77.3120 C.2   105  TRP105      0.2619
     25  O         16.0800   47.3820   78.3830 O.2   105  TRP105     -0.2715
     26  CB        16.9160   48.0060   75.2980 C.3   105  TRP105      0.0590
     27  CG        17.0980   48.8990   74.1350 C.ar  105  TRP105      0.0006
     28  CD1       17.9830   49.9290   74.0250 C.ar  105  TRP105      0.0946
     29  CD2       16.3450   48.8830   72.9230 C.ar  105  TRP105      0.0152
     30  NE1       17.8430   50.5460   72.8090 N.ar  105  TRP105     -0.2442
     31  CE2       16.8400   49.9300   72.1130 C.ar  105  TRP105      0.0810
     32  CE3       15.3000   48.0900   72.4400 C.ar  105  TRP105      0.0012
     33  CZ2       16.3360   50.1940   70.8470 C.ar  105  TRP105      0.0191
     34  CZ3       14.7950   48.3580   71.1810 C.ar  105  TRP105      0.0001
     35  CH2       15.3190   49.3950   70.3960 C.ar  105  TRP105      0.0015
     36  N         14.4510   46.8720   76.9120 N.am  106  ARG106     -0.1977
     37  CA        13.9020   45.7230   77.6610 C.3   106  ARG106      0.1597
     38  C         13.1160   44.7770   76.7390 C.2   106  ARG106      0.2287
     39  O         12.5720   45.2220   75.7320 O.2   106  ARG106     -0.2864
     40  CB        12.9960   46.2130   78.7920 C.3   106  ARG106      0.0334
     41  CG        11.6660   46.7880   78.3400 C.3   106  ARG106      0.0492
     42  CD        10.8820   47.3090   79.5270 C.3   106  ARG106      0.2205
     43  NE         9.5770   47.8310   79.1320 N.pl3 106  ARG106     -0.0865
     44  CZ         8.6850   48.3580   79.9720 C.cat 106  ARG106      0.5346
     45  NH1        7.5190   48.8040   79.5100 N.pl3 106  ARG106      0.1354
     46  NH2        8.9510   48.4550   81.2730 N.pl3 106  ARG106      0.1354
     47  N          5.9820   48.4990   75.2600 N.3   108  ARG108     -0.1245
     48  CA         7.1850   49.2320   74.8510 C.3   108  ARG108      0.1563
     49  C          8.4640   48.5400   75.3150 C.2   108  ARG108      0.2260
     50  O          8.6240   48.2540   76.4980 O.2   108  ARG108     -0.2867
     51  CB         7.1870   50.6500   75.4170 C.3   108  ARG108      0.0307
     52  CG         6.0330   51.5320   74.9610 C.3   108  ARG108      0.0489
     53  CD         6.5170   52.8270   74.3100 C.3   108  ARG108      0.2205
     54  NE         5.4500   53.5410   73.6080 N.pl3 108  ARG108     -0.0865
     55  CZ         4.9400   53.1820   72.4270 C.cat 108  ARG108      0.5346
     56  NH1        3.9740   53.9130   71.8780 N.pl3 108  ARG108      0.1354
     57  NH2        5.3720   52.0970   71.7830 N.pl3 108  ARG108      0.1354
     58  N         11.5050   49.9580   74.5060 N.3   110  GLU110     -0.1231
     59  CA        12.5400   50.9870   74.5440 C.3   110  GLU110      0.1699
     60  C         11.9740   52.2990   74.9960 C.2   110  GLU110      0.2592
     61  O         10.8100   52.6170   74.7590 O.2   110  GLU110     -0.2718
     62  CB        13.3240   51.1610   73.2290 C.3   110  GLU110      0.0402
     63  CG        12.5720   51.5880   71.9800 C.3   110  GLU110      0.1161
     64  CD        11.9810   52.9810   72.0280 C.2   110  GLU110      0.3649
     65  OE1       10.9320   53.1800   71.4050 O.co2 110  GLU110     -0.2457
     66  OE2       12.5500   53.8870   72.6660 O.co2 110  GLU110     -0.2457
     67  N         12.8320   53.0490   75.6650 N.am  111  HIS111     -0.1976
     68  CA        12.5230   54.4120   76.0310 C.3   111  HIS111      0.1656
     69  C         13.8110   55.2030   76.1610 C.2   111  HIS111      0.2291
     70  O         14.8930   54.6290   76.2480 O.2   111  HIS111     -0.2864
     71  CB        11.6930   54.4490   77.3230 C.3   111  HIS111      0.0771
     72  CG        12.4660   54.1330   78.5670 C.ar  111  HIS111      0.0820
     73  ND1       12.1820   54.7200   79.7820 N.ar  111  HIS111     -0.2267
     74  CD2       13.5210   53.3140   78.7870 C.ar  111  HIS111      0.1154
     75  CE1       13.0190   54.2650   80.6970 C.ar  111  HIS111      0.1986
     76  NE2       13.8350   53.4020   80.1220 N.ar  111  HIS111     -0.2212
     77  N          2.0830   56.4940   86.2390 N.3   275  ARG275     -0.1245
     78  CA         3.2300   55.9230   86.9260 C.3   275  ARG275      0.1563
     79  C          4.2700   57.0220   87.1830 C.2   275  ARG275      0.2260
     80  O          4.0510   58.1910   86.8480 O.2   275  ARG275     -0.2867
     81  CB         3.8220   54.7770   86.0900 C.3   275  ARG275      0.0307
     82  CG         2.7190   53.7050   86.2060 C.3   275  ARG275      0.0489
     83  CD         2.9830   52.4360   85.4390 C.3   275  ARG275      0.2205
     84  NE         3.4890   52.7940   84.1290 N.pl3 275  ARG275     -0.0865
     85  CZ         3.0220   52.4890   82.9260 C.cat 275  ARG275      0.5346
     86  NH1        1.9230   51.7660   82.7590 N.pl3 275  ARG275      0.1354
     87  NH2        3.7260   52.9520   81.8840 N.pl3 275  ARG275      0.1354
     88  N          8.3880   58.6720   78.2340 N.3   306  CYS306     -0.1221
     89  CA         7.0460   58.2330   77.8720 C.3   306  CYS306      0.1808
     90  C          5.9750   58.7880   78.8140 C.2   306  CYS306      0.2601
     91  O          5.0000   59.3820   78.3560 O.2   306  CYS306     -0.2717
     92  CB         6.9820   56.7080   77.7810 C.3   306  CYS306      0.0970
     93  SG         7.9880   56.0140   76.4350 S.3   306  CYS306     -0.0800
     94  N          6.1560   58.6200   80.1190 N.am  307  VAL307     -0.1979
     95  CA         5.1330   59.0580   81.0700 C.3   307  VAL307      0.1595
     96  C          4.9890   60.5690   81.0600 C.2   307  VAL307      0.2287
     97  O          3.8790   61.0850   81.0370 O.2   307  VAL307     -0.2864
     98  CB         5.4090   58.5750   82.5090 C.3   307  VAL307      0.0276
     99  CG1        4.3280   59.0690   83.4550 C.3   307  VAL307      0.0022
    100  CG2        5.4480   57.0540   82.5620 C.3   307  VAL307      0.0022
    101  N          2.7980   61.7460   78.0510 N.3   310  GLU310     -0.1245
    102  CA         1.3950   61.4750   78.3480 C.3   310  GLU310      0.1567
    103  C          0.8030   62.5270   79.2820 C.2   310  GLU310      0.2260
    104  O         -0.3060   63.0120   79.0510 O.2   310  GLU310     -0.2867
    105  CB         1.2290   60.0880   78.9800 C.3   310  GLU310      0.0388
    106  CG         1.5180   58.9420   78.0250 C.3   310  GLU310      0.1160
    107  CD         1.3640   57.5670   78.6650 C.2   310  GLU310      0.3649
    108  OE1        1.3440   57.4690   79.9220 O.co2 310  GLU310     -0.2457
    109  OE2        1.2630   56.5770   77.8940 O.co2 310  GLU310     -0.2457
@<TRIPOS>BOND
     1    35    33   ar
     2    35    34   ar
     3    33    31   ar
     4    34    32   ar
     5    65    64   ar
     6    57    55    1
     7    56    55    1
     8    63    64    1
     9    63    62    1
    10    64    66   ar
    11    31    30   ar
    12    31    29   ar
    13    55    54    2
    14    32    29   ar
    15    30    28   ar
    16    29    27   ar
    17    62    59    1
    18    54    53    1
    19    28    27   ar
    20    27    26    1
    21    53    52    1
    22    58    59    1
    23    59    60    1
    24    61    60    2
    25    48    47    1
    26    48    49    1
    27    48    51    1
    28    52    51    1
    29    60    67   am
    30    26    23    1
    31    49    50    2
    32    67    68    1
    33    39    38    2
    34    68    69    1
    35    68    71    1
    36    69    70    2
    37    19    18    2
    38    23    22    1
    39    23    24    1
    40    16    17    1
    41    93    92    1
    42    38    37    1
    43    18    22   am
    44    18    17    1
    45    36    24   am
    46    36    37    1
    47    17    20    1
    48    24    25    2
    49    71    72    1
    50    37    40    1
    51    92    89    1
    52    89    88    1
    53    89    90    1
    54   109   107   ar
    55   106   107    1
    56   106   105    1
    57   101   102    1
    58    41    40    1
    59    41    42    1
    60   102   105    1
    61   102   103    1
    62    91    90    2
    63    72    74   ar
    64    72    73   ar
    65   107   108   ar
    66    20    21    1
    67    74    76   ar
    68    90    94   am
    69   104   103    2
    70    43    42    1
    71    43    44    2
    72    45    44    1
    73    73    75   ar
    74     9    10    1
    75     9    15    1
    76    44    46    1
    77    94    95    1
    78    76    75   ar
    79    10    11    1
    80    10    13    1
    81    15    14    1
    82    97    96    2
    83    96    95    1
    84    95    98    1
    85    11    12    2
    86    13    14    1
    87    87    85    1
    88    98   100    1
    89    98    99    1
    90    86    85    1
    91    85    84    2
    92     4     3    2
    93    84    83    1
    94     8     6    1
    95     6     5    1
    96     3     2    1
    97    83    82    1
    98     2     5    1
    99     2     1    1
   100     5     7    1
   101    81    82    1
   102    81    78    1
   103    77    78    1
   104    80    79    2
   105    78    79    1
