@<TRIPOS>MOLECULE
tmp/4yrtA01.pdb
 131 128 0 0 0
SMALL
GASTEIGER

@<TRIPOS>ATOM
      1  N         71.1190   13.2630   16.5620 N.3    59  ILE59      -0.1245
      2  CA        70.9640   12.7840   17.9320 C.3    59  ILE59       0.1561
      3  C         71.2420   13.8500   19.0010 C.2    59  ILE59       0.2260
      4  O         70.5410   13.9200   20.0140 O.2    59  ILE59      -0.2867
      5  CB        71.8670   11.5400   18.1530 C.3    59  ILE59       0.0252
      6  CG1       71.4230   10.7430   19.3630 C.3    59  ILE59       0.0019
      7  CG2       73.3360   11.9320   18.2950 C.3    59  ILE59       0.0019
      8  CD1       71.9670    9.3330   19.3610 C.3    59  ILE59       0.0001
      9  N         69.8460   10.7860   25.0700 N.3    78  PRO78      -0.2116
     10  CA        69.4520   10.5050   23.6940 C.3    78  PRO78       0.1372
     11  C         69.9570    9.1530   23.1990 C.2    78  PRO78       0.2244
     12  O         69.4600    8.6520   22.2000 O.2    78  PRO78      -0.2868
     13  CB        70.1130   11.6250   22.9000 C.3    78  PRO78       0.0268
     14  CG        71.3170   11.9940   23.6970 C.3    78  PRO78       0.0207
     15  CD        70.9880   11.7150   25.1360 C.3    78  PRO78       0.0892
     16  N         65.5780    5.5620   25.7760 N.3   107  CYS107     -0.1221
     17  CA        66.2680    6.7700   25.3560 C.3   107  CYS107      0.1808
     18  C         65.2460    7.7640   24.8250 C.2   107  CYS107      0.2601
     19  O         64.1310    7.3880   24.4600 O.2   107  CYS107     -0.2717
     20  CB        67.3370    6.4330   24.3230 C.3   107  CYS107      0.0970
     21  SG        68.6490    5.3970   25.0280 S.3   107  CYS107     -0.0800
     22  N         65.6420    9.0270   24.7870 N.am  108  TRP108     -0.1962
     23  CA        64.7160   10.1300   24.6120 C.3   108  TRP108      0.1771
     24  C         65.1790   11.1120   23.5490 C.2   108  TRP108      0.2619
     25  O         66.3570   11.1750   23.2220 O.2   108  TRP108     -0.2715
     26  CB        64.5610   10.8730   25.9410 C.3   108  TRP108      0.0590
     27  CG        63.8870   10.0540   26.9910 C.ar  108  TRP108      0.0006
     28  CD1       64.4580    9.0930   27.7720 C.ar  108  TRP108      0.0946
     29  CD2       62.5120   10.1070   27.3620 C.ar  108  TRP108      0.0152
     30  NE1       63.5290    8.5600   28.6230 N.ar  108  TRP108     -0.2442
     31  CE2       62.3180    9.1550   28.3830 C.ar  108  TRP108      0.0810
     32  CE3       61.4210   10.8710   26.9360 C.ar  108  TRP108      0.0012
     33  CZ2       61.0770    8.9430   28.9830 C.ar  108  TRP108      0.0191
     34  CZ3       60.1850   10.6670   27.5420 C.ar  108  TRP108      0.0001
     35  CH2       60.0260    9.7060   28.5500 C.ar  108  TRP108      0.0015
     36  N         64.2270   11.8630   23.0110 N.am  109  ARG109     -0.1977
     37  CA        64.5090   12.9540   22.0980 C.3   109  ARG109      0.1597
     38  C         63.3770   13.9600   22.1720 C.2   109  ARG109      0.2287
     39  O         62.2970   13.6580   22.6860 O.2   109  ARG109     -0.2864
     40  CB        64.6660   12.4500   20.6560 C.3   109  ARG109      0.0334
     41  CG        63.3540   12.1270   19.9640 C.3   109  ARG109      0.0492
     42  CD        63.5800   11.4780   18.6160 C.3   109  ARG109      0.2205
     43  NE        62.3350   10.9640   18.0580 N.pl3 109  ARG109     -0.0865
     44  CZ        62.2050   10.4480   16.8370 C.cat 109  ARG109      0.5346
     45  NH1       63.2470   10.3620   16.0190 N.pl3 109  ARG109      0.1354
     46  NH2       61.0220   10.0120   16.4280 N.pl3 109  ARG109      0.1354
     47  N         55.1180   12.1660   16.4290 N.3   112  ARG112     -0.1231
     48  CA        56.4140   11.4940   16.5330 C.3   112  ARG112      0.1694
     49  C         56.7590   11.1190   17.9830 C.2   112  ARG112      0.2592
     50  O         56.6150   11.9160   18.9010 O.2   112  ARG112     -0.2718
     51  CB        57.5160   12.3830   15.9440 C.3   112  ARG112      0.0321
     52  CG        57.7020   12.2610   14.4310 C.3   112  ARG112      0.0489
     53  CD        58.8230   11.2950   14.0420 C.3   112  ARG112      0.2205
     54  NE        58.3600   10.0710   13.3700 N.pl3 112  ARG112     -0.0865
     55  CZ        58.2090    8.8620   13.9300 C.cat 112  ARG112      0.5346
     56  NH1       57.7900    7.8510   13.1750 N.pl3 112  ARG112      0.1354
     57  NH2       58.4630    8.6380   15.2210 N.pl3 112  ARG112      0.1354
     58  N         57.2320    9.9000   18.1760 N.am  113  ARG113     -0.1966
     59  CA        57.6300    9.4370   19.5000 C.3   113  ARG113      0.1729
     60  C         58.7950   10.2530   20.0590 C.2   113  ARG113      0.2616
     61  O         59.6940   10.6600   19.3100 O.2   113  ARG113     -0.2715
     62  CB        58.0230    7.9610   19.4390 C.3   113  ARG113      0.0348
     63  CG        56.8740    7.0820   19.0130 C.3   113  ARG113      0.0492
     64  CD        57.1730    5.6030   19.1670 C.3   113  ARG113      0.2205
     65  NE        56.0680    4.8390   18.5990 N.pl3 113  ARG113     -0.0865
     66  CZ        56.0020    3.5120   18.5300 C.cat 113  ARG113      0.5346
     67  NH1       54.9300    2.9460   17.9860 N.pl3 113  ARG113      0.1354
     68  NH2       56.9880    2.7500   18.9930 N.pl3 113  ARG113      0.1354
     69  N         58.7670   10.4860   21.3720 N.am  114  ARG114     -0.1963
     70  CA        59.8850   11.1050   22.0870 C.3   114  ARG114      0.1729
     71  C         60.6710   10.1230   22.9490 C.2   114  ARG114      0.2616
     72  O         61.6640   10.4970   23.5630 O.2   114  ARG114     -0.2715
     73  CB        59.3810   12.2530   22.9320 C.3   114  ARG114      0.0348
     74  CG        59.0160   13.4560   22.0870 C.3   114  ARG114      0.0492
     75  CD        58.4520   14.5650   22.9290 C.3   114  ARG114      0.2205
     76  NE        58.2210   15.7340   22.1050 N.pl3 114  ARG114     -0.0865
     77  CZ        57.5660   16.8190   22.4900 C.cat 114  ARG114      0.5346
     78  NH1       57.0600   16.9010   23.7110 N.pl3 114  ARG114      0.1354
     79  NH2       57.4160   17.8270   21.6430 N.pl3 114  ARG114      0.1354
     80  N         60.2250    8.8710   22.9960 N.am  115  GLU115     -0.1963
     81  CA        60.9500    7.8320   23.7150 C.3   115  GLU115      0.1733
     82  C         60.9180    6.5260   22.9460 C.2   115  GLU115      0.2616
     83  O         59.9590    6.2300   22.2200 O.2   115  GLU115     -0.2715
     84  CB        60.4080    7.6370   25.1470 C.3   115  GLU115      0.0429
     85  CG        58.9190    7.3430   25.2680 C.3   115  GLU115      0.1163
     86  CD        58.5280    5.9100   24.9320 C.2   115  GLU115      0.3649
     87  OE1       57.3340    5.7030   24.6210 O.co2 115  GLU115     -0.2457
     88  OE2       59.3910    4.9910   24.9620 O.co2 115  GLU115     -0.2457
     89  N         61.9950    5.7650   23.0900 N.am  116  HIS116     -0.1973
     90  CA        62.0340    4.3970   22.6090 C.3   116  HIS116      0.1656
     91  C         62.9630    3.6190   23.5110 C.2   116  HIS116      0.2291
     92  O         63.8200    4.1960   24.1660 O.2   116  HIS116     -0.2864
     93  CB        62.4750    4.3200   21.1350 C.3   116  HIS116      0.0771
     94  CG        63.9180    4.6480   20.8980 C.ar  116  HIS116      0.0820
     95  ND1       64.6320    4.1120   19.8460 N.ar  116  HIS116     -0.2267
     96  CD2       64.7740    5.4670   21.5540 C.ar  116  HIS116      0.1154
     97  CE1       65.8690    4.5800   19.8730 C.ar  116  HIS116      0.1986
     98  NE2       65.9810    5.4060   20.8960 N.ar  116  HIS116     -0.2212
     99  N         62.6310    1.9130    7.9410 N.3   282  ARG282     -0.1245
    100  CA        63.9110    2.4760    8.3460 C.3   282  ARG282      0.1563
    101  C         64.8370    1.3700    8.8780 C.2   282  ARG282      0.2260
    102  O         64.4460    0.2060    8.9890 O.2   282  ARG282     -0.2867
    103  CB        63.6830    3.5460    9.4190 C.3   282  ARG282      0.0307
    104  CG        62.8890    4.7350    8.8700 C.3   282  ARG282      0.0489
    105  CD        62.4750    5.6540   10.0130 C.3   282  ARG282      0.2205
    106  NE        61.7330    4.9190   11.0330 N.pl3 282  ARG282     -0.0865
    107  CZ        61.0110    5.4610   12.0000 C.cat 282  ARG282      0.5346
    108  NH1       60.8930    6.7800   12.1060 N.pl3 282  ARG282      0.1354
    109  NH2       60.3890    4.6760   12.8750 N.pl3 282  ARG282      0.1354
    110  N         60.9650    0.0940   17.9900 N.3   313  CYS313     -0.1221
    111  CA        59.8210    0.5660   17.1680 C.3   313  CYS313      0.1808
    112  C         59.7850   -0.0810   15.7710 C.2   313  CYS313      0.2601
    113  O         58.8140   -0.7240   15.4170 O.2   313  CYS313     -0.2717
    114  CB        59.8110    2.1100   17.1030 C.3   313  CYS313      0.0970
    115  SG        58.5920    2.8300   16.0290 S.3   313  CYS313     -0.0800
    116  N         60.8530    0.0740   15.0000 N.am  314  VAL314     -0.1979
    117  CA        60.9150   -0.4820   13.6420 C.3   314  VAL314      0.1595
    118  C         60.7630   -2.0160   13.6560 C.2   314  VAL314      0.2287
    119  O         59.9710   -2.5780   12.8920 O.2   314  VAL314     -0.2864
    120  CB        62.2200   -0.0800   12.9080 C.3   314  VAL314      0.0276
    121  CG1       62.2440   -0.6460   11.4940 C.3   314  VAL314      0.0022
    122  CG2       62.3650    1.4370   12.8530 C.3   314  VAL314      0.0022
    123  N         57.1340   -2.9550   13.9500 N.3   317  GLU317     -0.1245
    124  CA        56.4230   -2.7250   12.6780 C.3   317  GLU317      0.1567
    125  C         56.6940   -3.8650   11.6880 C.2   317  GLU317      0.2260
    126  O         55.7890   -4.3510   11.0090 O.2   317  GLU317     -0.2867
    127  CB        56.8590   -1.4080   12.0280 C.3   317  GLU317      0.0388
    128  CG        56.4920   -0.1500   12.7990 C.3   317  GLU317      0.1160
    129  CD        57.0350    1.1110   12.1430 C.2   317  GLU317      0.3649
    130  OE1       57.9750    1.0150   11.3310 O.co2 317  GLU317     -0.2457
    131  OE2       56.5140    2.2050   12.4420 O.co2 317  GLU317     -0.2457
@<TRIPOS>BOND
     1    99   100    1
     2   100   101    1
     3   100   103    1
     4   104   103    1
     5   104   105    1
     6   101   102    2
     7   105   106    1
     8   126   125    2
     9   106   107    2
    10   130   129   ar
    11   121   120    1
    12   125   124    1
    13   107   108    1
    14   107   109    1
    15   127   124    1
    16   127   128    1
    17   129   131   ar
    18   129   128    1
    19   124   123    1
    20   122   120    1
    21   119   118    2
    22   120   117    1
    23    56    55    1
    24    54    55    2
    25    54    53    1
    26   117   118    1
    27   117   116    1
    28    55    57    1
    29    53    52    1
    30    52    51    1
    31   116   112   am
    32   113   112    2
    33   112   111    1
    34    51    48    1
    35    45    44    1
    36   115   114    1
    37    46    44    1
    38    47    48    1
    39    48    49    1
    40     1     2    1
    41    44    43    2
    42   114   111    1
    43   111   110    1
    44     2     5    1
    45     2     3    1
    46    49    58   am
    47    49    50    2
    48    67    66    1
    49    43    42    1
    50     5     7    1
    51     5     6    1
    52    58    59    1
    53    66    65    2
    54    66    68    1
    55    65    64    1
    56    42    41    1
    57     3     4    2
    58    63    64    1
    59    63    62    1
    60    61    60    2
    61     8     6    1
    62    62    59    1
    63    59    60    1
    64    95    97   ar
    65    95    94   ar
    66    97    98   ar
    67    41    40    1
    68    60    69   am
    69    40    37    1
    70    98    96   ar
    71    94    93    1
    72    94    96   ar
    73    93    90    1
    74    69    70    1
    75    79    77    1
    76    74    75    1
    77    74    73    1
    78    70    73    1
    79    70    71    1
    80    37    38    1
    81    37    36    1
    82    76    77    2
    83    76    75    1
    84    38    39    2
    85    12    11    2
    86    83    82    2
    87    77    78    1
    88    90    89    1
    89    90    91    1
    90    13    10    1
    91    13    14    1
    92    82    89   am
    93    82    81    1
    94    71    80   am
    95    71    72    2
    96    80    81    1
    97    36    24   am
    98    11    10    1
    99    25    24    2
   100    91    92    2
   101    24    23    1
   102    10     9    1
   103    14    15    1
   104    81    84    1
   105    20    21    1
   106    20    17    1
   107    19    18    2
   108    23    22    1
   109    23    26    1
   110    87    86   ar
   111    22    18   am
   112    18    17    1
   113    86    88   ar
   114    86    85    1
   115     9    15    1
   116    84    85    1
   117    17    16    1
   118    26    27    1
   119    32    29   ar
   120    32    34   ar
   121    27    29   ar
   122    27    28   ar
   123    29    31   ar
   124    34    35   ar
   125    28    30   ar
   126    31    30   ar
   127    31    33   ar
   128    35    33   ar
