@<TRIPOS>MOLECULE
tmp/4yryD01.pdb
 185 178 0 0 0
SMALL
GASTEIGER

@<TRIPOS>ATOM
      1  N        -18.8540   49.4330   61.8520 N.3   239  LYS239     -0.1245
      2  CA       -19.5730   48.2400   62.2780 C.3   239  LYS239      0.1561
      3  C        -21.0110   48.5270   62.6990 C.2   239  LYS239      0.2260
      4  O        -21.2620   49.3140   63.6130 O.2   239  LYS239     -0.2867
      5  CB       -18.8230   47.5600   63.4270 C.3   239  LYS239      0.0271
      6  CG       -19.4050   46.2210   63.8530 C.3   239  LYS239      0.0035
      7  CD       -18.7170   45.7030   65.1060 C.3   239  LYS239      0.0206
      8  CE       -19.4260   44.4810   65.6610 C.3   239  LYS239      0.1093
      9  NZ       -18.8490   44.0560   66.9660 N.3   239  LYS239     -0.1314
     10  N        -19.4470   51.8290   74.7550 N.3   287  ALA287     -0.1231
     11  CA       -18.9380   52.6210   75.8710 C.3   287  ALA287      0.1694
     12  C        -17.5390   53.1650   75.6030 C.2   287  ALA287      0.2593
     13  O        -16.8350   53.5480   76.5320 O.2   287  ALA287     -0.2718
     14  CB       -18.9390   51.8040   77.1470 C.3   287  ALA287      0.0304
     15  N        -17.1230   53.1600   74.3420 N.am  288  GLY288     -0.1942
     16  CA       -15.8310   53.7060   73.9720 C.3   288  GLY288      0.2014
     17  C        -15.8460   55.2240   73.9540 C.2   288  GLY288      0.2639
     18  O        -16.8710   55.8460   74.2440 O.2   288  GLY288     -0.2714
     19  N        -14.7080   55.8220   73.6110 N.am  289  ASN289     -0.1958
     20  CA       -14.6060   57.2730   73.4800 C.3   289  ASN289      0.1819
     21  C        -15.5490   57.8070   72.4050 C.2   289  ASN289      0.2622
     22  O        -16.0530   58.9260   72.5080 O.2   289  ASN289     -0.2715
     23  CB       -13.1670   57.6870   73.1670 C.3   289  ASN289      0.1195
     24  CG       -12.2520   57.5670   74.3680 C.2   289  ASN289      0.2630
     25  OD1      -12.5800   58.0290   75.4610 O.2   289  ASN289     -0.2716
     26  ND2      -11.0940   56.9470   74.1720 N.am  289  ASN289     -0.0877
     27  N        -15.7740   57.0040   71.3690 N.am  290  THR290     -0.1937
     28  CA       -16.6880   57.3790   70.2980 C.3   290  THR290      0.2028
     29  C        -18.1110   57.5170   70.8180 C.2   290  THR290      0.2642
     30  O        -18.7960   58.4950   70.5250 O.2   290  THR290     -0.2714
     31  CB       -16.6700   56.3590   69.1440 C.3   290  THR290      0.1808
     32  OG1      -15.3330   56.2080   68.6530 O.3   290  THR290     -0.2208
     33  CG2      -17.5480   56.8330   68.0130 C.3   290  THR290      0.0379
     34  N        -18.5470   56.5310   71.5940 N.am  291  ALA291     -0.1977
     35  CA       -19.8800   56.5570   72.1840 C.3   291  ALA291      0.1597
     36  C        -20.0480   57.7330   73.1410 C.2   291  ALA291      0.2287
     37  O        -21.0860   58.3950   73.1450 O.2   291  ALA291     -0.2864
     38  CB       -20.1570   55.2550   72.8990 C.3   291  ALA291      0.0319
     39  N        -24.3140   49.6060   76.6630 N.3   310  TYR310     -0.1227
     40  CA       -23.0650   48.8460   76.6590 C.3   310  TYR310      0.1736
     41  C        -23.2510   47.3890   77.0770 C.2   310  TYR310      0.2595
     42  O        -23.9980   47.0850   78.0050 O.2   310  TYR310     -0.2718
     43  CB       -22.0470   49.5290   77.5760 C.3   310  TYR310      0.0548
     44  CG       -20.6450   48.9600   77.5170 C.ar  310  TYR310     -0.0200
     45  CD1      -20.0670   48.5940   76.3080 C.ar  310  TYR310     -0.0009
     46  CD2      -19.8840   48.8250   78.6730 C.ar  310  TYR310     -0.0009
     47  CE1      -18.7830   48.0860   76.2540 C.ar  310  TYR310      0.0417
     48  CE2      -18.5980   48.3270   78.6280 C.ar  310  TYR310      0.0417
     49  CZ       -18.0520   47.9540   77.4180 C.ar  310  TYR310      0.1957
     50  OH       -16.7690   47.4520   77.3690 O.3   310  TYR310     -0.2866
     51  N        -22.5490   46.4960   76.3840 N.am  311  ARG311     -0.1966
     52  CA       -22.6700   45.0610   76.6100 C.3   311  ARG311      0.1729
     53  C        -21.9890   44.6140   77.9030 C.2   311  ARG311      0.2616
     54  O        -22.4000   43.6270   78.5150 O.2   311  ARG311     -0.2715
     55  CB       -22.0970   44.2840   75.4200 C.3   311  ARG311      0.0348
     56  CG       -20.6100   44.4910   75.1850 C.3   311  ARG311      0.0492
     57  CD       -20.1430   43.7750   73.9280 C.3   311  ARG311      0.2205
     58  NE       -18.6920   43.8410   73.7680 N.pl3 311  ARG311     -0.0865
     59  CZ       -17.8560   42.8800   74.1450 C.cat 311  ARG311      0.5346
     60  NH1      -18.3250   41.7740   74.7000 N.pl3 311  ARG311      0.1354
     61  NH2      -16.5500   43.0200   73.9650 N.pl3 311  ARG311      0.1354
     62  N        -20.9510   45.3360   78.3170 N.am  312  ARG312     -0.1977
     63  CA       -20.1840   44.9510   79.4990 C.3   312  ARG312      0.1597
     64  C        -20.5210   45.8330   80.6960 C.2   312  ARG312      0.2287
     65  O        -21.4530   46.6360   80.6520 O.2   312  ARG312     -0.2864
     66  CB       -18.6800   45.0240   79.2230 C.3   312  ARG312      0.0334
     67  CG       -18.2230   44.3260   77.9600 C.3   312  ARG312      0.0492
     68  CD       -17.6750   42.9490   78.2630 C.3   312  ARG312      0.2205
     69  NE       -16.8670   42.4350   77.1620 N.pl3 312  ARG312     -0.0865
     70  CZ       -16.1260   41.3350   77.2310 C.cat 312  ARG312      0.5346
     71  NH1      -16.0850   40.6310   78.3540 N.pl3 312  ARG312      0.1354
     72  NH2      -15.4220   40.9420   76.1790 N.pl3 312  ARG312      0.1354
     73  N        -14.2620   51.0400   78.3780 N.3   318  PRO318     -0.2116
     74  CA       -12.9900   51.5130   77.8150 C.3   318  PRO318      0.1372
     75  C        -12.8210   53.0320   77.7250 C.2   318  PRO318      0.2244
     76  O        -11.6980   53.4870   77.5080 O.2   318  PRO318     -0.2868
     77  CB       -12.9910   50.9060   76.4090 C.3   318  PRO318      0.0268
     78  CG       -14.4230   50.7340   76.0740 C.3   318  PRO318      0.0207
     79  CD       -15.1060   50.3900   77.3590 C.3   318  PRO318      0.0892
     80  N        -27.8060   45.0530   75.6970 N.3   339  LEU339     -0.1245
     81  CA       -27.5480   44.8610   74.2770 C.3   339  LEU339      0.1561
     82  C        -28.8500   44.9810   73.4920 C.2   339  LEU339      0.2260
     83  O        -29.7800   44.2070   73.7130 O.2   339  LEU339     -0.2867
     84  CB       -26.8860   43.5000   74.0290 C.3   339  LEU339      0.0270
     85  CG       -26.4710   43.1350   72.6010 C.3   339  LEU339      0.0019
     86  CD1      -25.1270   42.4240   72.6090 C.3   339  LEU339      0.0001
     87  CD2      -27.5200   42.2650   71.9310 C.3   339  LEU339      0.0001
     88  N        -13.4100   34.5050   81.4030 N.3   369  ARG369     -0.1245
     89  CA       -13.6230   35.8380   80.8580 C.3   369  ARG369      0.1563
     90  C        -15.0870   36.1780   81.0740 C.2   369  ARG369      0.2260
     91  O        -15.9420   35.2960   81.0190 O.2   369  ARG369     -0.2867
     92  CB       -13.2690   35.9170   79.3660 C.3   369  ARG369      0.0307
     93  CG       -11.8560   35.4760   79.0010 C.3   369  ARG369      0.0489
     94  CD       -11.1920   36.4420   78.0320 C.3   369  ARG369      0.2205
     95  NE       -12.0470   36.7650   76.8940 N.pl3 369  ARG369     -0.0865
     96  CZ       -11.6540   37.4740   75.8400 C.cat 369  ARG369      0.5346
     97  NH1      -10.4110   37.9320   75.7710 N.pl3 369  ARG369      0.1354
     98  NH2      -12.5010   37.7230   74.8500 N.pl3 369  ARG369      0.1354
     99  N        -17.3840   37.3430   79.2310 N.3   371  ARG371     -0.1231
    100  CA       -17.9880   37.5830   77.9270 C.3   371  ARG371      0.1679
    101  C        -19.5010   37.6410   78.1100 C.2   371  ARG371      0.2434
    102  O        -20.1010   36.6890   78.6140 O.2   371  ARG371     -0.2733
    103  CB       -17.5880   36.4960   76.9290 C.3   371  ARG371      0.0321
    104  CG       -17.8350   36.8690   75.4750 C.3   371  ARG371      0.0489
    105  CD       -17.5440   35.7020   74.5460 C.3   371  ARG371      0.2205
    106  NE       -17.8090   36.0380   73.1500 N.pl3 371  ARG371     -0.0865
    107  CZ       -17.8020   35.1580   72.1540 C.cat 371  ARG371      0.5346
    108  NH1      -17.5410   33.8820   72.3980 N.pl3 371  ARG371      0.1354
    109  NH2      -18.0530   35.5550   70.9120 N.pl3 371  ARG371      0.1354
    110  N        -20.1280   38.7570   77.7140 N.am  372  PRO372     -0.2718
    111  CA       -21.5500   38.8990   78.0370 C.3   372  PRO372      0.1535
    112  C        -22.4680   38.0410   77.1750 C.2   372  PRO372      0.2598
    113  O        -22.3840   38.0430   75.9480 O.2   372  PRO372     -0.2715
    114  CB       -21.8110   40.3840   77.7820 C.3   372  PRO372      0.0310
    115  CG       -20.8390   40.7480   76.7070 C.3   372  PRO372      0.0237
    116  CD       -19.6180   39.8830   76.9140 C.3   372  PRO372      0.0939
    117  N        -23.3530   37.3170   77.8510 N.am  373  VAL373     -0.1964
    118  CA       -24.3900   36.5170   77.2150 C.3   373  VAL373      0.1712
    119  C        -25.7460   36.9800   77.7500 C.2   373  VAL373      0.2458
    120  O        -25.8860   37.2230   78.9500 O.2   373  VAL373     -0.2730
    121  CB       -24.1670   35.0000   77.4730 C.3   373  VAL373      0.0289
    122  CG1      -23.8100   34.7500   78.9290 C.3   373  VAL373      0.0023
    123  CG2      -25.3780   34.1720   77.0610 C.3   373  VAL373      0.0023
    124  N        -26.7450   37.1210   76.8630 N.am  374  PRO374     -0.2727
    125  CA       -28.0630   37.6220   77.2710 C.3   374  PRO374      0.1402
    126  C        -28.7490   36.7600   78.3280 C.2   374  PRO374      0.2269
    127  O        -28.3350   35.6320   78.5890 O.2   374  PRO374     -0.2865
    128  CB       -28.8660   37.6140   75.9620 C.3   374  PRO374      0.0296
    129  CG       -28.0950   36.7440   75.0250 C.3   374  PRO374      0.0237
    130  CD       -26.6660   36.9280   75.4060 C.3   374  PRO374      0.0939
    131  N        -21.8930   53.0950   68.1610 N.3   390  ALA390     -0.1231
    132  CA       -20.4330   53.1370   68.2090 C.3   390  ALA390      0.1694
    133  C        -19.9270   51.8490   68.8410 C.2   390  ALA390      0.2592
    134  O        -19.4590   51.8420   69.9790 O.2   390  ALA390     -0.2718
    135  CB       -19.9530   54.3400   68.9950 C.3   390  ALA390      0.0304
    136  N        -20.0050   50.7630   68.0810 N.am  391  ILE391     -0.1966
    137  CA       -19.7390   49.4330   68.6130 C.3   391  ILE391      0.1727
    138  C        -18.4210   48.8420   68.1370 C.2   391  ILE391      0.2617
    139  O        -18.0410   47.7480   68.5550 O.2   391  ILE391     -0.2715
    140  CB       -20.8730   48.4650   68.2420 C.3   391  ILE391      0.0290
    141  CG1      -21.1080   48.4810   66.7320 C.3   391  ILE391      0.0022
    142  CG2      -22.1490   48.8530   68.9560 C.3   391  ILE391      0.0023
    143  CD1      -21.8270   47.2600   66.2230 C.3   391  ILE391      0.0001
    144  N        -17.7250   49.5600   67.2650 N.am  392  GLY392     -0.1940
    145  CA       -16.4370   49.1010   66.7890 C.3   392  GLY392      0.2014
    146  C        -16.1600   49.4580   65.3460 C.2   392  GLY392      0.2638
    147  O        -16.9190   50.1940   64.7160 O.2   392  GLY392     -0.2714
    148  N        -15.0620   48.9240   64.8240 N.am  393  GLN393     -0.1977
    149  CA       -14.6020   49.2720   63.4890 C.3   393  GLN393      0.1601
    150  C        -13.8350   48.1340   62.8290 C.2   393  GLN393      0.2287
    151  O        -13.4530   47.1600   63.4810 O.2   393  GLN393     -0.2864
    152  CB       -13.7080   50.5100   63.5540 C.3   393  GLN393      0.0394
    153  CG       -12.3790   50.2480   64.2530 C.3   393  GLN393      0.0908
    154  CD       -11.5410   51.4980   64.4070 C.2   393  GLN393      0.2608
    155  OE1      -10.3270   51.4740   64.2000 O.2   393  GLN393     -0.2717
    156  NE2      -12.1830   52.5990   64.7800 N.am  393  GLN393     -0.0878
    157  N         -7.4720   39.6170   61.3560 N.3   411  ARG411     -0.1245
    158  CA        -8.5710   40.5710   61.4220 C.3   411  ARG411      0.1563
    159  C         -8.6670   41.5150   60.2280 C.2   411  ARG411      0.2260
    160  O         -9.5640   42.3560   60.1770 O.2   411  ARG411     -0.2867
    161  CB        -8.4410   41.4140   62.6880 C.3   411  ARG411      0.0307
    162  CG        -9.7540   41.8600   63.2970 C.3   411  ARG411      0.0489
    163  CD       -10.2080   40.9320   64.4080 C.3   411  ARG411      0.2205
    164  NE       -11.0000   41.6540   65.4020 N.pl3 411  ARG411     -0.0865
    165  CZ       -10.5070   42.5560   66.2480 C.cat 411  ARG411      0.5346
    166  NH1       -9.2150   42.8590   66.2320 N.pl3 411  ARG411      0.1354
    167  NH2      -11.3090   43.1630   67.1110 N.pl3 411  ARG411      0.1354
    168  N         -3.8200   52.9580   63.2130 N.3   433  ASP433     -0.1239
    169  CA        -5.0190   52.1240   63.2460 C.3   433  ASP433      0.1674
    170  C         -5.1060   51.1270   62.0870 C.2   433  ASP433      0.2266
    171  O         -5.7790   50.1050   62.1950 O.2   433  ASP433     -0.2867
    172  CB        -6.2700   53.0050   63.2590 C.3   433  ASP433      0.1410
    173  CG        -6.5590   53.5860   64.6290 C.2   433  ASP433      0.3668
    174  OD1       -5.7120   53.4290   65.5310 O.co2 433  ASP433     -0.2456
    175  OD2       -7.6290   54.2060   64.8020 O.co2 433  ASP433     -0.2456
    176  N         -8.1850   49.9500   66.1540 N.3   438  ALA438     -0.1231
    177  CA        -8.5090   51.0560   67.0500 C.3   438  ALA438      0.1694
    178  C         -7.5550   51.1020   68.2410 C.2   438  ALA438      0.2591
    179  O         -7.2710   50.0770   68.8590 O.2   438  ALA438     -0.2718
    180  CB        -9.9480   50.9470   67.5240 C.3   438  ALA438      0.0304
    181  N         -7.0510   52.2910   68.5500 N.am  439  ALA439     -0.1980
    182  CA        -6.0380   52.4470   69.5890 C.3   439  ALA439      0.1597
    183  C         -6.0120   53.8750   70.1190 C.2   439  ALA439      0.2287
    184  O         -7.0570   54.5060   70.2860 O.2   439  ALA439     -0.2864
    185  CB        -4.6670   52.0530   69.0600 C.3   439  ALA439      0.0319
@<TRIPOS>BOND
     1   160   159    2
     2   159   158    1
     3   157   158    1
     4   158   161    1
     5     1     2    1
     6   170   171    2
     7   170   169    1
     8     2     3    1
     9     2     5    1
    10   161   162    1
    11     3     4    2
    12   150   151    2
    13   150   149    1
    14   168   169    1
    15   169   172    1
    16   172   173    1
    17   162   163    1
    18     5     6    1
    19   149   152    1
    20   149   148    1
    21   152   153    1
    22     6     7    1
    23   155   154    2
    24   153   154    1
    25   154   156   am
    26   163   164    1
    27   173   175   ar
    28   173   174   ar
    29   147   146    2
    30   148   146   am
    31     7     8    1
    32   146   145    1
    33   164   165    2
    34     8     9    1
    35   176   177    1
    36   143   141    1
    37   166   165    1
    38   165   167    1
    39   141   140    1
    40   145   144    1
    41   177   180    1
    42   177   178    1
    43   144   138   am
    44    33    31    1
    45   136   137    1
    46   136   133   am
    47   138   139    2
    48   138   137    1
    49   131   132    1
    50   132   133    1
    51   132   135    1
    52   178   181   am
    53   178   179    2
    54   140   137    1
    55   140   142    1
    56   181   182    1
    57    32    31    1
    58   133   134    2
    59   185   182    1
    60    31    28    1
    61   182   183    1
    62   183   184    2
    63    28    29    1
    64    28    27    1
    65    30    29    2
    66    29    34   am
    67   109   107    1
    68    27    21   am
    69    34    35    1
    70    87    85    1
    71   107   108    1
    72   107   106    2
    73    35    38    1
    74    35    36    1
    75    21    22    2
    76    21    20    1
    77    85    86    1
    78    85    84    1
    79    36    37    2
    80   106   105    1
    81    23    20    1
    82    23    24    1
    83    20    19    1
    84    82    83    2
    85    82    81    1
    86    19    17   am
    87    58    57    1
    88    58    59    2
    89    57    56    1
    90    17    16    1
    91    17    18    2
    92    61    59    1
    93    16    15    1
    94    84    81    1
    95    59    60    1
    96    26    24   am
    97    81    80    1
    98    15    12   am
    99    24    25    2
   100   105   104    1
   101    10    11    1
   102    98    96    1
   103   129   130    1
   104   129   128    1
   105    56    55    1
   106   130   124    1
   107    55    52    1
   108   104   103    1
   109    12    11    1
   110    12    13    2
   111    97    96    1
   112    96    95    2
   113    11    14    1
   114   113   112    2
   115   128   125    1
   116    78    77    1
   117    78    79    1
   118    72    70    1
   119    47    45   ar
   120    47    49   ar
   121    45    44   ar
   122    51    52    1
   123    51    41   am
   124    77    74    1
   125    52    53    1
   126    40    39    1
   127    40    41    1
   128    40    43    1
   129   115   116    1
   130   115   114    1
   131   124   125    1
   132   124   119   am
   133    95    94    1
   134   116   110    1
   135   103   100    1
   136   123   121    1
   137    41    42    2
   138    69    70    2
   139    69    68    1
   140   112   117   am
   141   112   111    1
   142   118   121    1
   143   118   119    1
   144   118   117    1
   145    70    71    1
   146   125   126    1
   147    79    73    1
   148    50    49    1
   149    49    48   ar
   150   121   122    1
   151    76    75    2
   152    44    43    1
   153    44    46   ar
   154   110   111    1
   155   110   101   am
   156    75    74    1
   157   119   120    2
   158   114   111    1
   159    74    73    1
   160    53    62   am
   161    53    54    2
   162   100   101    1
   163   100    99    1
   164    67    68    1
   165    67    66    1
   166    94    93    1
   167   101   102    2
   168    62    63    1
   169   126   127    2
   170    48    46   ar
   171    93    92    1
   172    66    63    1
   173    92    89    1
   174    63    64    1
   175    65    64    2
   176    89    90    1
   177    89    88    1
   178    91    90    2
