@<TRIPOS>MOLECULE
tmp/4yryA01.pdb
 198 185 0 0 0
SMALL
GASTEIGER

@<TRIPOS>ATOM
      1  N         -7.1960   32.4970   43.8200 N.3    19  VAL19      -0.1245
      2  CA        -8.2820   31.5670   44.1410 C.3    19  VAL19       0.1561
      3  C         -9.5000   32.2660   44.7590 C.2    19  VAL19       0.2260
      4  O         -9.3720   33.0100   45.7330 O.2    19  VAL19      -0.2867
      5  CB        -7.8080   30.4670   45.1060 C.3    19  VAL19       0.0252
      6  CG1       -8.9300   29.4750   45.3780 C.3    19  VAL19       0.0019
      7  CG2       -6.5810   29.7660   44.5510 C.3    19  VAL19       0.0019
      8  N        -17.0520   22.4540   39.9090 N.3    53  THR53      -0.1218
      9  CA       -17.6540   21.5040   40.8390 C.3    53  THR53       0.1862
     10  C        -18.5440   22.1680   41.8870 C.2    53  THR53       0.2287
     11  O        -18.2970   23.2980   42.3070 O.2    53  THR53      -0.2866
     12  CB       -16.5720   20.6850   41.5690 C.3    53  THR53       0.1770
     13  OG1      -15.5340   20.3270   40.6490 O.3    53  THR53      -0.2211
     14  CG2      -17.1670   19.4230   42.1690 C.3    53  THR53       0.0375
     15  N        -15.5720   26.6520   44.4420 N.3    67  VAL67      -0.1245
     16  CA       -14.2880   27.3190   44.6120 C.3    67  VAL67       0.1561
     17  C        -13.5240   27.2650   43.3000 C.2    67  VAL67       0.2260
     18  O        -13.3720   26.2040   42.6950 O.2    67  VAL67      -0.2867
     19  CB       -13.4430   26.6850   45.7290 C.3    67  VAL67       0.0252
     20  CG1      -12.1500   27.4620   45.9220 C.3    67  VAL67       0.0019
     21  CG2      -14.2330   26.6310   47.0240 C.3    67  VAL67       0.0019
     22  N        -10.1740   28.4580   40.7760 N.3    69  LYS69      -0.1245
     23  CA        -8.8280   28.9650   40.5450 C.3    69  LYS69       0.1561
     24  C         -8.7990   29.7800   39.2560 C.2    69  LYS69       0.2260
     25  O         -9.3810   29.3790   38.2480 O.2    69  LYS69      -0.2867
     26  CB        -7.8290   27.8070   40.4680 C.3    69  LYS69       0.0271
     27  CG        -6.4180   28.1930   40.0500 C.3    69  LYS69       0.0035
     28  CD        -5.5660   28.6190   41.2290 C.3    69  LYS69       0.0206
     29  CE        -4.1330   28.8650   40.7860 C.3    69  LYS69       0.1093
     30  NZ        -3.2230   29.1440   41.9340 N.3    69  LYS69      -0.1314
     31  N         -7.0930   30.6710   36.1670 N.3    71  VAL71      -0.1245
     32  CA        -6.0500   30.2140   35.2570 C.3    71  VAL71       0.1561
     33  C         -6.1930   30.8860   33.8990 C.2    71  VAL71       0.2260
     34  O         -5.3380   30.7330   33.0270 O.2    71  VAL71      -0.2867
     35  CB        -6.0870   28.6850   35.0670 C.3    71  VAL71       0.0252
     36  CG1       -5.9330   27.9780   36.4050 C.3    71  VAL71       0.0019
     37  CG2       -7.3780   28.2670   34.3800 C.3    71  VAL71       0.0019
     38  N         -5.6660   18.8010   46.1400 N.3   111  GLY111     -0.1210
     39  CA        -4.7930   19.9220   45.8490 C.3   111  GLY111      0.1956
     40  C         -5.5580   21.2260   45.7090 C.2   111  GLY111      0.2612
     41  O         -6.6560   21.2370   45.1560 O.2   111  GLY111     -0.2717
     42  N         -4.9540   22.3150   46.1810 N.am  112  GLY112     -0.1942
     43  CA        -5.5370   23.6510   46.1800 C.3   112  GLY112      0.2014
     44  C         -7.0410   23.8270   46.0480 C.2   112  GLY112      0.2639
     45  O         -7.7580   23.8930   47.0460 O.2   112  GLY112     -0.2714
     46  N         -7.5210   23.8690   44.8080 N.am  113  VAL113     -0.1963
     47  CA        -8.9440   24.0470   44.5330 C.3   113  VAL113      0.1727
     48  C         -9.6640   22.7130   44.4230 C.2   113  VAL113      0.2616
     49  O        -10.8530   22.6170   44.7240 O.2   113  VAL113     -0.2715
     50  CB        -9.1810   24.8500   43.2340 C.3   113  VAL113      0.0290
     51  CG1       -9.2110   26.3420   43.5300 C.3   113  VAL113      0.0023
     52  CG2       -8.1210   24.5160   42.1970 C.3   113  VAL113      0.0023
     53  N         -8.9440   21.6850   43.9900 N.am  114  GLY114     -0.1955
     54  CA        -9.5000   20.3450   43.9250 C.3   114  GLY114      0.1869
     55  C         -9.9420   19.8510   45.2920 C.2   114  GLY114      0.2309
     56  O        -10.7390   18.9230   45.3970 O.2   114  GLY114     -0.2863
     57  N        -13.5520   20.1950   45.6240 N.3   117  THR117     -0.1218
     58  CA       -14.2270   19.0730   44.9880 C.3   117  THR117      0.1862
     59  C        -14.1490   17.8690   45.9180 C.2   117  THR117      0.2287
     60  O        -15.0690   17.0530   45.9900 O.2   117  THR117     -0.2866
     61  CB       -13.5870   18.7300   43.6260 C.3   117  THR117      0.1770
     62  OG1      -13.6900   19.8550   42.7450 O.3   117  THR117     -0.2211
     63  CG2      -14.2600   17.5220   42.9880 C.3   117  THR117      0.0375
     64  N         -2.8030   19.7590   50.2890 N.3   137  GLY137     -0.1210
     65  CA        -1.7020   20.4330   49.6310 C.3   137  GLY137      0.1956
     66  C         -2.2290   21.6760   48.9410 C.2   137  GLY137      0.2612
     67  O         -3.4310   21.7980   48.7000 O.2   137  GLY137     -0.2717
     68  N         -1.3310   22.5970   48.6130 N.am  138  ALA138     -0.1965
     69  CA        -1.7270   23.8730   48.0320 C.3   138  ALA138      0.1728
     70  C         -0.5960   24.4800   47.2160 C.2   138  ALA138      0.2616
     71  O          0.4890   23.9070   47.1160 O.2   138  ALA138     -0.2715
     72  CB        -2.1690   24.8380   49.1220 C.3   138  ALA138      0.0334
     73  N         -0.8570   25.6450   46.6350 N.am  139  ARG139     -0.1977
     74  CA         0.1490   26.3570   45.8620 C.3   139  ARG139      0.1597
     75  C          1.2170   26.8950   46.8050 C.2   139  ARG139      0.2287
     76  O          2.4080   26.8540   46.4960 O.2   139  ARG139     -0.2864
     77  CB        -0.4760   27.5000   45.0610 C.3   139  ARG139      0.0334
     78  CG        -1.3400   27.0710   43.8840 C.3   139  ARG139      0.0492
     79  CD        -0.5020   26.7620   42.6510 C.3   139  ARG139      0.2205
     80  NE        -1.3360   26.5120   41.4770 N.pl3 139  ARG139     -0.0865
     81  CZ        -0.8880   26.0270   40.3240 C.cat 139  ARG139      0.5346
     82  NH1        0.3950   25.7260   40.1800 N.pl3 139  ARG139      0.1354
     83  NH2       -1.7260   25.8340   39.3140 N.pl3 139  ARG139      0.1354
     84  N         -0.0700   18.7840   54.2220 N.3   160  THR160     -0.1218
     85  CA         1.1320   18.5640   53.4300 C.3   160  THR160      0.1862
     86  C          1.4240   19.7830   52.5700 C.2   160  THR160      0.2287
     87  O          1.1150   19.8110   51.3780 O.2   160  THR160     -0.2866
     88  CB         1.0070   17.3220   52.5460 C.3   160  THR160      0.1770
     89  OG1        0.3990   16.2720   53.3040 O.3   160  THR160     -0.2211
     90  CG2        2.3800   16.8680   52.0730 C.3   160  THR160      0.0375
     91  N          3.9510   22.8750   50.9000 N.3   162  ASP162     -0.1239
     92  CA         5.1480   22.8650   50.0740 C.3   162  ASP162      0.1674
     93  C          6.3050   23.5130   50.8260 C.2   162  ASP162      0.2266
     94  O          7.1560   24.1710   50.2280 O.2   162  ASP162     -0.2867
     95  CB         4.9050   23.5810   48.7430 C.3   162  ASP162      0.1410
     96  CG         3.7050   23.0310   47.9920 C.2   162  ASP162      0.3668
     97  OD1        2.7450   22.5760   48.6480 O.co2 162  ASP162     -0.2456
     98  OD2        3.7280   23.0420   46.7430 O.co2 162  ASP162     -0.2456
     99  N          6.1630   19.6300   50.9100 N.3   169  GLY169     -0.1210
    100  CA         6.1520   19.3160   49.4950 C.3   169  GLY169      0.1956
    101  C          4.9510   18.5110   49.0520 C.2   169  GLY169      0.2612
    102  O          3.8750   18.5980   49.6400 O.2   169  GLY169     -0.2717
    103  N          5.1610   17.7240   48.0020 N.am  170  VAL170     -0.1965
    104  CA         4.1100   16.9720   47.3230 C.3   170  VAL170      0.1727
    105  C          3.3250   16.0730   48.2860 C.2   170  VAL170      0.2616
    106  O          3.8910   15.5120   49.2240 O.2   170  VAL170     -0.2715
    107  CB         4.7280   16.1370   46.1740 C.3   170  VAL170      0.0290
    108  CG1        3.8570   14.9640   45.7960 C.3   170  VAL170      0.0023
    109  CG2        4.9910   17.0240   44.9640 C.3   170  VAL170      0.0023
    110  N          2.0190   15.9550   48.0510 N.am  171  VAL171     -0.1963
    111  CA         1.1260   15.1900   48.9200 C.3   171  VAL171      0.1727
    112  C          1.2810   13.6760   48.8090 C.2   171  VAL171      0.2616
    113  O          0.8490   12.9420   49.6960 O.2   171  VAL171     -0.2715
    114  CB        -0.3470   15.5290   48.6290 C.3   171  VAL171      0.0290
    115  CG1       -0.6700   16.9460   49.0680 C.3   171  VAL171      0.0023
    116  CG2       -0.6530   15.3270   47.1540 C.3   171  VAL171      0.0023
    117  N          1.8810   13.2060   47.7210 N.am  172  THR172     -0.1951
    118  CA         2.1290   11.7790   47.5690 C.3   172  THR172      0.1897
    119  C          3.1460   11.3120   48.6050 C.2   172  THR172      0.2313
    120  O          3.1850   10.1370   48.9670 O.2   172  THR172     -0.2863
    121  CB         2.6300   11.4280   46.1580 C.3   172  THR172      0.1794
    122  OG1        3.9770   11.8870   45.9920 O.3   172  THR172     -0.2208
    123  CG2        1.7400   12.0630   45.1070 C.3   172  THR172      0.0378
    124  N         -7.9780   14.3280   44.1560 N.3   190  VAL190     -0.1231
    125  CA        -8.5940   15.4020   43.3870 C.3   190  VAL190      0.1692
    126  C         -7.6580   16.6050   43.3500 C.2   190  VAL190      0.2593
    127  O         -7.3390   17.1900   44.3830 O.2   190  VAL190     -0.2718
    128  CB        -9.9500   15.8370   43.9710 C.3   190  VAL190      0.0266
    129  CG1      -10.6040   16.8460   43.0490 C.3   190  VAL190      0.0020
    130  CG2      -10.8670   14.6390   44.1730 C.3   190  VAL190      0.0020
    131  N         -7.2310   16.9720   42.1490 N.am  191  GLY191     -0.1943
    132  CA        -6.3440   18.1030   41.9560 C.3   191  GLY191      0.1998
    133  C         -6.0250   18.2150   40.4820 C.2   191  GLY191      0.2480
    134  O         -6.7880   17.7300   39.6470 O.2   191  GLY191     -0.2729
    135  N         -4.9010   18.8660   40.1490 N.am  192  PRO192     -0.2726
    136  CA        -4.4230   18.8610   38.7630 C.3   192  PRO192      0.1402
    137  C         -4.1950   17.4200   38.3140 C.2   192  PRO192      0.2269
    138  O         -4.0370   16.5480   39.1690 O.2   192  PRO192     -0.2865
    139  CB        -3.1080   19.6480   38.8270 C.3   192  PRO192      0.0296
    140  CG        -2.7460   19.7070   40.2860 C.3   192  PRO192      0.0237
    141  CD        -4.0340   19.6550   41.0390 C.3   192  PRO192      0.0939
    142  N         -1.7310   15.8860   37.0660 N.3   194  ILE194     -0.1231
    143  CA        -0.4360   15.3500   37.4710 C.3   194  ILE194      0.1692
    144  C         -0.5220   14.7370   38.8670 C.2   194  ILE194      0.2592
    145  O         -0.0320   13.6320   39.0970 O.2   194  ILE194     -0.2718
    146  CB         0.6670   16.4230   37.4500 C.3   194  ILE194      0.0266
    147  CG1        0.8840   16.9420   36.0290 C.3   194  ILE194      0.0019
    148  CG2        1.9710   15.8420   37.9580 C.3   194  ILE194      0.0020
    149  CD1        1.6000   15.9550   35.1220 C.3   194  ILE194      0.0001
    150  N         -1.1490   15.4550   39.7950 N.am  195  MET195     -0.1965
    151  CA        -1.2340   14.9870   41.1720 C.3   195  MET195      0.1736
    152  C         -2.1120   13.7510   41.2600 C.2   195  MET195      0.2616
    153  O         -1.7860   12.8020   41.9730 O.2   195  MET195     -0.2715
    154  CB        -1.7920   16.0790   42.0850 C.3   195  MET195      0.0427
    155  CG        -1.8890   15.6650   43.5470 C.3   195  MET195      0.0599
    156  SD        -3.4440   16.1300   44.3290 S.3   195  MET195     -0.1393
    157  CE        -4.5600   14.9440   43.5870 C.3   195  MET195      0.0692
    158  N         -3.2260   13.7630   40.5330 N.am  196  MET196     -0.1977
    159  CA        -4.1460   12.6360   40.5540 C.3   196  MET196      0.1605
    160  C         -3.4850   11.4250   39.9060 C.2   196  MET196      0.2287
    161  O         -3.8020   10.2790   40.2300 O.2   196  MET196     -0.2864
    162  CB        -5.4500   12.9840   39.8370 C.3   196  MET196      0.0413
    163  CG        -6.3150   14.0000   40.5650 C.3   196  MET196      0.0598
    164  SD        -7.9530   14.1610   39.8310 S.3   196  MET196     -0.1393
    165  CE        -7.5300   14.6500   38.1600 C.3   196  MET196      0.0692
    166  N         -0.2830   10.7650   40.1720 N.3   198  PHE198     -0.1241
    167  CA         0.7290   10.2930   41.1080 C.3   198  PHE198      0.1605
    168  C          0.0830    9.5670   42.2820 C.2   198  PHE198      0.2264
    169  O          0.5730    8.5280   42.7200 O.2   198  PHE198     -0.2867
    170  CB         1.6060   11.4500   41.5920 C.3   198  PHE198      0.0534
    171  CG         2.5640   11.9590   40.5490 C.ar  198  PHE198     -0.0203
    172  CD1        2.7340   11.2790   39.3530 C.ar  198  PHE198     -0.0042
    173  CD2        3.3090   13.1040   40.7720 C.ar  198  PHE198     -0.0042
    174  CE1        3.6160   11.7390   38.3930 C.ar  198  PHE198     -0.0003
    175  CE2        4.1970   13.5670   39.8150 C.ar  198  PHE198     -0.0003
    176  CZ         4.3480   12.8830   38.6240 C.ar  198  PHE198     -0.0000
    177  N        -11.1450   12.1740   40.5600 N.3   213  SER213     -0.1202
    178  CA       -12.0940   13.0600   39.8880 C.3   213  SER213      0.2020
    179  C        -11.4390   13.8040   38.7220 C.2   213  SER213      0.2619
    180  O        -10.7750   14.8210   38.9120 O.2   213  SER213     -0.2717
    181  CB       -12.6840   14.0610   40.8830 C.3   213  SER213      0.2103
    182  OG       -13.7190   14.8270   40.2920 O.3   213  SER213     -0.2182
    183  N        -11.6590   13.3000   37.5120 N.am  214  LEU214     -0.1965
    184  CA       -11.0000   13.8140   36.3130 C.3   214  LEU214      0.1728
    185  C        -11.4850   15.2020   35.9130 C.2   214  LEU214      0.2616
    186  O        -12.5980   15.6050   36.2520 O.2   214  LEU214     -0.2715
    187  CB       -11.2010   12.8450   35.1460 C.3   214  LEU214      0.0311
    188  CG       -10.4810   11.5010   35.2600 C.3   214  LEU214      0.0022
    189  CD1      -10.6060   10.7200   33.9630 C.3   214  LEU214      0.0001
    190  CD2       -9.0250   11.7050   35.6330 C.3   214  LEU214      0.0001
    191  N        -10.6400   15.9340   35.1930 N.am  215  ASN215     -0.1972
    192  CA       -10.9740   17.2900   34.7720 C.3   215  ASN215      0.1688
    193  C        -10.6450   17.5730   33.3020 C.2   215  ASN215      0.2292
    194  O         -9.7960   18.4100   33.0040 O.2   215  ASN215     -0.2864
    195  CB       -10.2600   18.3080   35.6680 C.3   215  ASN215      0.1181
    196  CG        -8.7510   18.1440   35.6530 C.2   215  ASN215      0.2629
    197  OD1       -8.2370   17.0260   35.6130 O.2   215  ASN215     -0.2716
    198  ND2       -8.0340   19.2620   35.6700 N.am  215  ASN215     -0.0877
@<TRIPOS>BOND
     1   194   193    2
     2    34    33    2
     3   193   192    1
     4    33    32    1
     5   189   188    1
     6    37    35    1
     7   192   191    1
     8   192   195    1
     9    35    32    1
    10    35    36    1
    11   149   147    1
    12   187   188    1
    13   187   184    1
    14   191   185   am
    15    32    31    1
    16   188   190    1
    17   197   196    2
    18   196   195    1
    19   196   198   am
    20   185   186    2
    21   185   184    1
    22   147   146    1
    23   184   183    1
    24   142   143    1
    25   146   143    1
    26   146   148    1
    27   143   144    1
    28   183   179   am
    29   165   164    1
    30    25    24    2
    31   137   136    1
    32   137   138    2
    33   174   176   ar
    34   174   172   ar
    35   176   175   ar
    36   179   180    2
    37   179   178    1
    38   136   139    1
    39   136   135    1
    40   139   140    1
    41   144   145    2
    42   144   150   am
    43    24    23    1
    44    83    81    1
    45   172   171   ar
    46   134   133    2
    47   150   151    1
    48   175   173   ar
    49   164   163    1
    50   162   159    1
    51   162   163    1
    52   178   177    1
    53   178   181    1
    54   160   161    2
    55   160   159    1
    56     8     9    1
    57    27    26    1
    58    27    28    1
    59   135   133   am
    60   135   141    1
    61   166   167    1
    62    82    81    1
    63   140   141    1
    64   182   181    1
    65    81    80    2
    66    26    23    1
    67   133   132    1
    68   158   159    1
    69   158   152   am
    70    23    22    1
    71   171   173   ar
    72   171   170    1
    73    13    12    1
    74    29    28    1
    75    29    30    1
    76     9    12    1
    77     9    10    1
    78   167   170    1
    79   167   168    1
    80   151   152    1
    81   151   154    1
    82   152   153    2
    83    80    79    1
    84    12    14    1
    85    10    11    2
    86   132   131    1
    87   154   155    1
    88   131   126   am
    89    52    50    1
    90   168   169    2
    91    79    78    1
    92    18    17    2
    93    62    61    1
    94    63    61    1
    95   129   128    1
    96    50    51    1
    97    50    47    1
    98    17    16    1
    99   126   125    1
   100   126   127    2
   101   125   128    1
   102   125   124    1
   103   155   156    1
   104   157   156    1
   105    61    58    1
   106     1     2    1
   107    78    77    1
   108    54    53    1
   109    54    55    1
   110   128   130    1
   111    53    48   am
   112     2     3    1
   113     2     5    1
   114    48    47    1
   115    48    49    2
   116    15    16    1
   117    47    46    1
   118     7     5    1
   119    16    19    1
   120     3     4    2
   121    46    44   am
   122   109   107    1
   123    58    57    1
   124    58    59    1
   125    77    74    1
   126     5     6    1
   127   123   121    1
   128    41    40    2
   129    55    56    2
   130    40    39    1
   131    40    42   am
   132    19    20    1
   133    19    21    1
   134   108   107    1
   135    39    38    1
   136    74    73    1
   137    74    75    1
   138    59    60    2
   139   122   121    1
   140    44    43    1
   141    44    45    2
   142   121   118    1
   143   107   104    1
   144    43    42    1
   145    76    75    2
   146    73    70   am
   147    98    96   ar
   148    71    70    2
   149   116   114    1
   150    70    69    1
   151   104   103    1
   152   104   105    1
   153   118   117    1
   154   118   119    1
   155   117   112   am
   156    96    97   ar
   157    96    95    1
   158   103   101   am
   159    69    68    1
   160    69    72    1
   161   110   105   am
   162   110   111    1
   163   105   106    2
   164   119   120    2
   165    68    66   am
   166   114   111    1
   167   114   115    1
   168    67    66    2
   169    95    92    1
   170   112   111    1
   171   112   113    2
   172    66    65    1
   173   101   100    1
   174   101   102    2
   175   100    99    1
   176    65    64    1
   177    92    93    1
   178    92    91    1
   179    94    93    2
   180    87    86    2
   181    90    88    1
   182    88    89    1
   183    88    85    1
   184    86    85    1
   185    85    84    1
