@<TRIPOS>MOLECULE
tmp/4yrzB00.pdb
 125 121 0 0 0
SMALL
GASTEIGER

@<TRIPOS>ATOM
      1  N        -33.6960  -44.8130   20.8370 N.3    52  GLN52      -0.1245
      2  CA       -34.7920  -45.7260   21.0550 C.3    52  GLN52       0.1566
      3  C        -34.7450  -46.0340   22.5130 C.2    52  GLN52       0.2260
      4  O        -33.7100  -45.8510   23.1380 O.2    52  GLN52      -0.2867
      5  CB       -34.5860  -47.0200   20.2820 C.3    52  GLN52       0.0367
      6  CG       -34.9300  -46.9390   18.8140 C.3    52  GLN52       0.0905
      7  CD       -34.7200  -48.2560   18.1000 C.2    52  GLN52       0.2608
      8  OE1      -34.4430  -49.2680   18.7270 O.2    52  GLN52      -0.2717
      9  NE2      -34.8540  -48.2530   16.7790 N.am   52  GLN52      -0.0878
     10  N        -35.3470  -49.1400   23.2860 N.3    54  SER54      -0.1217
     11  CA       -34.6790  -50.4240   23.0870 C.3    54  SER54       0.1889
     12  C        -33.1560  -50.2890   23.0430 C.2    54  SER54       0.2288
     13  O        -32.6320  -49.5800   22.1990 O.2    54  SER54      -0.2866
     14  CB       -35.1410  -51.0520   21.7830 C.3    54  SER54       0.2089
     15  OG       -34.6670  -52.3750   21.6650 O.3    54  SER54      -0.2183
     16  N        -31.0390  -52.6170   22.2390 N.3    56  TYR56      -0.1227
     17  CA       -30.5130  -53.6980   21.4070 C.3    56  TYR56       0.1736
     18  C        -29.2730  -53.2970   20.5870 C.2    56  TYR56       0.2595
     19  O        -28.2910  -54.0150   20.5310 O.2    56  TYR56      -0.2718
     20  CB       -31.6100  -54.1880   20.4510 C.3    56  TYR56       0.0548
     21  CG       -31.1350  -55.1970   19.4280 C.ar   56  TYR56      -0.0200
     22  CD1      -31.0810  -56.5360   19.7480 C.ar   56  TYR56      -0.0009
     23  CD2      -30.7390  -54.8160   18.1610 C.ar   56  TYR56      -0.0009
     24  CE1      -30.6450  -57.4780   18.8480 C.ar   56  TYR56       0.0417
     25  CE2      -30.2950  -55.7590   17.2420 C.ar   56  TYR56       0.0417
     26  CZ       -30.2530  -57.1010   17.6070 C.ar   56  TYR56       0.1957
     27  OH       -29.8340  -58.0960   16.7480 O.3    56  TYR56      -0.2866
     28  N        -29.3510  -52.1420   19.9470 N.am   57  TRP57      -0.1976
     29  CA       -28.3430  -51.6860   19.0110 C.3    57  TRP57       0.1640
     30  C        -27.0510  -51.2780   19.7110 C.2    57  TRP57       0.2290
     31  O        -25.9630  -51.6550   19.2530 O.2    57  TRP57      -0.2864
     32  CB       -28.8980  -50.5280   18.1740 C.3    57  TRP57       0.0576
     33  CG       -30.2540  -50.8120   17.5630 C.ar   57  TRP57       0.0006
     34  CD1      -31.4870  -50.3650   18.0010 C.ar   57  TRP57       0.0946
     35  CD2      -30.5120  -51.6040   16.4000 C.ar   57  TRP57       0.0152
     36  NE1      -32.4920  -50.8350   17.1670 N.ar   57  TRP57      -0.2442
     37  CE2      -31.9180  -51.5990   16.1850 C.ar   57  TRP57       0.0810
     38  CE3      -29.6980  -52.3130   15.5200 C.ar   57  TRP57       0.0012
     39  CZ2      -32.5060  -52.2880   15.1310 C.ar   57  TRP57       0.0191
     40  CZ3      -30.2920  -52.9870   14.4750 C.ar   57  TRP57       0.0001
     41  CH2      -31.6800  -52.9700   14.2900 C.ar   57  TRP57       0.0015
     42  N        -31.0820  -57.5670   12.1810 N.3   134  ASN134     -0.1240
     43  CA       -32.4800  -57.6130   12.5830 C.3   134  ASN134      0.1653
     44  C        -33.3140  -58.2710   11.5060 C.2   134  ASN134      0.2266
     45  O        -34.4730  -57.9930   11.3670 O.2   134  ASN134     -0.2867
     46  CB       -33.0100  -56.2100   12.8930 C.3   134  ASN134      0.1155
     47  CG       -34.1380  -56.2100   13.9250 C.2   134  ASN134      0.2627
     48  OD1      -34.3230  -57.1580   14.6840 O.2   134  ASN134     -0.2716
     49  ND2      -34.8770  -55.1100   13.9680 N.am  134  ASN134     -0.0877
     50  N        -45.6420  -52.9340   14.5860 N.3   181  PHE181     -0.1241
     51  CA       -44.5340  -52.0320   14.4080 C.3   181  PHE181      0.1605
     52  C        -44.9760  -51.1420   13.2680 C.2   181  PHE181      0.2264
     53  O        -46.1510  -51.1260   12.9090 O.2   181  PHE181     -0.2867
     54  CB       -43.3250  -52.8530   14.0140 C.3   181  PHE181      0.0534
     55  CG       -42.0120  -52.1460   14.1670 C.ar  181  PHE181     -0.0203
     56  CD1      -41.4800  -51.8740   15.4110 C.ar  181  PHE181     -0.0042
     57  CD2      -41.2850  -51.8000   13.0610 C.ar  181  PHE181     -0.0042
     58  CE1      -40.2740  -51.2350   15.5410 C.ar  181  PHE181     -0.0003
     59  CE2      -40.0750  -51.1660   13.1980 C.ar  181  PHE181     -0.0003
     60  CZ       -39.5770  -50.8920   14.4450 C.ar  181  PHE181     -0.0000
     61  N        -41.0560  -56.0760    9.8660 N.3   186  ILE186     -0.1245
     62  CA       -41.0680  -56.5300   11.2520 C.3   186  ILE186      0.1561
     63  C        -42.4890  -56.7720   11.7390 C.2   186  ILE186      0.2260
     64  O        -42.7440  -57.7250   12.4470 O.2   186  ILE186     -0.2867
     65  CB       -40.2170  -55.6050   12.1450 C.3   186  ILE186      0.0252
     66  CG1      -38.7440  -56.0350   11.9630 C.3   186  ILE186      0.0019
     67  CG2      -40.6230  -55.7170   13.6070 C.3   186  ILE186      0.0019
     68  CD1      -37.6850  -55.0540   12.4100 C.3   186  ILE186      0.0001
     69  N        -43.2600  -60.3890   13.0060 N.3   190  ARG190     -0.1245
     70  CA       -43.6000  -60.4910   14.4250 C.3   190  ARG190      0.1563
     71  C        -45.1290  -60.4540   14.6310 C.2   190  ARG190      0.2260
     72  O        -45.6800  -61.1950   15.4390 O.2   190  ARG190     -0.2867
     73  CB       -42.9550  -59.3560   15.2320 C.3   190  ARG190      0.0307
     74  CG       -41.4570  -59.4350   15.4030 C.3   190  ARG190      0.0489
     75  CD       -41.0160  -58.3590   16.3910 C.3   190  ARG190      0.2205
     76  NE       -39.5670  -58.2790   16.5190 N.pl3 190  ARG190     -0.0865
     77  CZ       -38.9010  -57.3280   17.1740 C.cat 190  ARG190      0.5346
     78  NH1      -39.5360  -56.3560   17.7990 N.pl3 190  ARG190      0.1354
     79  NH2      -37.5800  -57.3470   17.2130 N.pl3 190  ARG190      0.1354
     80  N        -42.9060  -54.6650   19.4960 N.3   240  SER240     -0.1202
     81  CA       -41.6520  -53.9970   19.7410 C.3   240  SER240      0.2020
     82  C        -41.6850  -53.3460   21.0890 C.2   240  SER240      0.2619
     83  O        -42.7490  -53.0230   21.5970 O.2   240  SER240     -0.2717
     84  CB       -41.3910  -52.9310   18.6820 C.3   240  SER240      0.2103
     85  OG       -42.0740  -51.7360   18.9910 O.3   240  SER240     -0.2182
     86  N        -40.5000  -53.1320   21.6520 N.am  241  THR241     -0.1938
     87  CA       -40.3140  -52.5480   22.9880 C.3   241  THR241      0.2028
     88  C        -40.8700  -51.1300   23.2040 C.2   241  THR241      0.2642
     89  O        -41.5870  -50.8640   24.1690 O.2   241  THR241     -0.2714
     90  CB       -38.7950  -52.5480   23.3350 C.3   241  THR241      0.1808
     91  OG1      -38.3410  -53.8970   23.3760 O.3   241  THR241     -0.2208
     92  CG2      -38.4930  -51.8920   24.6820 C.3   241  THR241      0.0379
     93  N        -40.5180  -50.2090   22.3360 N.am  242  ASP242     -0.1971
     94  CA       -40.9370  -48.8340   22.5230 C.3   242  ASP242      0.1709
     95  C        -42.4630  -48.7500   22.5700 C.2   242  ASP242      0.2293
     96  O        -43.0350  -48.0800   23.4440 O.2   242  ASP242     -0.2864
     97  CB       -40.3600  -47.9630   21.4050 C.3   242  ASP242      0.1436
     98  CG       -38.8400  -47.7790   21.5280 C.2   242  ASP242      0.3671
     99  OD1      -38.1480  -48.7300   21.9620 O.co2 242  ASP242     -0.2456
    100  OD2      -38.3300  -46.6880   21.1880 O.co2 242  ASP242     -0.2456
    101  N        -41.0850  -57.1720   23.7570 N.3   264  TRP264     -0.1241
    102  CA       -40.5180  -57.9810   22.6770 C.3   264  TRP264      0.1605
    103  C        -39.0080  -57.7690   22.5980 C.2   264  TRP264      0.2264
    104  O        -38.5610  -56.8830   21.8750 O.2   264  TRP264     -0.2867
    105  CB       -41.1610  -57.6190   21.3170 C.3   264  TRP264      0.0550
    106  CG       -41.2930  -58.7940   20.3900 C.ar  264  TRP264      0.0003
    107  CD1      -42.4410  -59.3860   20.0030 C.ar  264  TRP264      0.0946
    108  CD2      -40.2340  -59.5180   19.7630 C.ar  264  TRP264      0.0152
    109  NE1      -42.1770  -60.4460   19.1740 N.ar  264  TRP264     -0.2442
    110  CE2      -40.8330  -60.5410   19.0070 C.ar  264  TRP264      0.0810
    111  CE3      -38.8500  -59.4040   19.7760 C.ar  264  TRP264      0.0012
    112  CZ2      -40.0730  -61.4580   18.2680 C.ar  264  TRP264      0.0191
    113  CZ3      -38.1070  -60.2980   19.0360 C.ar  264  TRP264      0.0001
    114  CH2      -38.7190  -61.3210   18.2980 C.ar  264  TRP264      0.0015
    115  N        -34.0940  -61.9050   24.4390 N.3   285  ARG285     -0.1245
    116  CA       -33.0910  -62.5130   23.5990 C.3   285  ARG285      0.1563
    117  C        -31.7080  -62.4670   24.2720 C.2   285  ARG285      0.2260
    118  O        -31.4510  -61.5960   25.0820 O.2   285  ARG285     -0.2867
    119  CB       -33.1650  -61.9410   22.1910 C.3   285  ARG285      0.0307
    120  CG       -32.8600  -60.5420   22.0770 C.3   285  ARG285      0.0489
    121  CD       -33.6800  -59.8460   20.9640 C.3   285  ARG285      0.2205
    122  NE       -33.7990  -58.4570   21.3860 N.pl3 285  ARG285     -0.0865
    123  CZ       -34.5260  -57.5270   20.8140 C.cat 285  ARG285      0.5346
    124  NH1      -35.2280  -57.7800   19.7340 N.pl3 285  ARG285      0.1354
    125  NH2      -34.5340  -56.3300   21.3460 N.pl3 285  ARG285      0.1354
@<TRIPOS>BOND
     1    61    62    1
     2    62    63    1
     3    62    65    1
     4    45    44    2
     5    44    43    1
     6    63    64    2
     7    66    65    1
     8    66    68    1
     9    65    67    1
    10    42    43    1
    11    43    46    1
    12    46    47    1
    13    53    52    2
    14    69    70    1
    15    57    59   ar
    16    57    55   ar
    17    59    60   ar
    18    52    51    1
    19    47    49   am
    20    47    48    2
    21    54    55    1
    22    54    51    1
    23    55    56   ar
    24    41    40   ar
    25    41    39   ar
    26    51    50    1
    27    70    71    1
    28    70    73    1
    29    60    58   ar
    30    40    38   ar
    31    71    72    2
    32    39    37   ar
    33    73    74    1
    34    74    75    1
    35    56    58   ar
    36    38    35   ar
    37    37    35   ar
    38    37    36   ar
    39    75    76    1
    40    35    33   ar
    41    76    77    2
    42    27    26    1
    43     9     7   am
    44    36    34   ar
    45    77    79    1
    46    77    78    1
    47    25    26   ar
    48    25    23   ar
    49    33    34   ar
    50    33    32    1
    51    26    24   ar
    52     7     8    2
    53     7     6    1
    54    23    21   ar
    55    32    29    1
    56   112   114   ar
    57   112   110   ar
    58   114   113   ar
    59    84    85    1
    60    84    81    1
    61     6     5    1
    62    24    22   ar
    63   110   109   ar
    64   110   108   ar
    65    29    30    1
    66    29    28    1
    67   113   111   ar
    68   109   107   ar
    69    31    30    2
    70    21    22   ar
    71    21    20    1
    72    80    81    1
    73   124   123    1
    74    81    82    1
    75   108   111   ar
    76   108   106   ar
    77    28    18   am
    78   107   106   ar
    79     5     2    1
    80   106   105    1
    81    20    17    1
    82    19    18    2
    83    18    17    1
    84   123   125    1
    85   123   122    2
    86     1     2    1
    87   121   122    1
    88   121   120    1
    89     2     3    1
    90    82    83    2
    91    82    86   am
    92   100    98   ar
    93   105   102    1
    94    97    98    1
    95    97    94    1
    96    17    16    1
    97    98    99   ar
    98    86    87    1
    99    15    14    1
   100    14    11    1
   101   104   103    2
   102   120   119    1
   103   119   116    1
   104    13    12    2
   105    93    94    1
   106    93    88   am
   107     3     4    2
   108    94    95    1
   109    95    96    2
   110   103   102    1
   111   102   101    1
   112    87    88    1
   113    87    90    1
   114    12    11    1
   115    11    10    1
   116    88    89    2
   117    90    91    1
   118    90    92    1
   119   116   117    1
   120   116   115    1
   121   117   118    2
