@<TRIPOS>MOLECULE
tmp/4ys1A01.pdb
 135 139 0 0 0
SMALL
GASTEIGER

@<TRIPOS>ATOM
      1  N         63.7350   -8.7740   49.1890 N.3    21  TRP21      -0.1241
      2  CA        64.2160   -9.4800   48.0030 C.3    21  TRP21       0.1605
      3  C         65.3090  -10.4640   48.4050 C.2    21  TRP21       0.2264
      4  O         66.2680  -10.0860   49.0790 O.2    21  TRP21      -0.2867
      5  CB        64.7340   -8.4980   46.9420 C.3    21  TRP21       0.0550
      6  CG        65.3960   -9.1700   45.7670 C.ar   21  TRP21       0.0003
      7  CD1       65.0150  -10.3240   45.1350 C.ar   21  TRP21       0.0946
      8  CD2       66.5950   -8.7380   45.1160 C.ar   21  TRP21       0.0152
      9  NE1       65.8990  -10.6220   44.1170 N.ar   21  TRP21      -0.2442
     10  CE2       66.8780   -9.6630   44.0890 C.ar   21  TRP21       0.0810
     11  CE3       67.4460   -7.6420   45.2890 C.ar   21  TRP21       0.0012
     12  CZ2       67.9860   -9.5290   43.2520 C.ar   21  TRP21       0.0191
     13  CZ3       68.5470   -7.5140   44.4630 C.ar   21  TRP21       0.0001
     14  CH2       68.8030   -8.4470   43.4500 C.ar   21  TRP21       0.0015
     15  N         57.1690  -10.0160   42.5310 N.3    48  VAL48      -0.1231
     16  CA        58.2190  -10.7430   41.8270 C.3    48  VAL48       0.1692
     17  C         59.1890  -11.4380   42.7950 C.2    48  VAL48       0.2592
     18  O         59.9250  -12.3340   42.3910 O.2    48  VAL48      -0.2718
     19  CB        58.9640   -9.8150   40.8250 C.3    48  VAL48       0.0266
     20  CG1       59.9550   -8.9200   41.5380 C.3    48  VAL48       0.0020
     21  CG2       59.6480  -10.6100   39.7110 C.3    48  VAL48       0.0020
     22  N         59.1810  -11.0440   44.0700 N.am   49  TYR49      -0.1976
     23  CA        60.0710  -11.6710   45.0550 C.3    49  TYR49       0.1639
     24  C         59.6140  -13.0770   45.4510 C.2    49  TYR49       0.2290
     25  O         60.3820  -13.8350   46.0420 O.2    49  TYR49      -0.2864
     26  CB        60.2430  -10.8110   46.3130 C.3    49  TYR49       0.0560
     27  CG        60.7990   -9.4240   46.0630 C.ar   49  TYR49      -0.0198
     28  CD1       61.3810   -9.0730   44.8450 C.ar   49  TYR49      -0.0009
     29  CD2       60.7270   -8.4520   47.0510 C.ar   49  TYR49      -0.0009
     30  CE1       61.8610   -7.7930   44.6240 C.ar   49  TYR49       0.0417
     31  CE2       61.2150   -7.1760   46.8390 C.ar   49  TYR49       0.0417
     32  CZ        61.7740   -6.8480   45.6240 C.ar   49  TYR49       0.1957
     33  OH        62.2350   -5.5650   45.4120 O.3    49  TYR49      -0.2866
     34  N         54.5760   -5.7480   39.0330 N.3    80  TRP80      -0.1241
     35  CA        55.6000   -6.3110   38.1710 C.3    80  TRP80       0.1605
     36  C         55.3770   -5.9330   36.6890 C.2    80  TRP80       0.2264
     37  O         54.2750   -5.5420   36.2750 O.2    80  TRP80      -0.2867
     38  CB        55.7860   -7.8330   38.3950 C.3    80  TRP80       0.0550
     39  CG        56.9260   -8.3380   37.5790 C.ar   80  TRP80       0.0003
     40  CD1       56.8570   -9.1890   36.5130 C.ar   80  TRP80       0.0946
     41  CD2       58.2940   -7.9150   37.6670 C.ar   80  TRP80       0.0152
     42  NE1       58.0970   -9.3440   35.9470 N.ar   80  TRP80      -0.2442
     43  CE2       58.9980   -8.5720   36.6370 C.ar   80  TRP80       0.0810
     44  CE3       58.9940   -7.0510   38.5230 C.ar   80  TRP80       0.0012
     45  CZ2       60.3650   -8.3910   36.4370 C.ar   80  TRP80       0.0191
     46  CZ3       60.3510   -6.8800   38.3300 C.ar   80  TRP80       0.0001
     47  CH2       61.0240   -7.5470   37.2950 C.ar   80  TRP80       0.0015
     48  N         57.2010   -1.1500   39.4250 N.3   111  HIS111     -0.1226
     49  CA        58.5080   -1.7070   39.7930 C.3   111  HIS111      0.1752
     50  C         59.6250   -1.2380   38.8460 C.2   111  HIS111      0.2596
     51  O         60.7320   -0.9200   39.2980 O.2   111  HIS111     -0.2718
     52  CB        58.4100   -3.2380   39.8330 C.3   111  HIS111      0.0759
     53  CG        59.4410   -3.9160   40.6770 C.ar  111  HIS111      0.0818
     54  ND1       59.1620   -5.0740   41.3710 N.ar  111  HIS111     -0.2268
     55  CD2       60.7470   -3.6320   40.9090 C.ar  111  HIS111      0.1154
     56  CE1       60.2540   -5.4640   42.0070 C.ar  111  HIS111      0.1986
     57  NE2       61.2280   -4.6090   41.7430 N.ar  111  HIS111     -0.2212
     58  N         59.3280   -1.2110   37.5440 N.am  112  TRP112     -0.1976
     59  CA        60.2180   -0.6880   36.5110 C.3   112  TRP112      0.1640
     60  C         59.3720    0.0390   35.4810 C.2   112  TRP112      0.2290
     61  O         58.1980   -0.2930   35.2950 O.2   112  TRP112     -0.2864
     62  CB        60.9530   -1.8180   35.7760 C.3   112  TRP112      0.0576
     63  CG        61.9750   -2.5240   36.6080 C.ar  112  TRP112      0.0006
     64  CD1       61.7580   -3.5660   37.4580 C.ar  112  TRP112      0.0946
     65  CD2       63.3730   -2.2210   36.6890 C.ar  112  TRP112      0.0152
     66  NE1       62.9330   -3.9370   38.0620 N.ar  112  TRP112     -0.2442
     67  CE2       63.9410   -3.1290   37.6030 C.ar  112  TRP112      0.0810
     68  CE3       64.2030   -1.2810   36.0640 C.ar  112  TRP112      0.0012
     69  CZ2       65.3000   -3.1140   37.9220 C.ar  112  TRP112      0.0191
     70  CZ3       65.5540   -1.2700   36.3830 C.ar  112  TRP112      0.0001
     71  CH2       66.0840   -2.1810   37.3030 C.ar  112  TRP112      0.0015
     72  N         57.8560  -14.1720   34.4090 N.3   122  PHE122     -0.1227
     73  CA        58.1850  -12.8130   34.8100 C.3   122  PHE122      0.1736
     74  C         59.0870  -12.0850   33.8050 C.2   122  PHE122      0.2595
     75  O         59.0510  -10.8580   33.7280 O.2   122  PHE122     -0.2718
     76  CB        58.8300  -12.8120   36.1930 C.3   122  PHE122      0.0547
     77  CG        57.8880  -13.1820   37.3250 C.ar  122  PHE122     -0.0202
     78  CD1       56.5180  -12.9570   37.2390 C.ar  122  PHE122     -0.0042
     79  CD2       58.3890  -13.7440   38.4850 C.ar  122  PHE122     -0.0042
     80  CE1       55.6740  -13.2870   38.2920 C.ar  122  PHE122     -0.0003
     81  CE2       57.5480  -14.0680   39.5520 C.ar  122  PHE122     -0.0003
     82  CZ        56.1920  -13.8410   39.4480 C.ar  122  PHE122     -0.0000
     83  N         59.9090  -12.8370   33.0730 N.am  123  PHE123     -0.1976
     84  CA        60.7510  -12.2940   32.0080 C.3   123  PHE123      0.1639
     85  C         60.4810  -13.0890   30.7300 C.2   123  PHE123      0.2290
     86  O         61.2380  -14.0000   30.3900 O.2   123  PHE123     -0.2864
     87  CB        62.2390  -12.3750   32.3730 C.3   123  PHE123      0.0560
     88  CG        62.6880  -11.3410   33.3730 C.ar  123  PHE123     -0.0200
     89  CD1       63.2580  -10.1460   32.9530 C.ar  123  PHE123     -0.0042
     90  CD2       62.5490  -11.5630   34.7350 C.ar  123  PHE123     -0.0042
     91  CE1       63.6890   -9.1960   33.8720 C.ar  123  PHE123     -0.0003
     92  CE2       62.9700  -10.6180   35.6570 C.ar  123  PHE123     -0.0003
     93  CZ        63.5370   -9.4300   35.2210 C.ar  123  PHE123     -0.0000
     94  N         74.0830  -12.3400   40.7900 N.3   220  TRP220     -0.1241
     95  CA        75.0760  -12.1700   39.7340 C.3   220  TRP220      0.1605
     96  C         76.3830  -11.5490   40.2260 C.2   220  TRP220      0.2264
     97  O         77.1810  -11.0650   39.4220 O.2   220  TRP220     -0.2867
     98  CB        74.4910  -11.3210   38.6010 C.3   220  TRP220      0.0550
     99  CG        73.8210  -10.0770   39.0970 C.ar  220  TRP220      0.0003
    100  CD1       74.4190   -8.8910   39.4130 C.ar  220  TRP220      0.0946
    101  CD2       72.4210   -9.8990   39.3500 C.ar  220  TRP220      0.0152
    102  NE1       73.4790   -7.9850   39.8440 N.ar  220  TRP220     -0.2442
    103  CE2       72.2440   -8.5790   39.8120 C.ar  220  TRP220      0.0810
    104  CE3       71.3000  -10.7270   39.2190 C.ar  220  TRP220      0.0012
    105  CZ2       70.9880   -8.0690   40.1480 C.ar  220  TRP220      0.0191
    106  CZ3       70.0570  -10.2200   39.5550 C.ar  220  TRP220      0.0001
    107  CH2       69.9100   -8.9040   40.0150 C.ar  220  TRP220      0.0015
    108  N         71.6560   -3.3240   40.1510 N.3   299  CYS299     -0.1235
    109  CA        70.4980   -3.6660   39.3310 C.3   299  CYS299      0.1677
    110  C         70.4710   -2.8540   38.0520 C.2   299  CYS299      0.2270
    111  O         69.9880   -1.7260   38.0290 O.2   299  CYS299     -0.2867
    112  CB        69.1980   -3.4230   40.0960 C.3   299  CYS299      0.0956
    113  SG        68.8650   -4.6040   41.3920 S.3   299  CYS299     -0.0801
    114  N         69.2080   -4.2160   35.0390 N.3   301  LEU301     -0.1231
    115  CA        68.1940   -4.8110   34.1510 C.3   301  LEU301      0.1693
    116  C         68.7710   -5.1200   32.7620 C.2   301  LEU301      0.2592
    117  O         68.2150   -4.7290   31.7300 O.2   301  LEU301     -0.2718
    118  CB        66.9470   -3.9170   34.0500 C.3   301  LEU301      0.0284
    119  CG        65.6310   -4.6070   33.6550 C.3   301  LEU301      0.0019
    120  CD1       65.1210   -5.4830   34.7960 C.3   301  LEU301      0.0001
    121  CD2       64.5720   -3.6040   33.2160 C.3   301  LEU301      0.0001
    122  N         69.8950   -5.8300   32.7540 N.am  302  LEU302     -0.1966
    123  CA        70.6860   -6.0160   31.5380 C.3   302  LEU302      0.1728
    124  C         69.9680   -6.7520   30.4050 C.2   302  LEU302      0.2616
    125  O         70.3510   -6.6250   29.2440 O.2   302  LEU302     -0.2715
    126  CB        72.0170   -6.6990   31.8690 C.3   302  LEU302      0.0311
    127  CG        72.9700   -5.8530   32.7190 C.3   302  LEU302      0.0022
    128  CD1       74.2510   -6.6100   33.0300 C.3   302  LEU302      0.0001
    129  CD2       73.2800   -4.5340   32.0250 C.3   302  LEU302      0.0001
    130  N         68.9270   -7.5080   30.7340 N.am  303  SER303     -0.1950
    131  CA        68.1730   -8.2450   29.7250 C.3   303  SER303      0.1924
    132  C         67.2280   -7.3470   28.9260 C.2   303  SER303      0.2314
    133  O         66.6330   -7.7830   27.9370 O.2   303  SER303     -0.2863
    134  CB        67.3790   -9.3830   30.3730 C.3   303  SER303      0.2116
    135  OG        66.3000   -8.8850   31.1430 O.3   303  SER303     -0.2180
@<TRIPOS>BOND
     1   133   132    2
     2   132   131    1
     3   125   124    2
     4   131   134    1
     5   131   130    1
     6   134   135    1
     7    86    85    2
     8   124   130   am
     9   124   123    1
    10    85    84    1
    11   123   126    1
    12   123   122    1
    13   117   116    2
    14   126   127    1
    15    84    87    1
    16    84    83    1
    17   129   127    1
    18    87    88    1
    19   127   128    1
    20   122   116   am
    21   116   115    1
    22    89    88   ar
    23    89    91   ar
    24    83    74   am
    25   121   119    1
    26    88    90   ar
    27   119   118    1
    28   119   120    1
    29    75    74    2
    30    74    73    1
    31    91    93   ar
    32   118   115    1
    33   115   114    1
    34    72    73    1
    35    90    92   ar
    36    73    76    1
    37    93    92   ar
    38    61    60    2
    39    60    59    1
    40    62    59    1
    41    62    63    1
    42    42    40   ar
    43    42    43   ar
    44    68    70   ar
    45    68    65   ar
    46    76    77    1
    47    37    36    2
    48    70    71   ar
    49    45    43   ar
    50    45    47   ar
    51    59    58    1
    52    40    39   ar
    53    63    65   ar
    54    63    64   ar
    55    43    41   ar
    56    36    35    1
    57    65    67   ar
    58    78    77   ar
    59    78    80   ar
    60    47    46   ar
    61    71    69   ar
    62    77    79   ar
    63    64    66   ar
    64    58    50   am
    65    39    41   ar
    66    39    38    1
    67    67    69   ar
    68    67    66   ar
    69    41    44   ar
    70   111   110    2
    71   110   109    1
    72    35    38    1
    73    35    34    1
    74    80    82   ar
    75    46    44   ar
    76    79    81   ar
    77    98    99    1
    78    98    95    1
    79    50    51    2
    80    50    49    1
    81    99   101   ar
    82    99   100   ar
    83   104   101   ar
    84   104   106   ar
    85   109   112    1
    86   109   108    1
    87   101   103   ar
    88   100   102   ar
    89    97    96    2
    90    48    49    1
    91    82    81   ar
    92   106   107   ar
    93    21    19    1
    94    95    96    1
    95    95    94    1
    96    49    52    1
    97   103   102   ar
    98   103   105   ar
    99    52    53    1
   100   107   105   ar
   101   112   113    1
   102    53    55   ar
   103    53    54   ar
   104    19    20    1
   105    19    16    1
   106    55    57   ar
   107    54    56   ar
   108    57    56   ar
   109    16    15    1
   110    16    17    1
   111    18    17    2
   112    17    22   am
   113    12    14   ar
   114    12    10   ar
   115    14    13   ar
   116    22    23    1
   117    10     9   ar
   118    10     8   ar
   119     9     7   ar
   120    13    11   ar
   121    30    28   ar
   122    30    32   ar
   123    28    27   ar
   124    23    24    1
   125    23    26    1
   126     8    11   ar
   127     8     6   ar
   128     7     6   ar
   129    33    32    1
   130    24    25    2
   131    32    31   ar
   132     6     5    1
   133    27    26    1
   134    27    29   ar
   135    31    29   ar
   136     5     2    1
   137     2     3    1
   138     2     1    1
   139     3     4    2
