@<TRIPOS>MOLECULE
tmp/4ys2A00.pdb
 86 86 0 0 0
SMALL
GASTEIGER

@<TRIPOS>ATOM
      1  N         -5.4560  -10.2080  -13.1450 N.3    17  LEU17      -0.1231
      2  CA        -5.5340   -9.7530  -11.7620 C.3    17  LEU17       0.1693
      3  C         -6.4100  -10.6420  -10.9010 C.2    17  LEU17       0.2591
      4  O         -6.1680  -10.7830   -9.7040 O.2    17  LEU17      -0.2718
      5  CB        -6.0420   -8.3190  -11.6830 C.3    17  LEU17       0.0284
      6  CG        -4.9490   -7.2980  -11.9910 C.3    17  LEU17       0.0019
      7  CD1       -5.3860   -5.9010  -11.5690 C.3    17  LEU17       0.0001
      8  CD2       -3.6250   -7.6960  -11.3330 C.3    17  LEU17       0.0001
      9  N         -7.4210  -11.2540  -11.5080 N.am   18  ARG18      -0.1980
     10  CA        -8.3450  -12.0820  -10.7500 C.3    18  ARG18       0.1597
     11  C         -7.7050  -13.3840  -10.2630 C.2    18  ARG18       0.2287
     12  O         -8.2980  -14.1150   -9.4660 O.2    18  ARG18      -0.2864
     13  CB        -9.5980  -12.3940  -11.5680 C.3    18  ARG18       0.0334
     14  CG        -9.3490  -13.2940  -12.7780 C.3    18  ARG18       0.0492
     15  CD       -10.6630  -13.5380  -13.5120 C.3    18  ARG18       0.2205
     16  NE       -11.4710  -12.3210  -13.4810 N.pl3  18  ARG18      -0.0865
     17  CZ       -12.4230  -12.0060  -14.3550 C.cat  18  ARG18       0.5346
     18  NH1      -12.7160  -12.8230  -15.3620 N.pl3  18  ARG18       0.1354
     19  NH2      -13.0820  -10.8590  -14.2130 N.pl3  18  ARG18       0.1354
     20  N         -1.8720  -11.8890   -4.2560 N.3    22  PHE22      -0.1241
     21  CA        -1.7740  -10.6780   -3.4480 C.3    22  PHE22       0.1605
     22  C         -1.2070  -10.9630   -2.0560 C.2    22  PHE22       0.2264
     23  O         -1.6820  -11.8570   -1.3570 O.2    22  PHE22      -0.2867
     24  CB        -3.1350   -9.9930   -3.3570 C.3    22  PHE22       0.0534
     25  CG        -3.6520   -9.5030   -4.6780 C.ar   22  PHE22      -0.0203
     26  CD1       -3.2050   -8.3040   -5.2070 C.ar   22  PHE22      -0.0042
     27  CD2       -4.5810  -10.2410   -5.3940 C.ar   22  PHE22      -0.0042
     28  CE1       -3.6750   -7.8480   -6.4230 C.ar   22  PHE22      -0.0003
     29  CE2       -5.0550   -9.7890   -6.6110 C.ar   22  PHE22      -0.0003
     30  CZ        -4.6010   -8.5910   -7.1260 C.ar   22  PHE22      -0.0000
     31  N         -3.2100   -5.7630   -1.6650 N.3    26  ILE26      -0.1231
     32  CA        -2.8810   -4.6140   -2.4590 C.3    26  ILE26       0.1692
     33  C         -3.9950   -4.3660   -3.4670 C.2    26  ILE26       0.2592
     34  O         -4.7250   -5.2830   -3.8510 O.2    26  ILE26      -0.2718
     35  CB        -1.5100   -4.8170   -3.1540 C.3    26  ILE26       0.0266
     36  CG1       -1.5390   -4.2990   -4.5830 C.3    26  ILE26       0.0019
     37  CG2       -1.1250   -6.2720   -3.1640 C.3    26  ILE26       0.0020
     38  CD1       -0.3380   -4.6180   -5.3360 C.3    26  ILE26       0.0001
     39  N         -4.1410   -3.1130   -3.8650 N.am   27  ILE27      -0.1966
     40  CA        -4.9830   -2.7490   -4.9930 C.3    27  ILE27       0.1727
     41  C         -4.0620   -2.2230   -6.0880 C.2    27  ILE27       0.2616
     42  O         -3.1170   -1.4780   -5.8180 O.2    27  ILE27      -0.2715
     43  CB        -6.0060   -1.6580   -4.5770 C.3    27  ILE27       0.0290
     44  CG1       -7.1960   -2.2860   -3.8510 C.3    27  ILE27       0.0022
     45  CG2       -6.5050   -0.8690   -5.7910 C.3    27  ILE27       0.0023
     46  CD1       -8.0750   -3.1310   -4.7510 C.3    27  ILE27       0.0001
     47  N         -4.3160   -2.6380   -7.3230 N.am   28  PHE28      -0.1974
     48  CA        -3.6840   -2.0140   -8.4640 C.3    28  PHE28       0.1639
     49  C         -4.5070   -0.7980   -8.8690 C.2    28  PHE28       0.2290
     50  O         -5.6670   -0.9160   -9.3260 O.2    28  PHE28      -0.2864
     51  CB        -3.5980   -3.0170   -9.6030 C.3    28  PHE28       0.0560
     52  CG        -2.4840   -4.0240   -9.4440 C.ar   28  PHE28      -0.0200
     53  CD1       -1.4360   -4.0520  -10.3480 C.ar   28  PHE28      -0.0042
     54  CD2       -2.4870   -4.9350   -8.4160 C.ar   28  PHE28      -0.0042
     55  CE1       -0.4150   -4.9680  -10.2280 C.ar   28  PHE28      -0.0003
     56  CE2       -1.4610   -5.8560   -8.2880 C.ar   28  PHE28      -0.0003
     57  CZ        -0.4250   -5.8660   -9.1920 C.ar   28  PHE28      -0.0000
     58  N         -7.4430   -0.8130  -13.5240 N.3    40  PRO40      -0.2102
     59  CA        -7.2930   -2.2680  -13.5740 C.3    40  PRO40       0.1504
     60  C         -8.4950   -2.9940  -12.9940 C.2    40  PRO40       0.2576
     61  O         -8.9980   -2.5880  -11.9390 O.2    40  PRO40      -0.2718
     62  CB        -6.0560   -2.5140  -12.6960 C.3    40  PRO40       0.0282
     63  CG        -5.3590   -1.1980  -12.6290 C.3    40  PRO40       0.0208
     64  CD        -6.4640   -0.1960  -12.6200 C.3    40  PRO40       0.0893
     65  N         -8.9160   -4.0680  -13.6580 N.am   41  HIS41      -0.1962
     66  CA       -10.0020   -4.9040  -13.1510 C.3    41  HIS41       0.1787
     67  C         -9.6340   -6.3870  -13.1720 C.2    41  HIS41       0.2621
     68  O         -8.5290   -6.7470  -13.5880 O.2    41  HIS41      -0.2715
     69  CB       -11.2940   -4.6270  -13.9380 C.3    41  HIS41       0.0785
     70  CG       -11.7540   -3.2080  -13.8260 C.ar   41  HIS41       0.0821
     71  ND1      -12.1050   -2.6300  -12.6250 N.ar   41  HIS41      -0.2267
     72  CD2      -11.9050   -2.2400  -14.7630 C.ar   41  HIS41       0.1154
     73  CE1      -12.4630   -1.3790  -12.8230 C.ar   41  HIS41       0.1986
     74  NE2      -12.3470   -1.1150  -14.1140 N.ar   41  HIS41      -0.2212
     75  N        -10.5500   -7.2410  -12.7230 N.am   42  GLY42      -0.1940
     76  CA       -10.3140   -8.6850  -12.7100 C.3    42  GLY42       0.2014
     77  C         -9.6880   -9.3240  -13.9570 C.2    42  GLY42       0.2638
     78  O         -8.8230  -10.1920  -13.8410 O.2    42  GLY42      -0.2714
     79  N        -10.1410   -8.9100  -15.1430 N.am   43  ASP43      -0.1971
     80  CA        -9.6910   -9.4900  -16.4100 C.3    43  ASP43       0.1709
     81  C         -8.4820   -8.7990  -17.0380 C.2    43  ASP43       0.2293
     82  O         -7.9350   -9.2770  -18.0410 O.2    43  ASP43      -0.2864
     83  CB       -10.8400   -9.5560  -17.4110 C.3    43  ASP43       0.1436
     84  CG       -11.3880   -8.1840  -17.7670 C.2    43  ASP43       0.3671
     85  OD1      -10.9190   -7.1800  -17.1900 O.co2  43  ASP43      -0.2456
     86  OD2      -12.3070   -8.1110  -18.6130 O.co2  43  ASP43      -0.2456
@<TRIPOS>BOND
     1    86    84   ar
     2    82    81    2
     3    84    83    1
     4    84    85   ar
     5    83    80    1
     6    81    80    1
     7    80    79    1
     8    18    17    1
     9    79    77   am
    10    72    74   ar
    11    72    70   ar
    12    17    19    1
    13    17    16    2
    14    74    73   ar
    15    77    78    2
    16    77    76    1
    17    69    70    1
    18    69    66    1
    19    70    71   ar
    20    65    66    1
    21    65    60   am
    22    68    67    2
    23    59    58    1
    24    59    60    1
    25    59    62    1
    26    58    64    1
    27    15    16    1
    28    15    14    1
    29    67    66    1
    30    67    75   am
    31     1     2    1
    32    60    61    2
    33    73    71   ar
    34    14    13    1
    35    75    76    1
    36    62    63    1
    37    63    64    1
    38     6     5    1
    39     6     7    1
    40     6     8    1
    41     2     5    1
    42     2     3    1
    43    13    10    1
    44     9     3   am
    45     9    10    1
    46     3     4    2
    47    10    11    1
    48    53    55   ar
    49    53    52   ar
    50    11    12    2
    51    55    57   ar
    52    51    52    1
    53    51    48    1
    54    52    54   ar
    55    50    49    2
    56    57    56   ar
    57    49    48    1
    58    48    47    1
    59    54    56   ar
    60    47    41   am
    61    30    29   ar
    62    30    28   ar
    63    29    27   ar
    64    28    26   ar
    65    41    42    2
    66    41    40    1
    67    45    43    1
    68    27    25   ar
    69    38    36    1
    70    26    25   ar
    71    40    43    1
    72    40    39    1
    73    46    44    1
    74    25    24    1
    75    36    35    1
    76    43    44    1
    77    20    21    1
    78    39    33   am
    79    34    33    2
    80    33    32    1
    81    21    24    1
    82    21    22    1
    83    37    35    1
    84    35    32    1
    85    32    31    1
    86    22    23    2
