@<TRIPOS>MOLECULE
tmp/4ys6A00.pdb
 127 122 0 0 0
SMALL
GASTEIGER

@<TRIPOS>ATOM
      1  N        -18.5010   44.5790   16.3510 N.3    11  LEU11      -0.1245
      2  CA       -18.5120   43.6020   15.2770 C.3    11  LEU11       0.1561
      3  C        -18.6280   44.4320   14.0030 C.2    11  LEU11       0.2260
      4  O        -19.5290   45.2570   13.8750 O.2    11  LEU11      -0.2867
      5  CB       -19.6680   42.6280   15.4420 C.3    11  LEU11       0.0270
      6  CG       -19.5670   41.7010   16.6570 C.3    11  LEU11       0.0019
      7  CD1      -20.8660   41.0230   16.9550 C.3    11  LEU11       0.0001
      8  CD2      -18.4900   40.6670   16.4420 C.3    11  LEU11       0.0001
      9  N        -19.3160   44.7220   10.7030 N.3    13  ARG13      -0.1231
     10  CA       -20.2630   45.0010    9.6340 C.3    13  ARG13       0.1694
     11  C        -21.3490   46.0030   10.0380 C.2    13  ARG13       0.2592
     12  O        -21.7940   46.8040    9.2030 O.2    13  ARG13      -0.2718
     13  CB       -20.9280   43.7070    9.1060 C.3    13  ARG13       0.0321
     14  CG       -21.7880   42.9690   10.0760 C.3    13  ARG13       0.0489
     15  CD       -22.6900   41.9760    9.3600 C.3    13  ARG13       0.2205
     16  NE       -23.7700   42.6420    8.6330 N.pl3  13  ARG13      -0.0865
     17  CZ       -24.7810   41.9910    8.0540 C.cat  13  ARG13       0.5346
     18  NH1      -24.8150   40.6700    8.0480 N.pl3  13  ARG13       0.1354
     19  NH2      -25.7600   42.6550    7.4460 N.pl3  13  ARG13       0.1354
     20  N        -21.7520   45.9990   11.2990 N.am   14  TRP14      -0.1976
     21  CA       -22.9130   46.7980   11.7330 C.3    14  TRP14       0.1640
     22  C        -22.6160   48.2740   11.6560 C.2    14  TRP14       0.2290
     23  O        -23.5370   49.0790   11.5520 O.2    14  TRP14      -0.2864
     24  CB       -23.3640   46.4050   13.1450 C.3    14  TRP14       0.0576
     25  CG       -23.5530   44.9340   13.2360 C.ar   14  TRP14       0.0006
     26  CD1      -22.7350   44.0540   13.8770 C.ar   14  TRP14       0.0946
     27  CD2      -24.5760   44.1370   12.6060 C.ar   14  TRP14       0.0152
     28  NE1      -23.1720   42.7720   13.6960 N.ar   14  TRP14      -0.2442
     29  CE2      -24.2870   42.7910   12.9020 C.ar   14  TRP14       0.0810
     30  CE3      -25.6940   44.4320   11.8150 C.ar   14  TRP14       0.0012
     31  CZ2      -25.0940   41.7430   12.4600 C.ar   14  TRP14       0.0191
     32  CZ3      -26.4750   43.3790   11.3610 C.ar   14  TRP14       0.0001
     33  CH2      -26.1760   42.0590   11.6870 C.ar   14  TRP14       0.0015
     34  N        -31.4180   41.6820    8.9770 N.3    85  ASP85      -0.1225
     35  CA       -30.3940   40.6390    8.9050 C.3    85  ASP85       0.1805
     36  C        -30.6540   39.4220    9.7810 C.2    85  ASP85       0.2597
     37  O        -30.5440   38.2840    9.2830 O.2    85  ASP85      -0.2718
     38  CB       -29.0110   41.1730    9.2210 C.3    85  ASP85       0.1424
     39  CG       -27.9420   40.1930    8.8060 C.2    85  ASP85       0.3668
     40  OD1      -27.5300   40.1980    7.6140 O.co2  85  ASP85      -0.2456
     41  OD2      -27.5840   39.3440    9.6430 O.co2  85  ASP85      -0.2456
     42  N        -30.9710   39.6590   11.0510 N.am   86  ARG86      -0.1979
     43  CA       -31.3270   38.6160   12.0110 C.3    86  ARG86       0.1597
     44  C        -32.8210   38.5710   12.2310 C.2    86  ARG86       0.2287
     45  O        -33.4600   39.6070   12.3590 O.2    86  ARG86      -0.2864
     46  CB       -30.6480   38.8770   13.3500 C.3    86  ARG86       0.0334
     47  CG       -29.1250   38.9240   13.2260 C.3    86  ARG86       0.0492
     48  CD       -28.5230   39.5090   14.4820 C.3    86  ARG86       0.2205
     49  NE       -27.0550   39.3900   14.4800 N.pl3  86  ARG86      -0.0865
     50  CZ       -26.2690   39.7960   15.4770 C.cat  86  ARG86       0.5346
     51  NH1      -26.7800   40.3850   16.5390 N.pl3  86  ARG86       0.1354
     52  NH2      -24.9590   39.6120   15.4130 N.pl3  86  ARG86       0.1354
     53  N        -28.7680   34.2180   18.2130 N.3   135  ASP135     -0.1239
     54  CA       -28.8540   34.7140   16.8270 C.3   135  ASP135      0.1674
     55  C        -29.3820   33.6120   15.9200 C.2   135  ASP135      0.2266
     56  O        -28.6970   32.6250   15.6730 O.2   135  ASP135     -0.2867
     57  CB       -27.4730   35.1680   16.3750 C.3   135  ASP135      0.1410
     58  CG       -27.4430   35.7360   14.9720 C.2   135  ASP135      0.3668
     59  OD1      -28.4680   35.7060   14.2720 O.co2 135  ASP135     -0.2456
     60  OD2      -26.3500   36.2080   14.5510 O.co2 135  ASP135     -0.2456
     61  N        -29.6340   33.4600   12.8900 N.3   137  ASN137     -0.1240
     62  CA       -28.7580   33.2060   11.7550 C.3   137  ASN137      0.1653
     63  C        -27.7190   32.1280   11.9930 C.2   137  ASN137      0.2266
     64  O        -27.3460   31.4100   11.0580 O.2   137  ASN137     -0.2867
     65  CB       -28.0150   34.4490   11.3230 C.3   137  ASN137      0.1155
     66  CG       -28.9260   35.5190   10.7590 C.2   137  ASN137      0.2627
     67  OD1      -30.1280   35.3270   10.5690 O.2   137  ASN137     -0.2716
     68  ND2      -28.3350   36.6410   10.4430 N.am  137  ASN137     -0.0877
     69  N        -26.4350   29.2080    9.4500 N.3   141  PHE141     -0.1241
     70  CA       -25.0630   29.0280    8.9650 C.3   141  PHE141      0.1605
     71  C        -24.5750   27.6080    9.3250 C.2   141  PHE141      0.2264
     72  O        -23.9630   26.9130    8.5200 O.2   141  PHE141     -0.2867
     73  CB       -24.1050   30.0550    9.5710 C.3   141  PHE141      0.0534
     74  CG       -24.4760   31.4990    9.3190 C.ar  141  PHE141     -0.0203
     75  CD1      -24.9920   31.9200    8.1040 C.ar  141  PHE141     -0.0042
     76  CD2      -24.2870   32.4370   10.3200 C.ar  141  PHE141     -0.0042
     77  CE1      -25.3140   33.2330    7.9040 C.ar  141  PHE141     -0.0003
     78  CE2      -24.6150   33.7530   10.1270 C.ar  141  PHE141     -0.0003
     79  CZ       -25.1090   34.1570    8.9070 C.ar  141  PHE141     -0.0000
     80  N        -20.6290   36.1820   19.3390 N.3   174  TRP174     -0.1241
     81  CA       -19.7940   36.1420   18.1490 C.3   174  TRP174      0.1605
     82  C        -18.3790   36.6680   18.4520 C.2   174  TRP174      0.2264
     83  O        -17.6720   37.1970   17.5610 O.2   174  TRP174     -0.2867
     84  CB       -20.4160   36.9580   17.0250 C.3   174  TRP174      0.0550
     85  CG       -21.6760   36.4140   16.3970 C.ar  174  TRP174      0.0003
     86  CD1      -22.9710   36.7580   16.6700 C.ar  174  TRP174      0.0946
     87  CD2      -21.7350   35.4720   15.3200 C.ar  174  TRP174      0.0152
     88  NE1      -23.8190   36.0960   15.8180 N.ar  174  TRP174     -0.2442
     89  CE2      -23.0870   35.2870   14.9950 C.ar  174  TRP174      0.0810
     90  CE3      -20.7640   34.7590   14.6020 C.ar  174  TRP174      0.0012
     91  CZ2      -23.4960   34.4250   13.9640 C.ar  174  TRP174      0.0191
     92  CZ3      -21.1770   33.9040   13.5940 C.ar  174  TRP174      0.0001
     93  CH2      -22.5180   33.7560   13.2800 C.ar  174  TRP174      0.0015
     94  N        -18.2240   32.7840   10.7020 N.3   203  ASN203     -0.1240
     95  CA       -18.0220   34.1550   10.2620 C.3   203  ASN203      0.1653
     96  C        -16.6140   34.6400   10.5060 C.2   203  ASN203      0.2266
     97  O        -15.7680   33.9290   11.0290 O.2   203  ASN203     -0.2867
     98  CB       -19.0230   35.1050   10.9410 C.3   203  ASN203      0.1155
     99  CG       -18.5730   35.5420   12.3240 C.2   203  ASN203      0.2627
    100  OD1      -17.8730   34.8040   13.0360 O.2   203  ASN203     -0.2716
    101  ND2      -18.9300   36.7730   12.7040 N.am  203  ASN203     -0.0877
    102  N        -16.9790   34.6830    6.9900 N.3   228  GLN228     -0.1231
    103  CA       -18.0420   35.4350    6.3610 C.3   228  GLN228      0.1698
    104  C        -17.9730   36.9030    6.8150 C.2   228  GLN228      0.2592
    105  O        -17.7590   37.1680    8.0000 O.2   228  GLN228     -0.2718
    106  CB       -19.3840   34.7970    6.7120 C.3   228  GLN228      0.0381
    107  CG       -20.5590   35.6250    6.4350 C.3   228  GLN228      0.0905
    108  CD       -21.8610   35.0380    6.9880 C.2   228  GLN228      0.2608
    109  OE1      -22.9060   35.3530    6.4750 O.2   228  GLN228     -0.2717
    110  NE2      -21.7940   34.1650    8.0250 N.am  228  GLN228     -0.0878
    111  N        -18.1810   37.8070    5.8540 N.am  229  ASP229     -0.1974
    112  CA       -18.3870   39.2670    6.0030 C.3   229  ASP229      0.1709
    113  C        -17.2900   40.0850    5.3080 C.2   229  ASP229      0.2293
    114  O        -17.4760   41.2850    5.0640 O.2   229  ASP229     -0.2864
    115  CB       -18.4150   39.7840    7.4590 C.3   229  ASP229      0.1436
    116  CG       -19.6320   39.3440    8.2460 C.2   229  ASP229      0.3671
    117  OD1      -20.5810   38.7610    7.6800 O.co2 229  ASP229     -0.2456
    118  OD2      -19.6350   39.6550    9.4660 O.co2 229  ASP229     -0.2456
    119  N        -21.0250   39.9050    1.7390 N.3   247  LYS247     -0.1245
    120  CA       -22.4010   40.3130    1.8530 C.3   247  LYS247      0.1561
    121  C        -22.4310   41.8500    1.7870 C.2   247  LYS247      0.2260
    122  O        -22.0150   42.5560    2.7090 O.2   247  LYS247     -0.2867
    123  CB       -23.0130   39.7800    3.1590 C.3   247  LYS247      0.0271
    124  CG       -22.8480   38.2660    3.3290 C.3   247  LYS247      0.0035
    125  CD       -23.7550   37.6640    4.3760 C.3   247  LYS247      0.0206
    126  CE       -23.5410   38.2260    5.7740 C.3   247  LYS247      0.1093
    127  NZ       -24.3380   37.3860    6.7210 N.3   247  LYS247     -0.1314
@<TRIPOS>BOND
     1   119   120    1
     2   121   120    1
     3   121   122    2
     4   120   123    1
     5   123   124    1
     6   124   125    1
     7   125   126    1
     8   114   113    2
     9   113   112    1
    10   126   127    1
    11   111   112    1
    12   111   104   am
    13   112   115    1
    14   103   106    1
    15   103   104    1
    16   103   102    1
    17   107   106    1
    18   107   108    1
    19   109   108    2
    20   104   105    2
    21   108   110   am
    22    19    17    1
    23   115   116    1
    24    40    39   ar
    25   117   116   ar
    26    77    75   ar
    27    77    79   ar
    28    18    17    1
    29    17    16    2
    30    75    74   ar
    31   116   118   ar
    32    72    71    2
    33    16    15    1
    34    39    38    1
    35    39    41   ar
    36    35    34    1
    37    35    38    1
    38    35    36    1
    39    79    78   ar
    40    70    71    1
    41    70    69    1
    42    70    73    1
    43    13    10    1
    44    13    14    1
    45    12    11    2
    46    37    36    2
    47    74    73    1
    48    74    76   ar
    49    15    14    1
    50    10    11    1
    51    10     9    1
    52    36    42   am
    53    11    20   am
    54    78    76   ar
    55    95    96    1
    56    95    94    1
    57    95    98    1
    58    68    66   am
    59    96    97    2
    60    67    66    2
    61    66    65    1
    62    98    99    1
    63    42    43    1
    64    64    63    2
    65    20    21    1
    66    65    62    1
    67    32    33   ar
    68    32    30   ar
    69    23    22    2
    70    22    21    1
    71    33    31   ar
    72    21    24    1
    73    62    63    1
    74    62    61    1
    75    30    27   ar
    76    43    44    1
    77    43    46    1
    78    44    45    2
    79    99   101   am
    80    99   100    2
    81    31    29   ar
    82    27    29   ar
    83    27    25   ar
    84    29    28   ar
    85    24    25    1
    86    47    46    1
    87    47    48    1
    88    25    26   ar
    89    93    92   ar
    90    93    91   ar
    91    92    90   ar
    92    28    26   ar
    93     4     3    2
    94    91    89   ar
    95     3     2    1
    96    59    58   ar
    97    49    48    1
    98    49    50    2
    99    60    58   ar
   100    90    87   ar
   101    58    57    1
   102    89    87   ar
   103    89    88   ar
   104     2     5    1
   105     2     1    1
   106    87    85   ar
   107    52    50    1
   108     5     6    1
   109    50    51    1
   110    56    55    2
   111    88    86   ar
   112    55    54    1
   113    57    54    1
   114    85    86   ar
   115    85    84    1
   116     8     6    1
   117     6     7    1
   118    54    53    1
   119    84    81    1
   120    83    82    2
   121    81    82    1
   122    81    80    1
