@<TRIPOS>MOLECULE
tmp/4ys7A00.pdb
 196 191 0 0 0
SMALL
GASTEIGER

@<TRIPOS>ATOM
      1  N         10.5830  -25.1750   30.6590 N.3    77  TYR77      -0.1227
      2  CA        11.8440  -25.7260   30.1480 C.3    77  TYR77       0.1736
      3  C         11.7050  -27.0860   29.4910 C.2    77  TYR77       0.2595
      4  O         12.2920  -27.3300   28.4420 O.2    77  TYR77      -0.2718
      5  CB        12.9390  -25.7660   31.2180 C.3    77  TYR77       0.0548
      6  CG        14.1880  -26.5400   30.8070 C.ar   77  TYR77      -0.0200
      7  CD1       15.0800  -26.0370   29.8100 C.ar   77  TYR77      -0.0009
      8  CD2       14.4950  -27.7560   31.4180 C.ar   77  TYR77      -0.0009
      9  CE1       16.2220  -26.7450   29.4330 C.ar   77  TYR77       0.0417
     10  CE2       15.6360  -28.4650   31.0560 C.ar   77  TYR77       0.0417
     11  CZ        16.5030  -27.9620   30.0620 C.ar   77  TYR77       0.1957
     12  OH        17.6410  -28.6930   29.7340 O.3    77  TYR77      -0.2866
     13  N         10.9390  -27.9570   30.1230 N.am   78  HIS78      -0.1975
     14  CA        10.8500  -29.3350   29.7050 C.3    78  HIS78       0.1656
     15  C          9.7540  -29.5560   28.6640 C.2    78  HIS78       0.2291
     16  O          8.8010  -30.3120   28.9000 O.2    78  HIS78      -0.2864
     17  CB        10.5900  -30.1910   30.9230 C.3    78  HIS78       0.0771
     18  CG        11.7950  -30.4000   31.7760 C.ar   78  HIS78       0.0820
     19  ND1       12.0710  -29.6250   32.8790 N.ar   78  HIS78      -0.2267
     20  CD2       12.7880  -31.3150   31.7010 C.ar   78  HIS78       0.1154
     21  CE1       13.1840  -30.0480   33.4520 C.ar   78  HIS78       0.1986
     22  NE2       13.6390  -31.0750   32.7570 N.ar   78  HIS78      -0.2212
     23  N         19.1230  -37.5650   36.4270 N.3   188  LEU188     -0.1245
     24  CA        20.3990  -36.9470   36.6660 C.3   188  LEU188      0.1561
     25  C         21.0090  -37.4630   37.9430 C.2   188  LEU188      0.2260
     26  O         22.2310  -37.4830   38.1030 O.2   188  LEU188     -0.2867
     27  CB        20.2000  -35.4400   36.7500 C.3   188  LEU188      0.0270
     28  CG        21.3320  -34.4680   36.4010 C.3   188  LEU188      0.0019
     29  CD1       22.3130  -34.9730   35.3290 C.3   188  LEU188      0.0001
     30  CD2       20.6680  -33.1500   35.9770 C.3   188  LEU188      0.0001
     31  N         21.7570  -32.0050   28.8170 N.3   228  LEU228     -0.1245
     32  CA        22.3450  -30.7160   29.2110 C.3   228  LEU228      0.1561
     33  C         22.9310  -29.7920   28.1000 C.2   228  LEU228      0.2260
     34  O         23.5090  -28.7380   28.4280 O.2   228  LEU228     -0.2867
     35  CB        23.4910  -30.9930   30.1950 C.3   228  LEU228      0.0270
     36  CG        23.2910  -31.8990   31.3980 C.3   228  LEU228      0.0019
     37  CD1       24.5160  -31.8140   32.2070 C.3   228  LEU228      0.0001
     38  CD2       22.0980  -31.4900   32.2190 C.3   228  LEU228      0.0001
     39  N         22.2650  -27.4970   26.2440 N.3   230  SER230     -0.1202
     40  CA        22.0160  -26.0890   26.1440 C.3   230  SER230      0.2020
     41  C         23.2290  -25.3080   26.6470 C.2   230  SER230      0.2618
     42  O         23.4350  -24.1540   26.2430 O.2   230  SER230     -0.2717
     43  CB        20.7920  -25.7240   26.9450 C.3   230  SER230      0.2103
     44  OG        21.1550  -25.3340   28.2400 O.3   230  SER230     -0.2182
     45  N         24.0340  -25.9260   27.5140 N.am  231  VAL231     -0.1979
     46  CA        25.2820  -25.3140   27.9960 C.3   231  VAL231      0.1595
     47  C         26.3770  -25.4070   26.9330 C.2   231  VAL231      0.2287
     48  O         27.4730  -24.8750   27.1240 O.2   231  VAL231     -0.2864
     49  CB        25.8230  -25.9800   29.3080 C.3   231  VAL231      0.0276
     50  CG1       24.7770  -25.9340   30.4580 C.3   231  VAL231      0.0022
     51  CG2       26.3400  -27.3990   29.0420 C.3   231  VAL231      0.0022
     52  N         22.6030  -19.9740   25.6610 N.3   238  THR238     -0.1218
     53  CA        22.7760  -20.5800   26.9520 C.3   238  THR238      0.1862
     54  C         22.0660  -19.7530   28.0450 C.2   238  THR238      0.2287
     55  O         21.2960  -20.3150   28.8380 O.2   238  THR238     -0.2866
     56  CB        24.2500  -20.7350   27.2990 C.3   238  THR238      0.1770
     57  OG1       24.9220  -21.3510   26.1960 O.3   238  THR238     -0.2211
     58  CG2       24.4270  -21.5840   28.5650 C.3   238  THR238      0.0375
     59  N         18.8220  -20.7000   30.3380 N.3   242  ALA242     -0.1245
     60  CA        18.9640  -20.6840   31.7820 C.3   242  ALA242      0.1562
     61  C         17.7180  -20.0120   32.3760 C.2   242  ALA242      0.2260
     62  O         17.1390  -20.5150   33.3370 O.2   242  ALA242     -0.2867
     63  CB        20.2570  -19.9670   32.2070 C.3   242  ALA242      0.0290
     64  N         15.0390  -22.5800   32.5320 N.3   245  ILE245     -0.1231
     65  CA        15.2810  -23.5920   33.5580 C.3   245  ILE245      0.1692
     66  C         14.8150  -23.0210   34.8870 C.2   245  ILE245      0.2592
     67  O         14.0920  -23.6810   35.6460 O.2   245  ILE245     -0.2718
     68  CB        16.7710  -23.9820   33.6530 C.3   245  ILE245      0.0266
     69  CG1       17.2020  -24.6840   32.3710 C.3   245  ILE245      0.0019
     70  CG2       17.0220  -24.9040   34.8540 C.3   245  ILE245      0.0020
     71  CD1       18.5990  -25.2220   32.4030 C.3   245  ILE245      0.0001
     72  N         15.2190  -21.7850   35.1660 N.am  246  TYR246     -0.1976
     73  CA        14.8810  -21.1930   36.4460 C.3   246  TYR246      0.1639
     74  C         13.3760  -20.8930   36.5650 C.2   246  TYR246      0.2290
     75  O         12.7550  -21.2100   37.5860 O.2   246  TYR246     -0.2864
     76  CB        15.7810  -19.9860   36.7670 C.3   246  TYR246      0.0560
     77  CG        17.1740  -20.4150   37.2120 C.ar  246  TYR246     -0.0198
     78  CD1       18.2770  -20.2430   36.3860 C.ar  246  TYR246     -0.0009
     79  CD2       17.3790  -21.0290   38.4330 C.ar  246  TYR246     -0.0009
     80  CE1       19.5610  -20.6810   36.7810 C.ar  246  TYR246      0.0417
     81  CE2       18.6330  -21.4370   38.8280 C.ar  246  TYR246      0.0417
     82  CZ        19.7270  -21.2610   37.9920 C.ar  246  TYR246      0.1957
     83  OH        20.9910  -21.6420   38.4010 O.3   246  TYR246     -0.2866
     84  N         11.9900  -24.2100   37.8090 N.3   249  PHE249     -0.1227
     85  CA        12.3430  -24.4470   39.1880 C.3   249  PHE249      0.1736
     86  C         11.5390  -23.5490   40.1320 C.2   249  PHE249      0.2595
     87  O         10.8840  -24.0540   41.0340 O.2   249  PHE249     -0.2718
     88  CB        13.8270  -24.1830   39.3940 C.3   249  PHE249      0.0547
     89  CG        14.7210  -25.2000   38.7540 C.ar  249  PHE249     -0.0202
     90  CD1       14.2230  -26.4140   38.3550 C.ar  249  PHE249     -0.0042
     91  CD2       16.0740  -24.9360   38.5960 C.ar  249  PHE249     -0.0042
     92  CE1       15.0360  -27.3660   37.7930 C.ar  249  PHE249     -0.0003
     93  CE2       16.9310  -25.8840   38.0180 C.ar  249  PHE249     -0.0003
     94  CZ        16.4150  -27.1090   37.6220 C.ar  249  PHE249     -0.0000
     95  N         11.5770  -22.2260   39.8970 N.am  250  TRP250     -0.1976
     96  CA        10.9540  -21.2360   40.8090 C.3   250  TRP250      0.1640
     97  C          9.4400  -21.4110   40.8980 C.2   250  TRP250      0.2290
     98  O          8.8410  -21.1940   41.9550 O.2   250  TRP250     -0.2864
     99  CB        11.2960  -19.7750   40.4250 C.3   250  TRP250      0.0576
    100  CG        12.7740  -19.4450   40.4580 C.ar  250  TRP250      0.0006
    101  CD1       13.7140  -19.9920   41.2840 C.ar  250  TRP250      0.0946
    102  CD2       13.4660  -18.4840   39.6430 C.ar  250  TRP250      0.0152
    103  NE1       14.9510  -19.4530   41.0250 N.ar  250  TRP250     -0.2442
    104  CE2       14.8350  -18.5230   40.0240 C.ar  250  TRP250      0.0810
    105  CE3       13.0640  -17.5940   38.6280 C.ar  250  TRP250      0.0012
    106  CZ2       15.8210  -17.6930   39.4310 C.ar  250  TRP250      0.0191
    107  CZ3       14.0430  -16.7810   38.0180 C.ar  250  TRP250      0.0001
    108  CH2       15.4060  -16.8280   38.4380 C.ar  250  TRP250      0.0015
    109  N         17.5720  -23.4360   47.6690 N.3   265  PRO265     -0.2102
    110  CA        17.9020  -22.2040   46.9660 C.3   265  PRO265      0.1504
    111  C         17.6240  -22.2140   45.4450 C.2   265  PRO265      0.2575
    112  O         16.9600  -21.3090   44.9330 O.2   265  PRO265     -0.2718
    113  CB        19.3820  -22.0470   47.2740 C.3   265  PRO265      0.0282
    114  CG        19.4780  -22.5200   48.6590 C.3   265  PRO265      0.0208
    115  CD        18.5070  -23.6740   48.7780 C.3   265  PRO265      0.0893
    116  N         18.0940  -23.2490   44.7580 N.am  266  MET266     -0.1980
    117  CA        17.8650  -23.4430   43.3260 C.3   266  MET266      0.1605
    118  C         16.4110  -23.2280   42.9080 C.2   266  MET266      0.2287
    119  O         16.1380  -22.7710   41.8050 O.2   266  MET266     -0.2864
    120  CB        18.3080  -24.8600   42.9530 C.3   266  MET266      0.0413
    121  CG        18.1270  -25.2350   41.5230 C.3   266  MET266      0.0598
    122  SD        19.0680  -26.7130   41.1390 S.3   266  MET266     -0.1393
    123  CE        17.9240  -28.0150   41.5980 C.3   266  MET266      0.0692
    124  N         14.1720  -21.3470   44.6670 N.3   268  ASP268     -0.1239
    125  CA        13.6580  -20.2080   45.4110 C.3   268  ASP268      0.1674
    126  C         14.0190  -18.9460   44.6560 C.2   268  ASP268      0.2266
    127  O         15.1970  -18.5610   44.6230 O.2   268  ASP268     -0.2867
    128  CB        14.3150  -20.1740   46.7940 C.3   268  ASP268      0.1410
    129  CG        13.7240  -19.1140   47.7180 C.2   268  ASP268      0.3668
    130  OD1       13.1430  -18.1120   47.2540 O.co2 268  ASP268     -0.2456
    131  OD2       13.8630  -19.2860   48.9490 O.co2 268  ASP268     -0.2456
    132  N         16.2500  -16.1700   45.7050 N.3   271  LYS271     -0.1245
    133  CA        17.7050  -16.3180   45.7900 C.3   271  LYS271      0.1561
    134  C         18.4910  -16.0660   44.5000 C.2   271  LYS271      0.2260
    135  O         19.6720  -16.3750   44.4360 O.2   271  LYS271     -0.2867
    136  CB        18.0970  -17.6200   46.4970 C.3   271  LYS271      0.0271
    137  CG        17.5860  -17.6680   47.9570 C.3   271  LYS271      0.0035
    138  CD        18.4720  -18.5570   48.8530 C.3   271  LYS271      0.0206
    139  CE        18.0830  -18.4840   50.3520 C.3   271  LYS271      0.1093
    140  NZ        18.8780  -19.4400   51.2460 N.3   271  LYS271     -0.1314
    141  N         22.3960  -15.6530   43.7360 N.3   274  GLU274     -0.1231
    142  CA        23.3550  -16.7230   43.6540 C.3   274  GLU274      0.1699
    143  C         23.2450  -17.5100   42.3320 C.2   274  GLU274      0.2592
    144  O         23.9260  -18.5100   42.1730 O.2   274  GLU274     -0.2718
    145  CB        23.2720  -17.6140   44.8980 C.3   274  GLU274      0.0402
    146  CG        23.5040  -16.8430   46.2070 C.3   274  GLU274      0.1161
    147  CD        23.5310  -17.7390   47.4590 C.2   274  GLU274      0.3649
    148  OE1       22.9960  -18.8920   47.4220 O.co2 274  GLU274     -0.2457
    149  OE2       24.0870  -17.2730   48.4890 O.co2 274  GLU274     -0.2457
    150  N         22.4140  -17.0570   41.3850 N.am  275  VAL275     -0.1980
    151  CA        22.2700  -17.7540   40.0820 C.3   275  VAL275      0.1595
    152  C         23.6450  -18.0760   39.4590 C.2   275  VAL275      0.2287
    153  O         23.9680  -19.2430   39.2490 O.2   275  VAL275     -0.2864
    154  CB        21.2640  -17.0540   39.0950 C.3   275  VAL275      0.0276
    155  CG1       21.5590  -17.4020   37.6770 C.3   275  VAL275      0.0022
    156  CG2       19.8690  -17.4710   39.4060 C.3   275  VAL275      0.0022
    157  N         25.4410  -20.7350   41.2440 N.3   278  GLY278     -0.1210
    158  CA        24.7050  -21.9890   40.9920 C.3   278  GLY278      0.1956
    159  C         25.1150  -22.5420   39.6340 C.2   278  GLY278      0.2611
    160  O         25.4900  -23.6990   39.5140 O.2   278  GLY278     -0.2717
    161  N         25.0840  -21.6920   38.6190 N.am  279  GLN279     -0.1979
    162  CA        25.6430  -22.0320   37.3010 C.3   279  GLN279      0.1601
    163  C         27.1180  -22.4730   37.3460 C.2   279  GLN279      0.2287
    164  O         27.4670  -23.5770   36.9230 O.2   279  GLN279     -0.2864
    165  CB        25.4260  -20.8710   36.3290 C.3   279  GLN279      0.0394
    166  CG        23.9490  -20.7130   35.9400 C.3   279  GLN279      0.0908
    167  CD        23.3610  -22.0090   35.4130 C.2   279  GLN279      0.2608
    168  OE1       23.8870  -22.6100   34.4840 O.2   279  GLN279     -0.2717
    169  NE2       22.2890  -22.4600   36.0270 N.am  279  GLN279     -0.0878
    170  N         28.8170  -23.4680   39.8920 N.3   281  GLY281     -0.1210
    171  CA        28.7790  -24.7350   40.6320 C.3   281  GLY281      0.1956
    172  C         28.2960  -25.9370   39.8410 C.2   281  GLY281      0.2612
    173  O         28.8330  -27.0260   39.9880 O.2   281  GLY281     -0.2717
    174  N         27.3010  -25.7380   38.9840 N.am  282  PHE282     -0.1962
    175  CA        26.7470  -26.7980   38.1180 C.3   282  PHE282      0.1771
    176  C         27.6890  -27.1430   36.9470 C.2   282  PHE282      0.2619
    177  O         27.7990  -28.3090   36.5260 O.2   282  PHE282     -0.2715
    178  CB        25.3680  -26.3670   37.6070 C.3   282  PHE282      0.0574
    179  CG        24.6750  -27.3850   36.6920 C.ar  282  PHE282     -0.0200
    180  CD1       23.7760  -28.3090   37.2180 C.ar  282  PHE282     -0.0042
    181  CD2       24.8840  -27.3590   35.2920 C.ar  282  PHE282     -0.0042
    182  CE1       23.1430  -29.2040   36.4190 C.ar  282  PHE282     -0.0003
    183  CE2       24.2370  -28.2510   34.4730 C.ar  282  PHE282     -0.0003
    184  CZ        23.3510  -29.1740   35.0130 C.ar  282  PHE282     -0.0000
    185  N         28.3740  -26.1390   36.4150 N.am  283  TYR283     -0.1974
    186  CA        29.3150  -26.4040   35.3080 C.3   283  TYR283      0.1639
    187  C         30.5140  -27.2320   35.8060 C.2   283  TYR283      0.2290
    188  O         30.9920  -28.1340   35.1220 O.2   283  TYR283     -0.2864
    189  CB        29.7750  -25.1010   34.6470 C.3   283  TYR283      0.0560
    190  CG        28.8500  -24.5620   33.5870 C.ar  283  TYR283     -0.0198
    191  CD1       27.5960  -24.0420   33.9150 C.ar  283  TYR283     -0.0009
    192  CD2       29.2330  -24.5450   32.2500 C.ar  283  TYR283     -0.0009
    193  CE1       26.7530  -23.5550   32.9410 C.ar  283  TYR283      0.0417
    194  CE2       28.4030  -24.0310   31.2720 C.ar  283  TYR283      0.0417
    195  CZ        27.1670  -23.5550   31.6110 C.ar  283  TYR283      0.1957
    196  OH        26.3480  -23.0320   30.6240 O.3   283  TYR283     -0.2866
@<TRIPOS>BOND
     1    52    53    1
     2    40    39    1
     3    40    41    1
     4    40    43    1
     5    57    56    1
     6    42    41    2
     7    41    45   am
     8    47    48    2
     9    47    46    1
    10    43    44    1
    11    53    56    1
    12    53    54    1
    13    56    58    1
    14    45    46    1
    15    46    49    1
    16    54    55    2
    17    33    34    2
    18    33    32    1
    19     4     3    2
    20    15    16    2
    21    15    14    1
    22    31    32    1
    23    51    49    1
    24    32    35    1
    25    49    50    1
    26     9     7   ar
    27     9    11   ar
    28     3    13   am
    29     3     2    1
    30    14    13    1
    31    14    17    1
    32    12    11    1
    33     7     6   ar
    34    11    10   ar
    35     2     1    1
    36     2     5    1
    37    35    36    1
    38    59    60    1
    39   196   195    1
    40     6     5    1
    41     6     8   ar
    42    17    18    1
    43    10     8   ar
    44   194   195   ar
    45   194   192   ar
    46    36    37    1
    47    36    38    1
    48   195   193   ar
    49    20    18   ar
    50    20    22   ar
    51    18    19   ar
    52    60    63    1
    53    60    61    1
    54   192   190   ar
    55    69    71    1
    56    69    68    1
    57    61    62    2
    58    64    65    1
    59    22    21   ar
    60    19    21   ar
    61   193   191   ar
    62    65    68    1
    63    65    66    1
    64   190   191   ar
    65   190   189    1
    66    68    70    1
    67   183   184   ar
    68   183   181   ar
    69   168   167    2
    70   189   186    1
    71    66    72   am
    72    66    67    2
    73   184   182   ar
    74   188   187    2
    75    72    73    1
    76   181   179   ar
    77   186   187    1
    78   186   185    1
    79    29    28    1
    80   167   166    1
    81   167   169   am
    82   166   165    1
    83    30    28    1
    84   165   162    1
    85    78    80   ar
    86    78    77   ar
    87    28    27    1
    88   185   176   am
    89   182   180   ar
    90    23    24    1
    91    73    74    1
    92    73    76    1
    93   177   176    2
    94    74    75    2
    95    24    27    1
    96    24    25    1
    97   179   180   ar
    98   179   178    1
    99    76    77    1
   100    80    82   ar
   101   164   163    2
   102   176   175    1
   103    77    79   ar
   104   162   163    1
   105   162   161    1
   106   178   175    1
   107    94    92   ar
   108    94    93   ar
   109   155   154    1
   110    92    90   ar
   111    84    85    1
   112    25    26    2
   113    82    83    1
   114    82    81   ar
   115    93    91   ar
   116   107   108   ar
   117   107   105   ar
   118   175   174    1
   119    90    89   ar
   120    79    81   ar
   121   108   106   ar
   122    91    89   ar
   123   161   159   am
   124   105   102   ar
   125    89    88    1
   126   174   172   am
   127   154   156    1
   128   154   151    1
   129    85    88    1
   130    85    86    1
   131   153   152    2
   132   106   104   ar
   133   152   151    1
   134   160   159    2
   135   159   158    1
   136   102   104   ar
   137   102   100   ar
   138   172   173    2
   139   172   171    1
   140   170   171    1
   141    95    86   am
   142    95    96    1
   143   104   103   ar
   144   151   150    1
   145    86    87    2
   146    99   100    1
   147    99    96    1
   148   100   101   ar
   149    96    97    1
   150    97    98    2
   151   158   157    1
   152   103   101   ar
   153   122   121    1
   154   122   123    1
   155   150   143   am
   156   121   120    1
   157   119   118    2
   158   144   143    2
   159   143   142    1
   160   118   117    1
   161   120   117    1
   162   117   116    1
   163   142   141    1
   164   142   145    1
   165   135   134    2
   166   134   133    1
   167   127   126    2
   168   126   125    1
   169   124   125    1
   170   116   111   am
   171   145   146    1
   172   112   111    2
   173   125   128    1
   174   111   110    1
   175   132   133    1
   176   133   136    1
   177   146   147    1
   178   136   137    1
   179   128   129    1
   180   110   113    1
   181   110   109    1
   182   130   129   ar
   183   113   114    1
   184   148   147   ar
   185   147   149   ar
   186   109   115    1
   187   129   131   ar
   188   137   138    1
   189   114   115    1
   190   138   139    1
   191   139   140    1
