@<TRIPOS>MOLECULE
tmp/4ysiA00.pdb
 134 131 0 0 0
SMALL
GASTEIGER

@<TRIPOS>ATOM
      1  N         32.2250  -10.2240  -21.6050 N.3    38  MET38      -0.1245
      2  CA        33.4080  -11.0150  -21.9060 C.3    38  MET38       0.1570
      3  C         33.0630  -12.4820  -21.7260 C.2    38  MET38       0.2261
      4  O         32.5160  -12.8670  -20.6860 O.2    38  MET38      -0.2867
      5  CB        34.5120  -10.6590  -20.9390 C.3    38  MET38       0.0387
      6  CG        35.8630  -11.2940  -21.1510 C.3    38  MET38       0.0595
      7  SD        36.9030  -10.8900  -19.7230 S.3    38  MET38      -0.1393
      8  CE        36.1040   -9.2820  -19.1880 C.3    38  MET38       0.0692
      9  N         34.6960  -16.5680  -22.3120 N.3    40  MET40      -0.1245
     10  CA        35.8480  -17.3860  -22.6650 C.3    40  MET40       0.1570
     11  C         35.6370  -18.7940  -22.1430 C.2    40  MET40       0.2261
     12  O         34.9560  -18.9810  -21.1250 O.2    40  MET40      -0.2867
     13  CB        37.1380  -16.8020  -22.0720 C.3    40  MET40       0.0387
     14  CG        37.1910  -16.9080  -20.5460 C.3    40  MET40       0.0595
     15  SD        38.3620  -15.8320  -19.6960 S.3    40  MET40      -0.1393
     16  CE        37.5290  -14.2560  -19.8310 C.3    40  MET40       0.0692
     17  N         36.7380  -21.9900  -19.9930 N.3    42  ARG42      -0.1245
     18  CA        37.5130  -22.1620  -18.7770 C.3    42  ARG42       0.1563
     19  C         37.5840  -23.6460  -18.4540 C.2    42  ARG42       0.2260
     20  O         36.7500  -24.4400  -18.8900 O.2    42  ARG42      -0.2867
     21  CB        36.9010  -21.3680  -17.6160 C.3    42  ARG42       0.0307
     22  CG        36.8860  -19.8570  -17.8510 C.3    42  ARG42       0.0489
     23  CD        38.2880  -19.2570  -17.8320 C.3    42  ARG42       0.2205
     24  NE        38.8180  -19.1610  -16.4710 N.pl3  42  ARG42      -0.0865
     25  CZ        39.0230  -18.0230  -15.8050 C.cat  42  ARG42       0.5346
     26  NH1       38.7750  -16.8490  -16.3590 N.pl3  42  ARG42       0.1354
     27  NH2       39.5080  -18.0670  -14.5720 N.pl3  42  ARG42       0.1354
     28  N         31.7910  -12.7380  -17.9020 N.3    51  PHE51      -0.1241
     29  CA        32.1430  -11.6030  -17.0690 C.3    51  PHE51       0.1605
     30  C         31.5670  -10.3170  -17.6430 C.2    51  PHE51       0.2264
     31  O         31.3430  -10.1950  -18.8510 O.2    51  PHE51      -0.2867
     32  CB        33.6710  -11.4560  -16.9340 C.3    51  PHE51       0.0534
     33  CG        34.3420  -12.6930  -16.3990 C.ar   51  PHE51      -0.0203
     34  CD1       34.6750  -13.7300  -17.2490 C.ar   51  PHE51      -0.0042
     35  CD2       34.5880  -12.8410  -15.0520 C.ar   51  PHE51      -0.0042
     36  CE1       35.2600  -14.8850  -16.7630 C.ar   51  PHE51      -0.0003
     37  CE2       35.1690  -13.9980  -14.5600 C.ar   51  PHE51      -0.0003
     38  CZ        35.5010  -15.0140  -15.4210 C.ar   51  PHE51      -0.0000
     39  N         22.6910  -15.4690  -13.2440 N.3    85  ARG85      -0.1231
     40  CA        23.3390  -15.2820  -11.9600 C.3    85  ARG85       0.1694
     41  C         23.5110  -13.7880  -11.7240 C.2    85  ARG85       0.2592
     42  O         23.6450  -13.0060  -12.6630 O.2    85  ARG85      -0.2718
     43  CB        24.7240  -15.9410  -11.9180 C.3    85  ARG85       0.0321
     44  CG        24.7420  -17.4290  -12.2010 C.3    85  ARG85       0.0489
     45  CD        26.1490  -17.9740  -12.0220 C.3    85  ARG85       0.2205
     46  NE        26.2500  -19.3940  -12.3340 N.pl3  85  ARG85      -0.0865
     47  CZ        25.9540  -20.3730  -11.4850 C.cat  85  ARG85       0.5346
     48  NH1       25.5170  -20.0990  -10.2620 N.pl3  85  ARG85       0.1354
     49  NH2       26.0870  -21.6330  -11.8660 N.pl3  85  ARG85       0.1354
     50  N         23.5180  -13.3960  -10.4590 N.am   86  ARG86      -0.1966
     51  CA        23.6240  -11.9960  -10.0680 C.3    86  ARG86       0.1729
     52  C         25.0030  -11.6960   -9.5000 C.2    86  ARG86       0.2616
     53  O         25.6170  -12.5430   -8.8390 O.2    86  ARG86      -0.2715
     54  CB        22.5890  -11.6530   -8.9900 C.3    86  ARG86       0.0348
     55  CG        21.1490  -11.6590   -9.4560 C.3    86  ARG86       0.0492
     56  CD        20.2090  -11.2320   -8.3410 C.3    86  ARG86       0.2205
     57  NE        20.1610  -12.2130   -7.2560 N.pl3  86  ARG86      -0.0865
     58  CZ        20.9260  -12.1860   -6.1660 C.cat  86  ARG86       0.5346
     59  NH1       21.8220  -11.2230   -5.9850 N.pl3  86  ARG86       0.1354
     60  NH2       20.7940  -13.1340   -5.2470 N.pl3  86  ARG86       0.1354
     61  N         25.4530  -10.4560   -9.7150 N.am   87  ILE87      -0.1963
     62  CA        26.6780   -9.9400   -9.1160 C.3    87  ILE87       0.1727
     63  C         26.4510   -8.5450   -8.5500 C.2    87  ILE87       0.2616
     64  O         25.5520   -7.8090   -8.9670 O.2    87  ILE87      -0.2715
     65  CB        27.8690   -9.8980  -10.1000 C.3    87  ILE87       0.0290
     66  CG1       27.5900   -8.9420  -11.2770 C.3    87  ILE87       0.0022
     67  CG2       28.1790  -11.3000  -10.6090 C.3    87  ILE87       0.0023
     68  CD1       28.8010   -8.6750  -12.1460 C.3    87  ILE87       0.0001
     69  N         27.3380   -8.1730   -7.6300 N.am   88  SER88      -0.1950
     70  CA        27.4950   -6.8020   -7.1540 C.3    88  SER88       0.1924
     71  C         28.9920   -6.5550   -7.0260 C.2    88  SER88       0.2314
     72  O         29.6900   -7.3900   -6.4410 O.2    88  SER88      -0.2863
     73  CB        26.8160   -6.6570   -5.7850 C.3    88  SER88       0.2116
     74  OG        26.8610   -5.3300   -5.2920 O.3    88  SER88      -0.2180
     75  N         40.3670   -3.6540  -10.8700 N.3    95  GLU95      -0.1245
     76  CA        39.3940   -4.7360  -10.8050 C.3    95  GLU95       0.1567
     77  C         38.2420   -4.3410  -11.7300 C.2    95  GLU95       0.2260
     78  O         37.1310   -4.0100  -11.3000 O.2    95  GLU95      -0.2867
     79  CB        38.9170   -5.0270   -9.3810 C.3    95  GLU95       0.0388
     80  CG        38.5940   -6.5060   -9.1380 C.3    95  GLU95       0.1160
     81  CD        39.8340   -7.4050   -9.1900 C.2    95  GLU95       0.3649
     82  OE1       40.1660   -7.9200  -10.2830 O.co2  95  GLU95      -0.2457
     83  OE2       40.4840   -7.5870   -8.1320 O.co2  95  GLU95      -0.2457
     84  N         36.6340   -6.0350  -14.0970 N.3    97  ASP97      -0.1225
     85  CA        35.6420   -7.0070  -14.5280 C.3    97  ASP97       0.1805
     86  C         35.2490   -7.9070  -13.3660 C.2    97  ASP97       0.2598
     87  O         35.9450   -8.0050  -12.3550 O.2    97  ASP97      -0.2718
     88  CB        36.0440   -7.7640  -15.8140 C.3    97  ASP97       0.1424
     89  CG        37.1200   -8.8160  -15.6180 C.2    97  ASP97       0.3668
     90  OD1       37.0850   -9.5390  -14.6010 O.co2  97  ASP97      -0.2456
     91  OD2       37.9990   -8.9530  -16.5120 O.co2  97  ASP97      -0.2456
     92  N         34.0850   -8.5310  -13.5090 N.am   98  TRP98      -0.1962
     93  CA        33.5720   -9.4140  -12.4690 C.3    98  TRP98       0.1771
     94  C         32.5410  -10.3400  -13.0910 C.2    98  TRP98       0.2620
     95  O         31.7940   -9.9420  -13.9850 O.2    98  TRP98      -0.2715
     96  CB        32.9470   -8.6040  -11.3270 C.3    98  TRP98       0.0590
     97  CG        32.8000   -9.3680  -10.0390 C.ar   98  TRP98       0.0006
     98  CD1       31.6790   -9.9620   -9.5470 C.ar   98  TRP98       0.0946
     99  CD2       33.8320   -9.6100   -9.0840 C.ar   98  TRP98       0.0152
    100  NE1       31.9490  -10.5540   -8.3320 N.ar   98  TRP98      -0.2442
    101  CE2       33.2680  -10.3500   -8.0280 C.ar   98  TRP98       0.0810
    102  CE3       35.1830   -9.2620   -9.0130 C.ar   98  TRP98       0.0012
    103  CZ2       34.0090  -10.7490   -6.9160 C.ar   98  TRP98       0.0191
    104  CZ3       35.9130   -9.6530   -7.9130 C.ar   98  TRP98       0.0001
    105  CH2       35.3260  -10.3890   -6.8830 C.ar   98  TRP98       0.0015
    106  N         32.5050  -11.5750  -12.6290 N.am   99  GLY99      -0.1940
    107  CA        31.5900  -12.5540  -13.1680 C.3    99  GLY99       0.2014
    108  C         31.9030  -13.9260  -12.6370 C.2    99  GLY99       0.2639
    109  O         32.2160  -14.0630  -11.4540 O.2    99  GLY99      -0.2714
    110  N         31.8140  -14.9390  -13.5010 N.am  100  PHE100     -0.1959
    111  CA        31.9070  -16.3320  -13.0800 C.3   100  PHE100      0.1771
    112  C         32.7770  -17.1050  -14.0550 C.2   100  PHE100      0.2620
    113  O         32.4750  -17.1760  -15.2490 O.2   100  PHE100     -0.2715
    114  CB        30.5150  -16.9630  -13.0280 C.3   100  PHE100      0.0574
    115  CG        29.5740  -16.2520  -12.1070 C.ar  100  PHE100     -0.0200
    116  CD1       28.7990  -15.2040  -12.5560 C.ar  100  PHE100     -0.0042
    117  CD2       29.4940  -16.6050  -10.7770 C.ar  100  PHE100     -0.0042
    118  CE1       27.9430  -14.5450  -11.7090 C.ar  100  PHE100     -0.0003
    119  CE2       28.6350  -15.9410   -9.9160 C.ar  100  PHE100     -0.0003
    120  CZ        27.8630  -14.9080  -10.3920 C.ar  100  PHE100     -0.0000
    121  N         33.8260  -17.7370  -13.5410 N.am  101  SER101     -0.1936
    122  CA        34.6310  -18.6020  -14.3930 C.3   101  SER101      0.2055
    123  C         33.9130  -19.9090  -14.7040 C.2   101  SER101      0.2643
    124  O         34.1890  -20.5260  -15.7390 O.2   101  SER101     -0.2714
    125  CB        35.9790  -18.8740  -13.7380 C.3   101  SER101      0.2130
    126  OG        35.8060  -19.5190  -12.4950 O.3   101  SER101     -0.2179
    127  N         32.9980  -20.3360  -13.8300 N.am  102  ASN102     -0.1971
    128  CA        32.2040  -21.5440  -14.0160 C.3   102  ASN102      0.1688
    129  C         30.7310  -21.1600  -14.0690 C.2   102  ASN102      0.2292
    130  O         29.9250  -21.6290  -13.2640 O.2   102  ASN102     -0.2864
    131  CB        32.4760  -22.5550  -12.8870 C.3   102  ASN102      0.1181
    132  CG        31.7330  -23.8760  -13.0720 C.2   102  ASN102      0.2629
    133  OD1       31.3820  -24.2570  -14.1870 O.2   102  ASN102     -0.2716
    134  ND2       31.4990  -24.5810  -11.9680 N.am  102  ASN102     -0.0877
@<TRIPOS>BOND
     1    10     9    1
     2    10    11    1
     3    10    13    1
     4    11    12    2
     5    13    14    1
     6     2     3    1
     7     2     1    1
     8     2     5    1
     9     3     4    2
    10     6     5    1
    11     6     7    1
    12    14    15    1
    13    17    18    1
    14    16    15    1
    15     7     8    1
    16    20    19    2
    17    31    30    2
    18    18    19    1
    19    18    21    1
    20    28    29    1
    21    22    23    1
    22    22    21    1
    23    23    24    1
    24    30    29    1
    25    34    36   ar
    26    34    33   ar
    27    29    32    1
    28    32    33    1
    29    36    38   ar
    30    91    89   ar
    31    24    25    2
    32    33    35   ar
    33    26    25    1
    34    88    89    1
    35    88    85    1
    36    25    27    1
    37   124   123    2
    38    89    90   ar
    39    38    37   ar
    40   113   112    2
    41    35    37   ar
    42   123   122    1
    43   123   127   am
    44    85    84    1
    45    85    86    1
    46   122   125    1
    47   122   121    1
    48   133   132    2
    49   129   128    1
    50   129   130    2
    51   112   121   am
    52   112   111    1
    53   128   127    1
    54   128   131    1
    55    95    94    2
    56   125   126    1
    57    92    86   am
    58    92    93    1
    59   110   111    1
    60   110   108   am
    61    86    87    2
    62    39    40    1
    63   107   108    1
    64   107   106    1
    65    94   106   am
    66    94    93    1
    67   111   114    1
    68   132   131    1
    69   132   134   am
    70   114   115    1
    71    42    41    2
    72   108   109    2
    73   116   115   ar
    74   116   118   ar
    75    93    96    1
    76    46    45    1
    77    46    47    2
    78    44    45    1
    79    44    43    1
    80    68    66    1
    81   115   117   ar
    82    40    43    1
    83    40    41    1
    84    49    47    1
    85    77    78    2
    86    77    76    1
    87    41    50   am
    88   118   120   ar
    89    47    48    1
    90    96    97    1
    91    66    65    1
    92    75    76    1
    93    76    79    1
    94   117   119   ar
    95    67    65    1
    96    50    51    1
    97   120   119   ar
    98    82    81   ar
    99    65    62    1
   100    51    52    1
   101    51    54    1
   102    97    98   ar
   103    97    99   ar
   104    61    52   am
   105    61    62    1
   106    98   100   ar
   107    52    53    2
   108    55    54    1
   109    55    56    1
   110    79    80    1
   111    81    80    1
   112    81    83   ar
   113    62    63    1
   114    99   102   ar
   115    99   101   ar
   116   102   104   ar
   117    64    63    2
   118    63    69   am
   119    56    57    1
   120   100   101   ar
   121   101   103   ar
   122   104   105   ar
   123    69    70    1
   124    57    58    2
   125    70    71    1
   126    70    73    1
   127    71    72    2
   128   103   105   ar
   129    58    59    1
   130    58    60    1
   131    73    74    1
