@<TRIPOS>MOLECULE
tmp/4ysjB00.pdb
 168 159 0 0 0
SMALL
GASTEIGER

@<TRIPOS>ATOM
      1  N         43.3150  107.6940   80.4770 N.3    27  LEU27      -0.1231
      2  CA        43.0930  106.9100   79.2600 C.3    27  LEU27       0.1693
      3  C         41.6920  107.1040   78.7640 C.2    27  LEU27       0.2593
      4  O         41.4470  107.0500   77.5670 O.2    27  LEU27      -0.2718
      5  CB        43.2460  105.4400   79.5660 C.3    27  LEU27       0.0284
      6  CG        44.6160  105.0520   80.1090 C.3    27  LEU27       0.0019
      7  CD1       44.6450  103.6590   80.6750 C.3    27  LEU27       0.0001
      8  CD2       45.6530  105.1580   78.9950 C.3    27  LEU27       0.0001
      9  N         40.7610  107.3310   79.6810 N.am   28  GLY28      -0.1942
     10  CA        39.3790  107.5590   79.2870 C.3    28  GLY28       0.2014
     11  C         38.5480  107.9030   80.4980 C.2    28  GLY28       0.2639
     12  O         38.9560  107.6590   81.6330 O.2    28  GLY28      -0.2714
     13  N         37.4070  108.5240   80.2670 N.am   29  LYS29      -0.1963
     14  CA        36.5100  108.8300   81.3520 C.3    29  LYS29       0.1728
     15  C         35.2820  108.0970   81.0050 C.2    29  LYS29       0.2617
     16  O         34.9930  107.8570   79.8410 O.2    29  LYS29      -0.2715
     17  CB        36.2270  110.3350   81.5630 C.3    29  LYS29       0.0311
     18  CG        36.5630  111.3210   80.4450 C.3    29  LYS29       0.0038
     19  CD        35.5800  112.4940   80.4380 C.3    29  LYS29       0.0206
     20  CE        35.4190  113.1770   81.8010 C.3    29  LYS29       0.1093
     21  NZ        34.4330  114.3000   81.7590 N.3    29  LYS29      -0.1314
     22  N         34.5680  107.6910   82.0320 N.am   30  GLY30      -0.1940
     23  CA        33.3780  106.9240   81.8460 C.3    30  GLY30       0.2014
     24  C         32.2370  107.6840   82.4500 C.2    30  GLY30       0.2640
     25  O         32.3520  108.8580   82.8300 O.2    30  GLY30      -0.2714
     26  N         31.1350  106.9770   82.5720 N.am   31  SER31      -0.1935
     27  CA        29.8910  107.5860   82.9750 C.3    31  SER31       0.2055
     28  C         29.9630  107.9970   84.4560 C.2    31  SER31       0.2643
     29  O         29.4300  109.0360   84.8340 O.2    31  SER31      -0.2714
     30  CB        28.7600  106.5930   82.6940 C.3    31  SER31       0.2130
     31  OG        29.2860  105.4650   81.9750 O.3    31  SER31      -0.2179
     32  N         30.6480  107.1980   85.2780 N.am   32  PHE32      -0.1959
     33  CA        30.6850  107.4280   86.7310 C.3    32  PHE32       0.1771
     34  C         32.0920  107.3910   87.3090 C.2    32  PHE32       0.2620
     35  O         32.2690  107.0120   88.4630 O.2    32  PHE32      -0.2715
     36  CB        29.7990  106.4010   87.4620 C.3    32  PHE32       0.0574
     37  CG        28.3940  106.3370   86.9300 C.ar   32  PHE32      -0.0200
     38  CD1       27.5500  107.4460   87.0410 C.ar   32  PHE32      -0.0042
     39  CD2       27.9180  105.1890   86.2910 C.ar   32  PHE32      -0.0042
     40  CE1       26.2540  107.4040   86.5370 C.ar   32  PHE32      -0.0003
     41  CE2       26.6230  105.1420   85.7850 C.ar   32  PHE32      -0.0003
     42  CZ        25.7870  106.2480   85.9110 C.ar   32  PHE32      -0.0000
     43  N         33.0830  107.8010   86.5220 N.am   33  GLY33      -0.1954
     44  CA        34.4800  107.8220   86.9810 C.3    33  GLY33       0.1869
     45  C         35.4410  107.8400   85.7980 C.2    33  GLY33       0.2309
     46  O         35.0330  108.1230   84.6650 O.2    33  GLY33      -0.2863
     47  N         39.2770  106.0230   83.9090 N.3    35  VAL35      -0.1245
     48  CA        40.2680  104.9460   83.8670 C.3    35  VAL35       0.1561
     49  C         41.6230  105.6110   83.8110 C.2    35  VAL35       0.2260
     50  O         41.8900  106.4110   82.9150 O.2    35  VAL35      -0.2867
     51  CB        40.0910  104.0710   82.6170 C.3    35  VAL35       0.0252
     52  CG1       41.2970  103.1930   82.3830 C.3    35  VAL35       0.0019
     53  CG2       38.8410  103.2350   82.7590 C.3    35  VAL35       0.0019
     54  N         46.0000   99.8820   83.8950 N.3    48  ALA48      -0.1245
     55  CA        44.8780  100.8090   83.7270 C.3    48  ALA48       0.1562
     56  C         43.9000  100.6700   84.8820 C.2    48  ALA48       0.2260
     57  O         43.2080   99.6880   85.0020 O.2    48  ALA48      -0.2867
     58  CB        44.1710  100.5390   82.4190 C.3    48  ALA48       0.0290
     59  N         40.5550  101.4580   86.5620 N.3    50  LYS50      -0.1245
     60  CA        39.2100  101.9620   86.4240 C.3    50  LYS50       0.1561
     61  C         38.7690  102.4340   87.7930 C.2    50  LYS50       0.2260
     62  O         38.8640  101.7080   88.7570 O.2    50  LYS50      -0.2867
     63  CB        38.2970  100.8770   85.8600 C.3    50  LYS50       0.0271
     64  CG        36.8600  101.3130   85.6570 C.3    50  LYS50       0.0035
     65  CD        36.2000  100.5450   84.5310 C.3    50  LYS50       0.0206
     66  CE        34.7430  100.9270   84.4260 C.3    50  LYS50       0.1093
     67  NZ        34.0870  100.3200   83.2510 N.3    50  LYS50      -0.1314
     68  N         39.3260   91.4840   78.5770 N.3    72  MET72      -0.1245
     69  CA        40.1470   92.2620   79.4970 C.3    72  MET72       0.1570
     70  C         40.5060   91.4830   80.7490 C.2    72  MET72       0.2261
     71  O         39.6680   90.8810   81.3550 O.2    72  MET72      -0.2867
     72  CB        39.3510   93.5020   79.8880 C.3    72  MET72       0.0387
     73  CG        39.8970   94.3260   81.0360 C.3    72  MET72       0.0595
     74  SD        38.7190   95.5890   81.5450 S.3    72  MET72      -0.1393
     75  CE        37.2280   94.6700   81.8410 C.3    72  MET72       0.0692
     76  N         43.5140   96.9130   86.1280 N.3    88  THR88      -0.1203
     77  CA        43.3310   96.2020   84.8600 C.3    88  THR88       0.1994
     78  C         44.5760   96.2760   83.9900 C.2    88  THR88       0.2618
     79  O         45.4100   97.1300   84.1770 O.2    88  THR88      -0.2717
     80  CB        42.1800   96.8760   84.0950 C.3    88  THR88       0.1784
     81  OG1       41.0180   96.8500   84.9220 O.3    88  THR88      -0.2211
     82  CG2       41.8580   96.1870   82.7800 C.3    88  THR88       0.0376
     83  N         44.6960   95.3540   83.0490 N.am   89  GLU89      -0.1965
     84  CA        45.7440   95.3870   82.0600 C.3    89  GLU89       0.1733
     85  C         45.5000   96.5620   81.1610 C.2    89  GLU89       0.2616
     86  O         44.3640   96.7960   80.7370 O.2    89  GLU89      -0.2715
     87  CB        45.7240   94.1050   81.2240 C.3    89  GLU89       0.0429
     88  CG        47.0320   93.7370   80.5240 C.3    89  GLU89       0.1163
     89  CD        47.0120   92.3170   79.9200 C.2    89  GLU89       0.3649
     90  OE1       45.9470   91.8290   79.4040 O.co2  89  GLU89      -0.2457
     91  OE2       48.0890   91.6620   79.9580 O.co2  89  GLU89      -0.2457
     92  N         46.5610   97.3090   80.8760 N.am   90  VAL90      -0.1963
     93  CA        46.4190   98.3990   79.9640 C.3    90  VAL90       0.1727
     94  C         46.5660   97.8580   78.5640 C.2    90  VAL90       0.2616
     95  O         47.4860   97.1080   78.2580 O.2    90  VAL90      -0.2715
     96  CB        47.3890   99.6170   80.2300 C.3    90  VAL90       0.0290
     97  CG1       48.8520   99.2430   80.1340 C.3    90  VAL90       0.0023
     98  CG2       47.1040  100.7440   79.2470 C.3    90  VAL90       0.0023
     99  N         45.6690   98.3140   77.7040 N.am   91  TYR91      -0.1974
    100  CA        45.7490   98.0560   76.2790 C.3    91  TYR91       0.1639
    101  C         46.0310   99.3580   75.5310 C.2    91  TYR91       0.2290
    102  O         45.1970  100.2550   75.4480 O.2    91  TYR91      -0.2864
    103  CB        44.4620   97.3770   75.8280 C.3    91  TYR91       0.0560
    104  CG        44.2510   96.0700   76.5850 C.ar   91  TYR91      -0.0198
    105  CD1       45.1830   95.0240   76.4870 C.ar   91  TYR91      -0.0009
    106  CD2       43.1480   95.8830   77.4050 C.ar   91  TYR91      -0.0009
    107  CE1       45.0180   93.8510   77.1790 C.ar   91  TYR91       0.0417
    108  CE2       42.9700   94.6890   78.0810 C.ar   91  TYR91       0.0417
    109  CZ        43.9200   93.6950   77.9690 C.ar   91  TYR91       0.1957
    110  OH        43.7580   92.5390   78.6510 O.3    91  TYR91      -0.2866
    111  N         44.3050  101.8680   72.2100 N.3    94  GLY94      -0.1210
    112  CA        43.0940  102.6530   72.2540 C.3    94  GLY94       0.1956
    113  C         41.8690  102.0370   71.6030 C.2    94  GLY94       0.2611
    114  O         41.8620  100.8990   71.1480 O.2    94  GLY94      -0.2717
    115  N         40.8110  102.8360   71.5730 N.am   95  GLU95      -0.1979
    116  CA        39.4850  102.3590   71.2270 C.3    95  GLU95       0.1602
    117  C         39.3830  102.0220   69.7740 C.2    95  GLU95       0.2287
    118  O         39.9580  102.6920   68.9190 O.2    95  GLU95      -0.2864
    119  CB        38.4240  103.4120   71.5340 C.3    95  GLU95       0.0415
    120  CG        38.2620  103.7120   73.0110 C.3    95  GLU95       0.1163
    121  CD        37.3290  104.8720   73.2630 C.2    95  GLU95       0.3649
    122  OE1       36.5710  105.2600   72.3310 O.co2  95  GLU95      -0.2457
    123  OE2       37.3660  105.3730   74.4040 O.co2  95  GLU95      -0.2457
    124  N         33.6350  101.8160   71.5510 N.3   138  GLU138     -0.1231
    125  CA        34.1770  102.4940   72.7090 C.3   138  GLU138      0.1699
    126  C         34.5970  101.4710   73.7850 C.2   138  GLU138      0.2592
    127  O         35.4800  101.7390   74.5980 O.2   138  GLU138     -0.2718
    128  CB        33.1420  103.5290   73.2370 C.3   138  GLU138      0.0402
    129  CG        32.6770  104.6090   72.2200 C.3   138  GLU138      0.1161
    130  CD        31.3410  104.3010   71.5050 C.2   138  GLU138      0.3649
    131  OE1       31.2150  103.2680   70.8150 O.co2 138  GLU138     -0.2457
    132  OE2       30.3900  105.1220   71.6160 O.co2 138  GLU138     -0.2457
    133  N         33.9590  100.3000   73.7860 N.am  139  ASN139     -0.1974
    134  CA        34.2300   99.2690   74.7800 C.3   139  ASN139      0.1688
    135  C         35.0200   98.0970   74.2180 C.2   139  ASN139      0.2292
    136  O         35.0270   97.0100   74.7900 O.2   139  ASN139     -0.2864
    137  CB        32.9320   98.7610   75.3870 C.3   139  ASN139      0.1181
    138  CG        32.3000   99.7520   76.3320 C.2   139  ASN139      0.2629
    139  OD1       32.9740  100.5080   77.0300 O.2   139  ASN139     -0.2716
    140  ND2       30.9850   99.7740   76.3410 N.am  139  ASN139     -0.0877
    141  N         39.0750   97.5050   72.8260 N.3   141  LEU141     -0.1245
    142  CA        40.3830   98.0880   72.6750 C.3   141  LEU141      0.1561
    143  C         41.3040   97.2160   71.8660 C.2   141  LEU141      0.2260
    144  O         41.1880   96.0160   71.8680 O.2   141  LEU141     -0.2867
    145  CB        40.9970   98.2860   74.0280 C.3   141  LEU141      0.0270
    146  CG        40.1670   99.0490   75.0360 C.3   141  LEU141      0.0019
    147  CD1       41.0260   99.2280   76.2790 C.3   141  LEU141      0.0001
    148  CD2       39.7450  100.4280   74.5370 C.3   141  LEU141      0.0001
    149  N         35.9670   95.2090   77.0750 N.3   154  ILE154     -0.1231
    150  CA        36.1030   95.8130   78.4110 C.3   154  ILE154      0.1692
    151  C         34.7290   96.2910   78.8980 C.2   154  ILE154      0.2592
    152  O         33.7280   95.9230   78.3120 O.2   154  ILE154     -0.2718
    153  CB        37.1060   96.9730   78.3670 C.3   154  ILE154      0.0266
    154  CG1       36.6330   98.0700   77.4090 C.3   154  ILE154      0.0019
    155  CG2       38.4750   96.5250   77.8930 C.3   154  ILE154      0.0020
    156  CD1       37.2820   99.3980   77.6930 C.3   154  ILE154      0.0001
    157  N         34.6640   97.1120   79.9440 N.am  155  ASP155     -0.1974
    158  CA        33.3680   97.7240   80.4400 C.3   155  ASP155      0.1709
    159  C         32.4000   96.5920   80.6820 C.2   155  ASP155      0.2293
    160  O         31.3810   96.4580   80.0190 O.2   155  ASP155     -0.2864
    161  CB        32.7710   98.8170   79.4990 C.3   155  ASP155      0.1436
    162  CG        31.8360   99.8440   80.2220 C.2   155  ASP155      0.3671
    163  OD1       31.1350   99.4910   81.1850 O.co2 155  ASP155     -0.2456
    164  OD2       31.7610  101.0380   79.7880 O.co2 155  ASP155     -0.2456
    165  N         30.7120   96.7250   83.2620 N.3   157  GLY157     -0.1225
    166  CA        29.9320   97.3950   84.2940 C.3   157  GLY157      0.1811
    167  C         28.4300   97.3390   84.0930 C.2   157  GLY157      0.2280
    168  O         27.6890   97.5770   85.0310 O.2   157  GLY157     -0.2866
@<TRIPOS>BOND
     1   118   117    2
     2   117   116    1
     3   131   130   ar
     4   114   113    2
     5   116   119    1
     6   116   115    1
     7   130   132   ar
     8   130   129    1
     9   119   120    1
    10   124   125    1
    11   115   113   am
    12   113   112    1
    13   143   144    2
    14   143   142    1
    15   111   112    1
    16   129   128    1
    17   122   121   ar
    18   142   141    1
    19   142   145    1
    20   125   128    1
    21   125   126    1
    22   120   121    1
    23   121   123   ar
    24   126   133   am
    25   126   127    2
    26   133   134    1
    27   145   146    1
    28   135   134    1
    29   135   136    2
    30   148   146    1
    31   134   137    1
    32   146   147    1
    33   137   138    1
    34   102   101    2
    35   101   100    1
    36   103   100    1
    37   103   104    1
    38   100    99    1
    39   138   140   am
    40   138   139    2
    41   105   104   ar
    42   105   107   ar
    43   104   106   ar
    44   149   150    1
    45   107   109   ar
    46   106   108   ar
    47   154   156    1
    48   154   153    1
    49     4     3    2
    50    99    94   am
    51   155   153    1
    52   109   108   ar
    53   109   110    1
    54    95    94    2
    55   152   151    2
    56   153   150    1
    57   150   151    1
    58    94    93    1
    59    68    69    1
    60     3     2    1
    61     3     9   am
    62   151   157   am
    63     8     6    1
    64    98    96    1
    65     2     5    1
    66     2     1    1
    67    10     9    1
    68    10    11    1
    69    90    89   ar
    70    69    72    1
    71    69    70    1
    72   161   162    1
    73   161   158    1
    74     5     6    1
    75   164   162   ar
    76    16    15    2
    77    72    73    1
    78    89    91   ar
    79    89    88    1
    80   157   158    1
    81    93    96    1
    82    93    92    1
    83   160   159    2
    84     6     7    1
    85    97    96    1
    86   162   163   ar
    87    13    11   am
    88    13    14    1
    89    19    18    1
    90    19    20    1
    91   158   159    1
    92    18    17    1
    93    11    12    2
    94    88    87    1
    95    86    85    2
    96    70    71    2
    97    92    85   am
    98    15    14    1
    99    15    22   am
   100    73    74    1
   101    85    84    1
   102    87    84    1
   103    14    17    1
   104    74    75    1
   105    21    20    1
   106    23    22    1
   107    23    24    1
   108    31    30    1
   109    84    83    1
   110    52    51    1
   111    58    55    1
   112    24    26   am
   113    24    25    2
   114    26    27    1
   115    51    53    1
   116    51    48    1
   117    30    27    1
   118    82    80    1
   119    50    49    2
   120    27    28    1
   121    83    78   am
   122    67    66    1
   123   165   166    1
   124    55    54    1
   125    55    56    1
   126    49    48    1
   127    48    47    1
   128    78    79    2
   129    78    77    1
   130   167   166    1
   131   167   168    2
   132    80    77    1
   133    80    81    1
   134    66    65    1
   135    28    29    2
   136    28    32   am
   137    65    64    1
   138    46    45    2
   139    77    76    1
   140    56    57    2
   141    32    33    1
   142    64    63    1
   143    41    42   ar
   144    41    39   ar
   145    45    44    1
   146    63    60    1
   147    42    40   ar
   148    39    37   ar
   149    60    59    1
   150    60    61    1
   151    43    44    1
   152    43    34   am
   153    40    38   ar
   154    33    34    1
   155    33    36    1
   156    37    38   ar
   157    37    36    1
   158    34    35    2
   159    61    62    2
