@<TRIPOS>MOLECULE
tmp/4ysnC00.pdb
 112 106 0 0 0
SMALL
GASTEIGER

@<TRIPOS>ATOM
      1  N         -0.8840  -24.9970   70.3760 N.3   121  SER121     -0.1202
      2  CA        -1.6270  -26.0770   69.8130 C.3   121  SER121      0.2020
      3  C         -0.8240  -26.9760   68.9640 C.2   121  SER121      0.2619
      4  O          0.1420  -26.5440   68.3300 O.2   121  SER121     -0.2717
      5  CB        -2.7920  -25.5040   69.0040 C.3   121  SER121      0.2103
      6  OG        -2.3230  -24.8150   67.8280 O.3   121  SER121     -0.2182
      7  N         -1.2610  -28.2430   68.8920 N.am  122  GLY122     -0.1942
      8  CA        -0.7860  -29.1870   67.9540 C.3   122  GLY122      0.2014
      9  C         -0.8140  -28.6540   66.5060 C.2   122  GLY122      0.2639
     10  O          0.1280  -28.8190   65.7270 O.2   122  GLY122     -0.2714
     11  N         -1.9250  -28.0380   66.1320 N.am  123  SER123     -0.1949
     12  CA        -2.0150  -27.2840   64.8690 C.3   123  SER123      0.1924
     13  C         -0.8140  -26.3710   64.5690 C.2   123  SER123      0.2314
     14  O         -0.2690  -26.4730   63.4530 O.2   123  SER123     -0.2863
     15  CB        -3.2790  -26.3870   64.8960 C.3   123  SER123      0.2116
     16  OG        -4.4140  -27.1910   64.9630 O.3   123  SER123     -0.2180
     17  N          2.4430  -28.1010   63.7840 N.3   126  ASN126     -0.1240
     18  CA         2.4930  -28.6020   62.4320 C.3   126  ASN126      0.1653
     19  C          2.7150  -27.5310   61.3730 C.2   126  ASN126      0.2266
     20  O          3.4020  -27.8000   60.3530 O.2   126  ASN126     -0.2867
     21  CB         1.2450  -29.5380   62.1260 C.3   126  ASN126      0.1155
     22  CG         1.2990  -30.9020   62.8880 C.2   126  ASN126      0.2627
     23  OD1        0.2560  -31.3640   63.4690 O.2   126  ASN126     -0.2716
     24  ND2        2.4480  -31.4640   62.9930 N.am  126  ASN126     -0.0877
     25  N         -4.8520  -36.2240   60.5180 N.3   149  TYR149     -0.1227
     26  CA        -5.3380  -35.0940   61.2150 C.3   149  TYR149      0.1736
     27  C         -4.1400  -34.3510   61.8310 C.2   149  TYR149      0.2595
     28  O         -3.4530  -34.8570   62.7480 O.2   149  TYR149     -0.2718
     29  CB        -6.3390  -35.4280   62.2880 C.3   149  TYR149      0.0548
     30  CG        -6.9720  -34.1830   62.8380 C.ar  149  TYR149     -0.0200
     31  CD1       -8.1290  -33.6500   62.2480 C.ar  149  TYR149     -0.0009
     32  CD2       -6.4440  -33.5200   63.9380 C.ar  149  TYR149     -0.0009
     33  CE1       -8.6920  -32.4550   62.7320 C.ar  149  TYR149      0.0417
     34  CE2       -6.9920  -32.2780   64.4060 C.ar  149  TYR149      0.0417
     35  CZ        -8.1320  -31.7780   63.8330 C.ar  149  TYR149      0.1957
     36  OH        -8.7220  -30.5920   64.2450 O.3   149  TYR149     -0.2866
     37  N         -3.9410  -33.1010   61.4230 N.am  150  HIS150     -0.1961
     38  CA        -2.8180  -32.3230   61.8890 C.3   150  HIS150      0.1787
     39  C         -3.2030  -30.9910   62.4920 C.2   150  HIS150      0.2620
     40  O         -2.3700  -30.3210   63.0680 O.2   150  HIS150     -0.2715
     41  CB        -1.8050  -32.1100   60.7540 C.3   150  HIS150      0.0785
     42  CG        -1.1500  -33.3790   60.2850 C.ar  150  HIS150      0.0821
     43  ND1       -0.3760  -34.1710   61.0930 N.ar  150  HIS150     -0.2267
     44  CD2       -1.1410  -33.9710   59.0670 C.ar  150  HIS150      0.1154
     45  CE1        0.0590  -35.2050   60.3890 C.ar  150  HIS150      0.1986
     46  NE2       -0.4060  -35.1060   59.1680 N.ar  150  HIS150     -0.2212
     47  N         -4.4840  -30.5970   62.3400 N.am  151  GLY151     -0.1954
     48  CA        -4.9980  -29.4060   62.9950 C.3   151  GLY151      0.1869
     49  C         -5.8290  -28.4980   62.1140 C.2   151  GLY151      0.2309
     50  O         -6.1910  -28.8690   61.0010 O.2   151  GLY151     -0.2863
     51  N          1.8230  -39.5170   60.8300 N.3   224  GLU224     -0.1245
     52  CA         1.4480  -39.9910   62.1540 C.3   224  GLU224      0.1567
     53  C          1.9300  -41.4620   62.2180 C.2   224  GLU224      0.2260
     54  O          1.4760  -42.2660   61.4090 O.2   224  GLU224     -0.2867
     55  CB        -0.0760  -39.9640   62.3620 C.3   224  GLU224      0.0388
     56  CG        -0.6350  -38.5510   62.3910 C.3   224  GLU224      0.1160
     57  CD        -2.1320  -38.5220   62.2120 C.2   224  GLU224      0.3649
     58  OE1       -2.5700  -38.2950   61.0890 O.co2 224  GLU224     -0.2457
     59  OE2       -2.8360  -38.7580   63.2010 O.co2 224  GLU224     -0.2457
     60  N         -4.4550  -41.3440   64.4170 N.3   228  GLY228     -0.1210
     61  CA        -5.4140  -41.2300   65.5100 C.3   228  GLY228      0.1956
     62  C         -6.7860  -41.1030   64.9400 C.2   228  GLY228      0.2611
     63  O         -7.5710  -42.1020   64.8890 O.2   228  GLY228     -0.2717
     64  N         -7.1240  -39.8620   64.5490 N.am  229  ASP229     -0.1973
     65  CA        -8.4380  -39.5690   63.9700 C.3   229  ASP229      0.1709
     66  C         -8.7620  -40.4030   62.7370 C.2   229  ASP229      0.2293
     67  O         -9.9290  -40.6880   62.4580 O.2   229  ASP229     -0.2864
     68  CB        -8.6290  -38.0430   63.7720 C.3   229  ASP229      0.1436
     69  CG        -8.6280  -37.2890   65.1520 C.2   229  ASP229      0.3671
     70  OD1       -7.5650  -37.1360   65.8030 O.co2 229  ASP229     -0.2456
     71  OD2       -9.6830  -36.9210   65.6570 O.co2 229  ASP229     -0.2456
     72  N          4.1100  -36.6480   63.5640 N.3   257  ASP257     -0.1239
     73  CA         3.1470  -35.9570   64.4210 C.3   257  ASP257      0.1674
     74  C          2.8530  -36.9310   65.5590 C.2   257  ASP257      0.2266
     75  O          2.1890  -37.9770   65.3540 O.2   257  ASP257     -0.2867
     76  CB         1.8860  -35.6630   63.6010 C.3   257  ASP257      0.1410
     77  CG         0.8410  -34.9220   64.3730 C.2   257  ASP257      0.3668
     78  OD1        0.8310  -35.0810   65.5800 O.co2 257  ASP257     -0.2456
     79  OD2        0.0290  -34.1500   63.7590 O.co2 257  ASP257     -0.2456
     80  N          1.2870  -35.6830   68.4030 N.3   259  VAL259     -0.1231
     81  CA         0.3640  -34.9340   69.2150 C.3   259  VAL259      0.1692
     82  C         -0.6870  -35.8070   69.8900 C.2   259  VAL259      0.2592
     83  O         -1.0280  -35.5680   71.0410 O.2   259  VAL259     -0.2718
     84  CB        -0.3210  -33.7960   68.3900 C.3   259  VAL259      0.0266
     85  CG1       -1.3930  -33.1160   69.1790 C.3   259  VAL259      0.0020
     86  CG2        0.6610  -32.7710   67.9320 C.3   259  VAL259      0.0020
     87  N         -1.1650  -36.8090   69.1880 N.am  260  ASN260     -0.1960
     88  CA        -2.1680  -37.7000   69.7540 C.3   260  ASN260      0.1819
     89  C         -1.5460  -38.9590   70.4050 C.2   260  ASN260      0.2621
     90  O         -2.0260  -39.4470   71.4110 O.2   260  ASN260     -0.2715
     91  CB        -3.1580  -38.1120   68.6950 C.3   260  ASN260      0.1195
     92  CG        -4.2980  -38.9660   69.2820 C.2   260  ASN260      0.2630
     93  OD1       -4.3120  -40.1530   69.1810 O.2   260  ASN260     -0.2716
     94  ND2       -5.1870  -38.3290   69.9830 N.am  260  ASN260     -0.0877
     95  N         -0.5220  -39.4720   69.7430 N.am  261  GLN261     -0.1977
     96  CA         0.0210  -40.8070   70.0330 C.3   261  GLN261      0.1601
     97  C          1.2710  -40.8160   70.8880 C.2   261  GLN261      0.2287
     98  O          1.7640  -41.9050   71.2880 O.2   261  GLN261     -0.2864
     99  CB         0.2530  -41.5520   68.7070 C.3   261  GLN261      0.0394
    100  CG        -1.0230  -41.8370   67.9400 C.3   261  GLN261      0.0908
    101  CD        -1.8360  -42.9900   68.5530 C.2   261  GLN261      0.2608
    102  OE1       -1.3510  -44.1000   68.6780 O.2   261  GLN261     -0.2717
    103  NE2       -3.0810  -42.6970   68.9340 N.am  261  GLN261     -0.0878
    104  N         -1.4880  -31.7720   72.9660 N.3   287  LYS287     -0.1245
    105  CA        -2.4760  -32.5350   73.6930 C.3   287  LYS287      0.1561
    106  C         -2.1410  -32.7780   75.2190 C.2   287  LYS287      0.2260
    107  O         -2.4550  -31.9830   76.0210 O.2   287  LYS287     -0.2867
    108  CB        -3.0130  -33.7370   72.9040 C.3   287  LYS287      0.0271
    109  CG        -3.9950  -33.3210   71.8000 C.3   287  LYS287      0.0035
    110  CD        -4.8220  -34.4330   71.2080 C.3   287  LYS287      0.0206
    111  CE        -5.9170  -33.9300   70.2970 C.3   287  LYS287      0.1093
    112  NZ        -5.5070  -33.9510   68.8670 N.3   287  LYS287     -0.1314
@<TRIPOS>BOND
     1    44    46   ar
     2    44    42   ar
     3    46    45   ar
     4    42    41    1
     5    42    43   ar
     6    20    19    2
     7    45    43   ar
     8    25    26    1
     9    41    38    1
    10    51    52    1
    11    50    49    2
    12    58    57   ar
    13    26    27    1
    14    26    29    1
    15    19    18    1
    16    54    53    2
    17    37    27   am
    18    37    38    1
    19    27    28    2
    20    38    39    1
    21    49    48    1
    22    21    18    1
    23    21    22    1
    24    52    53    1
    25    52    55    1
    26    57    56    1
    27    57    59   ar
    28    31    33   ar
    29    31    30   ar
    30    29    30    1
    31    47    39   am
    32    47    48    1
    33    55    56    1
    34    18    17    1
    35    67    66    2
    36    39    40    2
    37    33    35   ar
    38    66    65    1
    39    30    32   ar
    40    22    24   am
    41    22    23    2
    42    14    13    2
    43    72    73    1
    44    76    77    1
    45    76    73    1
    46    79    77   ar
    47    68    65    1
    48    68    69    1
    49    35    36    1
    50    35    34   ar
    51    32    34   ar
    52    65    64    1
    53    77    78   ar
    54    60    61    1
    55    73    74    1
    56    64    62   am
    57    13    12    1
    58    12    15    1
    59    12    11    1
    60    63    62    2
    61    15    16    1
    62    62    61    1
    63    69    71   ar
    64    69    70   ar
    65    75    74    2
    66    10     9    2
    67    11     9   am
    68     9     8    1
    69     6     5    1
    70    86    84    1
    71   100   101    1
    72   100    99    1
    73     8     7    1
    74     4     3    2
    75    84    85    1
    76    84    81    1
    77    80    81    1
    78   101   102    2
    79   101   103   am
    80    91    92    1
    81    91    88    1
    82    99    96    1
    83   112   111    1
    84     7     3   am
    85     3     2    1
    86     5     2    1
    87    93    92    2
    88    87    88    1
    89    87    82   am
    90    81    82    1
    91    92    94   am
    92    95    96    1
    93    95    89   am
    94    88    89    1
    95     2     1    1
    96    82    83    2
    97    96    97    1
    98   111   110    1
    99    89    90    2
   100    97    98    2
   101   110   109    1
   102   109   108    1
   103   108   105    1
   104   104   105    1
   105   105   106    1
   106   106   107    2
