@<TRIPOS>MOLECULE
tmp/4ysxE00.pdb
 104 98 0 0 0
SMALL
GASTEIGER

@<TRIPOS>ATOM
      1  N         36.6100    1.3370   16.2720 N.3    54  ALA54      -0.1231
      2  CA        37.4120    0.1260   16.4580 C.3    54  ALA54       0.1694
      3  C         36.5220   -1.0850   16.7290 C.2    54  ALA54       0.2592
      4  O         35.4250   -0.9450   17.2830 O.2    54  ALA54      -0.2718
      5  CB        38.4750    0.3170   17.5530 C.3    54  ALA54       0.0304
      6  N         36.9850   -2.2610   16.3200 N.am   55  GLN55      -0.1966
      7  CA        36.1130   -3.4310   16.2530 C.3    55  GLN55       0.1733
      8  C         36.6170   -4.6470   17.0290 C.2    55  GLN55       0.2617
      9  O         35.9820   -5.0950   17.9770 O.2    55  GLN55      -0.2715
     10  CB        35.9250   -3.8250   14.7920 C.3    55  GLN55       0.0408
     11  CG        35.1290   -2.8500   13.9540 C.3    55  GLN55       0.0908
     12  CD        35.0390   -3.2520   12.4830 C.2    55  GLN55       0.2608
     13  OE1       35.3850   -4.3760   12.0880 O.2    55  GLN55      -0.2717
     14  NE2       34.5660   -2.3280   11.6620 N.am   55  GLN55      -0.0878
     15  N         37.7640   -5.1640   16.6210 N.am   56  GLY56      -0.1940
     16  CA        38.1700   -6.5230   16.9470 C.3    56  GLY56       0.2014
     17  C         38.5060   -6.8320   18.3900 C.2    56  GLY56       0.2639
     18  O         38.2070   -7.9260   18.8960 O.2    56  GLY56      -0.2714
     19  N         39.1750   -5.9060   19.0570 N.am   57  GLY57      -0.1954
     20  CA        39.3920   -6.0780   20.4720 C.3    57  GLY57       0.1869
     21  C         40.6090   -5.4120   21.0220 C.2    57  GLY57       0.2309
     22  O         41.2070   -4.5890   20.3650 O.2    57  GLY57      -0.2863
     23  N         43.5740  -13.4770   16.9290 N.3   124  PHE124     -0.1241
     24  CA        43.8090  -12.3170   16.0940 C.3   124  PHE124      0.1605
     25  C         45.1000  -12.5640   15.3030 C.2   124  PHE124      0.2264
     26  O         45.6170  -13.6850   15.2960 O.2   124  PHE124     -0.2867
     27  CB        43.9230  -11.0820   17.0090 C.3   124  PHE124      0.0534
     28  CG        43.0400   -9.9330   16.6140 C.ar  124  PHE124     -0.0203
     29  CD1       43.5900   -8.6860   16.3700 C.ar  124  PHE124     -0.0042
     30  CD2       41.6690  -10.0820   16.5060 C.ar  124  PHE124     -0.0042
     31  CE1       42.8050   -7.6080   16.0380 C.ar  124  PHE124     -0.0003
     32  CE2       40.8710   -9.0000   16.1560 C.ar  124  PHE124     -0.0003
     33  CZ        41.4510   -7.7570   15.9170 C.ar  124  PHE124     -0.0000
     34  N         45.8650   -2.4440    6.6050 N.3   247  HIS247     -0.1241
     35  CA        45.0630   -3.5270    7.1580 C.3   247  HIS247      0.1621
     36  C         44.6610   -4.4250    5.9860 C.2   247  HIS247      0.2264
     37  O         44.3260   -3.9200    4.9180 O.2   247  HIS247     -0.2867
     38  CB        43.8210   -2.9950    7.8730 C.3   247  HIS247      0.0745
     39  CG        43.1290   -4.0170    8.7240 C.ar  247  HIS247      0.0817
     40  ND1       42.3520   -5.0180    8.1920 N.ar  247  HIS247     -0.2268
     41  CD2       43.1010   -4.1970   10.0670 C.ar  247  HIS247      0.1154
     42  CE1       41.8710   -5.7690    9.1630 C.ar  247  HIS247      0.1986
     43  NE2       42.3150   -5.2960   10.3110 N.ar  247  HIS247     -0.2212
     44  N         36.5110   -0.7840    7.3260 N.3   257  LEU257     -0.1245
     45  CA        37.1970   -1.9010    7.9650 C.3   257  LEU257      0.1561
     46  C         36.2570   -3.0740    8.2260 C.2   257  LEU257      0.2260
     47  O         35.1350   -2.8950    8.7000 O.2   257  LEU257     -0.2867
     48  CB        37.8310   -1.4820    9.2830 C.3   257  LEU257      0.0270
     49  CG        38.3550   -2.6780   10.0890 C.3   257  LEU257      0.0019
     50  CD1       39.6540   -3.1880    9.4960 C.3   257  LEU257      0.0001
     51  CD2       38.5250   -2.3130   11.5390 C.3   257  LEU257      0.0001
     52  N         36.8450   -6.3490   10.5460 N.3   259  THR259     -0.1203
     53  CA        37.7860   -6.7570   11.5760 C.3   259  THR259      0.1994
     54  C         38.5730   -8.0120   11.2590 C.2   259  THR259      0.2617
     55  O         38.0690   -8.9620   10.6760 O.2   259  THR259     -0.2717
     56  CB        37.1180   -6.9890   12.9490 C.3   259  THR259      0.1784
     57  OG1       38.1110   -7.4520   13.8710 O.3   259  THR259     -0.2211
     58  CG2       35.9590   -8.0160   12.8900 C.3   259  THR259      0.0376
     59  N         39.8240   -7.9830   11.6870 N.am  260  GLU260     -0.1979
     60  CA        40.6900   -9.1290   11.7220 C.3   260  GLU260      0.1602
     61  C         40.0840  -10.2370   12.5990 C.2   260  GLU260      0.2287
     62  O         40.4280  -11.4070   12.4610 O.2   260  GLU260     -0.2864
     63  CB        42.0320   -8.6610   12.2720 C.3   260  GLU260      0.0415
     64  CG        43.0850   -9.7240   12.4960 C.3   260  GLU260      0.1163
     65  CD        44.4630   -9.1390   12.3860 C.2   260  GLU260      0.3649
     66  OE1       45.1720   -9.0340   13.4030 O.co2 260  GLU260     -0.2457
     67  OE2       44.8060   -8.7200   11.2700 O.co2 260  GLU260     -0.2457
     68  N         49.8990   -8.3870    9.9500 N.3   291  ARG291     -0.1245
     69  CA        49.2190   -7.5860    8.9520 C.3   291  ARG291      0.1563
     70  C         50.1010   -7.2240    7.7630 C.2   291  ARG291      0.2260
     71  O         49.6430   -7.2430    6.6170 O.2   291  ARG291     -0.2867
     72  CB        48.6440   -6.3080    9.6070 C.3   291  ARG291      0.0307
     73  CG        47.1510   -6.3820    9.8670 C.3   291  ARG291      0.0489
     74  CD        46.7020   -6.5390   11.3060 C.3   291  ARG291      0.2205
     75  NE        46.3480   -5.2560   11.8830 N.pl3 291  ARG291     -0.0865
     76  CZ        45.3170   -4.9890   12.6890 C.cat 291  ARG291      0.5346
     77  NH1       45.1870   -3.7410   13.1300 N.pl3 291  ARG291      0.1354
     78  NH2       44.4270   -5.9040   13.0660 N.pl3 291  ARG291      0.1354
     79  N         45.3530    2.1840    7.2660 N.3   358  HIS358     -0.1241
     80  CA        44.5780    1.9310    8.4790 C.3   358  HIS358      0.1621
     81  C         45.1390    2.5510    9.7510 C.2   358  HIS358      0.2264
     82  O         44.3960    3.0990   10.5430 O.2   358  HIS358     -0.2867
     83  CB        44.5270    0.4220    8.6570 C.3   358  HIS358      0.0745
     84  CG        43.7750   -0.0330    9.8660 C.ar  358  HIS358      0.0817
     85  ND1       42.4300    0.1930   10.0380 N.ar  358  HIS358     -0.2268
     86  CD2       44.1730   -0.7630   10.9310 C.ar  358  HIS358      0.1154
     87  CE1       42.0400   -0.3400   11.1790 C.ar  358  HIS358      0.1986
     88  NE2       43.0760   -0.9410   11.7320 N.ar  358  HIS358     -0.2212
     89  N         52.4840   -2.6340   13.6760 N.3   403  ARG403     -0.1245
     90  CA        51.5950   -2.7600   14.8170 C.3   403  ARG403      0.1563
     91  C         50.7810   -4.0580   14.7810 C.2   403  ARG403      0.2260
     92  O         50.1490   -4.3870   13.7810 O.2   403  ARG403     -0.2867
     93  CB        50.6480   -1.5800   14.8770 C.3   403  ARG403      0.0307
     94  CG        49.5990   -1.7200   15.9550 C.3   403  ARG403      0.0489
     95  CD        48.2490   -1.2600   15.4790 C.3   403  ARG403      0.2205
     96  NE        47.1970   -2.0840   16.0430 N.pl3 403  ARG403     -0.0865
     97  CZ        45.9180   -1.9760   15.7190 C.cat 403  ARG403      0.5346
     98  NH1       45.5010   -1.0660   14.8370 N.pl3 403  ARG403      0.1354
     99  NH2       45.0550   -2.8040   16.2690 N.pl3 403  ARG403      0.1354
    100  N         44.9680   -5.3870   17.7710 N.3   406  ALA406     -0.1245
    101  CA        44.4930   -5.2180   19.1300 C.3   406  ALA406      0.1562
    102  C         45.4690   -4.6030   20.1270 C.2   406  ALA406      0.2260
    103  O         45.0980   -4.4360   21.2890 O.2   406  ALA406     -0.2867
    104  CB        43.9030   -6.5400   19.6680 C.3   406  ALA406      0.0290
@<TRIPOS>BOND
     1    37    36    2
     2    36    35    1
     3    34    35    1
     4    71    70    2
     5    35    38    1
     6    79    80    1
     7    44    45    1
     8    70    69    1
     9    38    39    1
    10    45    46    1
    11    45    48    1
    12    40    39   ar
    13    40    42   ar
    14    46    47    2
    15    80    83    1
    16    80    81    1
    17    83    84    1
    18    39    41   ar
    19    69    72    1
    20    69    68    1
    21    42    43   ar
    22    48    49    1
    23    50    49    1
    24    72    73    1
    25    81    82    2
    26    84    85   ar
    27    84    86   ar
    28    73    74    1
    29    85    87   ar
    30    41    43   ar
    31    49    51    1
    32    52    53    1
    33    55    54    2
    34    86    88   ar
    35    87    88   ar
    36    54    53    1
    37    54    59   am
    38    67    65   ar
    39    74    75    1
    40    53    56    1
    41    14    12   am
    42    59    60    1
    43    60    63    1
    44    60    61    1
    45    75    76    2
    46    13    12    2
    47    63    64    1
    48    65    64    1
    49    65    66   ar
    50    62    61    2
    51    12    11    1
    52    76    78    1
    53    76    77    1
    54    58    56    1
    55    56    57    1
    56    89    90    1
    57    92    91    2
    58    11    10    1
    59    91    90    1
    60    10     7    1
    61    90    93    1
    62    98    97    1
    63    93    94    1
    64    26    25    2
    65    25    24    1
    66    95    94    1
    67    95    96    1
    68    97    96    2
    69    97    99    1
    70    33    31   ar
    71    33    32   ar
    72    31    29   ar
    73    24    23    1
    74    24    27    1
    75    32    30   ar
    76     7     6    1
    77     7     8    1
    78     1     2    1
    79     6     3   am
    80    29    28   ar
    81     2     3    1
    82     2     5    1
    83    30    28   ar
    84    28    27    1
    85    15    16    1
    86    15     8   am
    87     3     4    2
    88    16    17    1
    89     8     9    2
    90   100   101    1
    91    17    18    2
    92    17    19   am
    93    19    20    1
    94   101   104    1
    95   101   102    1
    96   102   103    2
    97    22    21    2
    98    20    21    1
