@<TRIPOS>MOLECULE
tmp/4ysxG02.pdb
 120 113 0 0 0
SMALL
GASTEIGER

@<TRIPOS>ATOM
      1  N        -11.6050   15.5500   22.1310 N.3    48  ALA48      -0.1231
      2  CA       -12.8780   15.8890   21.4880 C.3    48  ALA48       0.1694
      3  C        -14.0450   15.3840   22.3120 C.2    48  ALA48       0.2591
      4  O        -15.0570   16.0660   22.4590 O.2    48  ALA48      -0.2718
      5  CB       -12.9540   15.3060   20.0960 C.3    48  ALA48       0.0304
      6  N        -13.8890   14.1740   22.8330 N.am   49  MET49      -0.1979
      7  CA       -14.8910   13.5650   23.6770 C.3    49  MET49       0.1605
      8  C        -15.0240   14.3310   24.9810 C.2    49  MET49       0.2287
      9  O        -16.1310   14.5220   25.4740 O.2    49  MET49      -0.2864
     10  CB       -14.5220   12.1070   23.9820 C.3    49  MET49       0.0413
     11  CG       -14.6060   11.1930   22.7780 C.3    49  MET49       0.0598
     12  SD       -14.6500    9.4590   23.2520 S.3    49  MET49      -0.1393
     13  CE       -12.9380    9.1340   23.6800 C.3    49  MET49       0.0692
     14  N        -16.5980   17.6330   24.2930 N.3    52  THR52      -0.1203
     15  CA       -18.0180   17.3880   24.0680 C.3    52  THR52       0.1994
     16  C        -18.7670   17.2180   25.3810 C.2    52  THR52       0.2617
     17  O        -19.8960   17.6680   25.5000 O.2    52  THR52      -0.2717
     18  CB       -18.2500   16.1440   23.1900 C.3    52  THR52       0.1784
     19  OG1      -17.6880   16.3730   21.9020 O.3    52  THR52      -0.2211
     20  CG2      -19.7310   15.8520   23.0430 C.3    52  THR52       0.0376
     21  N        -18.1470   16.5720   26.3610 N.am   53  LEU53      -0.1979
     22  CA       -18.8040   16.3710   27.6560 C.3    53  LEU53       0.1596
     23  C        -18.9080   17.6720   28.4550 C.2    53  LEU53       0.2287
     24  O        -19.9220   17.9270   29.1110 O.2    53  LEU53      -0.2864
     25  CB       -18.0810   15.3150   28.4780 C.3    53  LEU53       0.0297
     26  CG       -18.2390   13.8790   27.9830 C.3    53  LEU53       0.0022
     27  CD1      -17.2920   12.9870   28.7710 C.3    53  LEU53       0.0001
     28  CD2      -19.6730   13.3680   28.1020 C.3    53  LEU53       0.0001
     29  N        -19.4000    9.3400   13.5850 N.3    90  ILE90      -0.1231
     30  CA       -18.4790   10.3400   14.1140 C.3    90  ILE90       0.1692
     31  C        -18.5060   10.3990   15.6480 C.2    90  ILE90       0.2592
     32  O        -17.4910   10.6920   16.2870 O.2    90  ILE90      -0.2718
     33  CB       -18.7760   11.7320   13.4990 C.3    90  ILE90       0.0266
     34  CG1      -18.3360   11.7590   12.0290 C.3    90  ILE90       0.0019
     35  CG2      -18.0800   12.8540   14.2650 C.3    90  ILE90       0.0020
     36  CD1      -18.9940   12.8550   11.2060 C.3    90  ILE90       0.0001
     37  N        -19.6550   10.1190   16.2440 N.am   91  ILE91      -0.1966
     38  CA       -19.7320   10.0280   17.7010 C.3    91  ILE91       0.1727
     39  C        -19.1520    8.7030   18.2190 C.2    91  ILE91       0.2616
     40  O        -18.4610    8.6720   19.2490 O.2    91  ILE91      -0.2715
     41  CB       -21.1870   10.2310   18.1980 C.3    91  ILE91       0.0290
     42  CG1      -21.5830   11.7090   18.0360 C.3    91  ILE91       0.0022
     43  CG2      -21.3380    9.8030   19.6620 C.3    91  ILE91       0.0023
     44  CD1      -23.0760   11.9780   18.1020 C.3    91  ILE91       0.0001
     45  N        -19.4360    7.6040   17.5240 N.am   92  ALA92      -0.1977
     46  CA       -19.0200    6.2730   18.0090 C.3    92  ALA92       0.1597
     47  C        -17.5380    5.9460   17.7760 C.2    92  ALA92       0.2287
     48  O        -16.9220    5.2340   18.5870 O.2    92  ALA92      -0.2864
     49  CB       -19.8910    5.1870   17.4040 C.3    92  ALA92       0.0319
     50  N        -14.6060    7.7740   17.8150 N.3    94  PRO94      -0.2102
     51  CA       -13.6970    8.2040   18.8650 C.3    94  PRO94       0.1504
     52  C        -13.7590    7.3370   20.1000 C.2    94  PRO94       0.2576
     53  O        -12.7290    7.0430   20.6930 O.2    94  PRO94      -0.2718
     54  CB       -14.1980    9.6110   19.2170 C.3    94  PRO94       0.0282
     55  CG       -14.8430   10.1040   17.9940 C.3    94  PRO94       0.0208
     56  CD       -15.3880    8.8980   17.2740 C.3    94  PRO94       0.0893
     57  N        -14.9650    6.9510   20.5010 N.am   95  ILE95      -0.1966
     58  CA       -15.1400    6.1530   21.7110 C.3    95  ILE95       0.1727
     59  C        -14.4620    4.7890   21.5430 C.2    95  ILE95       0.2616
     60  O        -13.7400    4.3250   22.4370 O.2    95  ILE95      -0.2715
     61  CB       -16.6350    5.9690   22.0560 C.3    95  ILE95       0.0290
     62  CG1      -17.2580    7.3120   22.4510 C.3    95  ILE95       0.0022
     63  CG2      -16.8160    4.9390   23.1670 C.3    95  ILE95       0.0023
     64  CD1      -18.7700    7.3390   22.3490 C.3    95  ILE95       0.0001
     65  N        -14.6810    4.1710   20.3880 N.am   96  ALA96      -0.1977
     66  CA       -14.1620    2.8340   20.1260 C.3    96  ALA96       0.1597
     67  C        -12.6510    2.8640   19.8680 C.2    96  ALA96       0.2287
     68  O        -11.9120    2.0690   20.4410 O.2    96  ALA96      -0.2864
     69  CB       -14.8950    2.1990   18.9450 C.3    96  ALA96       0.0319
     70  N        -10.6010    3.8020   23.1650 N.3    99  THR99      -0.1203
     71  CA       -10.6190    2.6960   24.1220 C.3    99  THR99       0.1994
     72  C         -9.6480    1.6010   23.6780 C.2    99  THR99       0.2617
     73  O         -8.8280    1.1450   24.4540 O.2    99  THR99      -0.2717
     74  CB       -12.0190    2.0620   24.2230 C.3    99  THR99       0.1784
     75  OG1      -12.9840    3.0720   24.4960 O.3    99  THR99      -0.2211
     76  CG2      -12.0710    0.9740   25.3110 C.3    99  THR99       0.0376
     77  N         -9.7520    1.2040   22.4150 N.am  100  LEU100     -0.1979
     78  CA        -8.9080    0.1540   21.8410 C.3   100  LEU100      0.1596
     79  C         -7.4460    0.5500   21.8080 C.2   100  LEU100      0.2287
     80  O         -6.5970   -0.1930   22.2850 O.2   100  LEU100     -0.2864
     81  CB        -9.3830   -0.1830   20.4200 C.3   100  LEU100      0.0297
     82  CG       -10.3700   -1.3410   20.2400 C.3   100  LEU100      0.0022
     83  CD1      -10.9560   -1.8930   21.5270 C.3   100  LEU100      0.0001
     84  CD2      -11.4650   -0.9430   19.2700 C.3   100  LEU100      0.0001
     85  N         -5.8850    0.5480   25.1610 N.3   103  ILE103     -0.1245
     86  CA        -5.3380   -0.7140   25.6760 C.3   103  ILE103      0.1561
     87  C         -3.9580   -0.9550   25.0180 C.2   103  ILE103      0.2260
     88  O         -3.0180   -1.3900   25.6860 O.2   103  ILE103     -0.2867
     89  CB        -6.3380   -1.9220   25.6360 C.3   103  ILE103      0.0252
     90  CG1       -6.0460   -2.8980   24.5040 C.3   103  ILE103      0.0019
     91  CG2       -7.8070   -1.4790   25.6200 C.3   103  ILE103      0.0019
     92  CD1       -5.1560   -4.0440   24.9450 C.3   103  ILE103      0.0001
     93  N        -16.7440   -1.7880   14.6920 N.3   133  ILE133     -0.1231
     94  CA       -17.6670   -1.5780   15.7920 C.3   133  ILE133      0.1692
     95  C        -18.4720   -0.2970   15.5890 C.2   133  ILE133      0.2592
     96  O        -19.6720   -0.2880   15.8060 O.2   133  ILE133     -0.2718
     97  CB       -16.9240   -1.4940   17.1360 C.3   133  ILE133      0.0266
     98  CG1      -16.3440   -2.8610   17.5090 C.3   133  ILE133      0.0019
     99  CG2      -17.8630   -1.0150   18.2320 C.3   133  ILE133      0.0020
    100  CD1      -15.2170   -2.8030   18.5240 C.3   133  ILE133      0.0001
    101  N        -17.8210    0.7790   15.1690 N.am  134  SER134     -0.1952
    102  CA       -18.5310    2.0470   14.9520 C.3   134  SER134      0.1924
    103  C        -19.5620    1.9550   13.8300 C.2   134  SER134      0.2314
    104  O        -20.5770    2.6530   13.8500 O.2   134  SER134     -0.2863
    105  CB       -17.5440    3.1710   14.6630 C.3   134  SER134      0.2116
    106  OG       -16.7100    3.3560   15.7830 O.3   134  SER134     -0.2180
    107  N        -22.6740   -0.5800   15.3100 N.3   137  VAL137     -0.1245
    108  CA       -23.5170    0.1590   16.2360 C.3   137  VAL137      0.1561
    109  C        -24.4330    1.1990   15.5410 C.2   137  VAL137      0.2260
    110  O        -25.4260    1.6410   16.1160 O.2   137  VAL137     -0.2867
    111  CB       -22.6110    0.7580   17.3480 C.3   137  VAL137      0.0252
    112  CG1      -23.0350    2.1520   17.7900 C.3   137  VAL137      0.0019
    113  CG2      -22.5410   -0.2050   18.5210 C.3   137  VAL137      0.0019
    114  N        -28.9740   -1.1210   13.9890 N.3   141  PRO141     -0.2116
    115  CA       -30.2810   -0.5000   14.2700 C.3   141  PRO141      0.1372
    116  C        -31.0070    0.0790   13.0510 C.2   141  PRO141      0.2244
    117  O        -32.2330    0.0190   12.9920 O.2   141  PRO141     -0.2868
    118  CB       -29.9470    0.6300   15.2660 C.3   141  PRO141      0.0268
    119  CG       -28.4630    0.7060   15.3380 C.3   141  PRO141      0.0207
    120  CD       -27.9440   -0.6410   14.9250 C.3   141  PRO141      0.0892
@<TRIPOS>BOND
     1    36    34    1
     2    34    33    1
     3   117   116    2
     4   116   115    1
     5    33    30    1
     6    33    35    1
     7    29    30    1
     8   103   104    2
     9   103   102    1
    10   114   115    1
    11   114   120    1
    12    30    31    1
    13   115   118    1
    14   105   102    1
    15   105   106    1
    16    93    94    1
    17   120   119    1
    18   102   101    1
    19   101    95   am
    20   118   119    1
    21   107   108    1
    22   109   110    2
    23   109   108    1
    24    95    94    1
    25    95    96    2
    26    31    37   am
    27    31    32    2
    28    94    97    1
    29   108   111    1
    30    37    38    1
    31    97    98    1
    32    97    99    1
    33    56    50    1
    34    56    55    1
    35   111   112    1
    36   111   113    1
    37    49    46    1
    38    98   100    1
    39    45    46    1
    40    45    39   am
    41    38    41    1
    42    38    39    1
    43    47    46    1
    44    47    48    2
    45    50    51    1
    46    55    54    1
    47    42    44    1
    48    42    41    1
    49    41    43    1
    50    39    40    2
    51    51    54    1
    52    51    52    1
    53    69    66    1
    54    84    82    1
    55    67    66    1
    56    67    68    2
    57     5     2    1
    58    52    57   am
    59    52    53    2
    60    66    65    1
    61    82    81    1
    62    82    83    1
    63    65    59   am
    64    81    78    1
    65    57    58    1
    66     2     1    1
    67     2     3    1
    68    59    58    1
    69    59    60    2
    70    58    61    1
    71    79    78    1
    72    79    80    2
    73    78    77    1
    74    19    18    1
    75    61    62    1
    76    61    63    1
    77     3     4    2
    78     3     6   am
    79    64    62    1
    80    77    72   am
    81    11    12    1
    82    11    10    1
    83     6     7    1
    84    20    18    1
    85    70    71    1
    86    18    15    1
    87    12    13    1
    88     7    10    1
    89     7     8    1
    90    72    71    1
    91    72    73    2
    92    15    14    1
    93    15    16    1
    94    71    74    1
    95    74    75    1
    96    74    76    1
    97    90    92    1
    98    90    89    1
    99     8     9    2
   100    87    86    1
   101    87    88    2
   102    85    86    1
   103    16    17    2
   104    16    21   am
   105    91    89    1
   106    89    86    1
   107    21    22    1
   108    22    23    1
   109    22    25    1
   110    26    28    1
   111    26    25    1
   112    26    27    1
   113    23    24    2
