@<TRIPOS>MOLECULE
tmp/4ysxG00.pdb
 116 110 0 0 0
SMALL
GASTEIGER

@<TRIPOS>ATOM
      1  N         -5.1970    9.6730   18.9160 N.3    42  HIS42      -0.1226
      2  CA        -5.5590    9.2570   20.2540 C.3    42  HIS42       0.1752
      3  C         -5.7880   10.4620   21.1500 C.2    42  HIS42       0.2595
      4  O         -6.7280   10.4870   21.9420 O.2    42  HIS42      -0.2718
      5  CB        -4.4640    8.3930   20.8390 C.3    42  HIS42       0.0759
      6  CG        -4.7940    7.8560   22.1850 C.ar   42  HIS42       0.0818
      7  ND1       -5.6940    6.8330   22.3710 N.ar   42  HIS42      -0.2268
      8  CD2       -4.3450    8.1920   23.4110 C.ar   42  HIS42       0.1154
      9  CE1       -5.7760    6.5500   23.6570 C.ar   42  HIS42       0.1986
     10  NE2       -4.9660    7.3600   24.3090 N.ar   42  HIS42      -0.2212
     11  N         -4.9260   11.4590   21.0110 N.am   43  ARG43      -0.1980
     12  CA        -5.0960   12.7230   21.7070 C.3    43  ARG43       0.1597
     13  C         -6.3000   13.5090   21.2110 C.2    43  ARG43       0.2287
     14  O         -7.0880   13.9960   22.0160 O.2    43  ARG43      -0.2864
     15  CB        -3.8450   13.5800   21.5530 C.3    43  ARG43       0.0334
     16  CG        -3.9430   14.9320   22.2320 C.3    43  ARG43       0.0492
     17  CD        -2.5760   15.4300   22.6410 C.3    43  ARG43       0.2205
     18  NE        -2.1100   14.7390   23.8430 N.pl3  43  ARG43      -0.0865
     19  CZ        -1.0620   15.1220   24.5560 C.cat  43  ARG43       0.5346
     20  NH1       -0.3480   16.1740   24.1830 N.pl3  43  ARG43       0.1354
     21  NH2       -0.7140   14.4500   25.6340 N.pl3  43  ARG43       0.1354
     22  N         -9.6210   11.6570   22.4060 N.3    46  GLY46      -0.1210
     23  CA        -9.7620   11.9380   23.8230 C.3    46  GLY46       0.1956
     24  C        -10.1850   13.3680   24.1310 C.2    46  GLY46       0.2612
     25  O        -11.1340   13.5760   24.8760 O.2    46  GLY46      -0.2717
     26  N         -9.4990   14.3550   23.5640 N.am   47  CYS47      -0.1970
     27  CA        -9.8540   15.7700   23.8280 C.3    47  CYS47       0.1712
     28  C        -11.2180   16.1570   23.2520 C.2    47  CYS47       0.2296
     29  O        -11.9120   17.0000   23.8250 O.2    47  CYS47      -0.2864
     30  CB        -8.7690   16.7370   23.3190 C.3    47  CYS47       0.0983
     31  SG        -7.2390   16.6850   24.2960 S.3    47  CYS47      -0.0798
     32  N        -13.8890   14.1740   22.8330 N.3    49  MET49      -0.1230
     33  CA       -14.8910   13.5650   23.6770 C.3    49  MET49       0.1702
     34  C        -15.0240   14.3310   24.9810 C.2    49  MET49       0.2592
     35  O        -16.1310   14.5220   25.4740 O.2    49  MET49      -0.2718
     36  CB       -14.5220   12.1070   23.9820 C.3    49  MET49       0.0401
     37  CG       -14.6060   11.1930   22.7780 C.3    49  MET49       0.0596
     38  SD       -14.6500    9.4590   23.2520 S.3    49  MET49      -0.1393
     39  CE       -12.9380    9.1340   23.6800 C.3    49  MET49       0.0692
     40  N        -13.8930   14.7330   25.5530 N.am   50  ALA50      -0.1980
     41  CA       -13.8900   15.4720   26.8150 C.3    50  ALA50       0.1597
     42  C        -14.4570   16.8750   26.6140 C.2    50  ALA50       0.2287
     43  O        -15.1720   17.3780   27.4490 O.2    50  ALA50      -0.2864
     44  CB       -12.4790   15.5610   27.3790 C.3    50  ALA50       0.0319
     45  N        -18.1470   16.5720   26.3610 N.3    53  LEU53      -0.1245
     46  CA       -18.8040   16.3710   27.6560 C.3    53  LEU53       0.1561
     47  C        -18.9080   17.6720   28.4550 C.2    53  LEU53       0.2260
     48  O        -19.9220   17.9270   29.1110 O.2    53  LEU53      -0.2867
     49  CB       -18.0810   15.3150   28.4780 C.3    53  LEU53       0.0270
     50  CG       -18.2390   13.8790   27.9830 C.3    53  LEU53       0.0019
     51  CD1      -17.2920   12.9870   28.7710 C.3    53  LEU53       0.0001
     52  CD2      -19.6730   13.3680   28.1020 C.3    53  LEU53       0.0001
     53  N        -14.9650    6.9510   20.5010 N.3    95  ILE95      -0.1245
     54  CA       -15.1400    6.1530   21.7110 C.3    95  ILE95       0.1561
     55  C        -14.4620    4.7890   21.5430 C.2    95  ILE95       0.2260
     56  O        -13.7400    4.3250   22.4370 O.2    95  ILE95      -0.2867
     57  CB       -16.6350    5.9690   22.0560 C.3    95  ILE95       0.0252
     58  CG1      -17.2580    7.3120   22.4510 C.3    95  ILE95       0.0019
     59  CG2      -16.8160    4.9390   23.1670 C.3    95  ILE95       0.0019
     60  CD1      -18.7700    7.3390   22.3490 C.3    95  ILE95       0.0001
     61  N        -10.3220    5.1800   20.6950 N.3    98  HIS98      -0.1226
     62  CA        -9.5830    5.6220   21.8840 C.3    98  HIS98       0.1752
     63  C         -9.5090    4.5440   22.9800 C.2    98  HIS98       0.2596
     64  O         -8.4750    4.4030   23.6590 O.2    98  HIS98      -0.2718
     65  CB       -10.2220    6.9040   22.4320 C.3    98  HIS98       0.0759
     66  CG        -9.4670    7.5250   23.5600 C.ar   98  HIS98       0.0818
     67  ND1       -8.6010    8.5840   23.3880 N.ar   98  HIS98      -0.2268
     68  CD2       -9.4380    7.2250   24.8770 C.ar   98  HIS98       0.1154
     69  CE1       -8.0730    8.9100   24.5520 C.ar   98  HIS98       0.1986
     70  NE2       -8.5710    8.1030   25.4710 N.ar   98  HIS98      -0.2212
     71  N        -10.6010    3.8020   23.1650 N.am   99  THR99      -0.1953
     72  CA       -10.6190    2.6960   24.1220 C.3    99  THR99       0.1897
     73  C         -9.6480    1.6010   23.6780 C.2    99  THR99       0.2313
     74  O         -8.8280    1.1450   24.4540 O.2    99  THR99      -0.2863
     75  CB       -12.0190    2.0620   24.2230 C.3    99  THR99       0.1794
     76  OG1      -12.9840    3.0720   24.4960 O.3    99  THR99      -0.2208
     77  CG2      -12.0710    0.9740   25.3110 C.3    99  THR99       0.0378
     78  N         -6.2040    2.7980   23.5640 N.3   102  GLY102     -0.1210
     79  CA        -5.8700    2.9800   24.9670 C.3   102  GLY102      0.1956
     80  C         -5.3150    1.6940   25.5430 C.2   102  GLY102      0.2611
     81  O         -4.3450    1.7300   26.3130 O.2   102  GLY102     -0.2717
     82  N         -5.8850    0.5480   25.1610 N.am  103  ILE103     -0.1979
     83  CA        -5.3380   -0.7140   25.6760 C.3   103  ILE103      0.1595
     84  C         -3.9580   -0.9550   25.0180 C.2   103  ILE103      0.2287
     85  O         -3.0180   -1.3900   25.6860 O.2   103  ILE103     -0.2864
     86  CB        -6.3380   -1.9220   25.6360 C.3   103  ILE103      0.0276
     87  CG1       -6.0460   -2.8980   24.5040 C.3   103  ILE103      0.0022
     88  CG2       -7.8070   -1.4790   25.6200 C.3   103  ILE103      0.0022
     89  CD1       -5.1560   -4.0440   24.9450 C.3   103  ILE103      0.0001
     90  N         -1.7810    1.3600   24.0280 N.3   105  PHE105     -0.1227
     91  CA        -0.8440    2.2650   24.6970 C.3   105  PHE105      0.1736
     92  C         -0.4520    1.7950   26.1000 C.2   105  PHE105      0.2595
     93  O          0.6800    1.9870   26.5330 O.2   105  PHE105     -0.2718
     94  CB        -1.4320    3.6700   24.7370 C.3   105  PHE105      0.0547
     95  CG        -1.1970    4.4820   23.4800 C.ar  105  PHE105     -0.0202
     96  CD1       -1.4080    5.8570   23.4970 C.ar  105  PHE105     -0.0042
     97  CD2       -0.7360    3.8970   22.2950 C.ar  105  PHE105     -0.0042
     98  CE1       -1.1770    6.6300   22.3650 C.ar  105  PHE105     -0.0003
     99  CE2       -0.5040    4.6670   21.1630 C.ar  105  PHE105     -0.0003
    100  CZ        -0.7170    6.0320   21.1980 C.ar  105  PHE105     -0.0000
    101  N         -1.3720    1.1640   26.8140 N.am  106  ILE106     -0.1980
    102  CA        -1.0380    0.6260   28.1230 C.3   106  ILE106      0.1595
    103  C         -0.0200   -0.5040   27.9410 C.2   106  ILE106      0.2287
    104  O          0.9570   -0.5810   28.6820 O.2   106  ILE106     -0.2864
    105  CB        -2.3170    0.1670   28.8610 C.3   106  ILE106      0.0276
    106  CG1       -3.1160    1.4100   29.2860 C.3   106  ILE106      0.0022
    107  CG2       -1.9860   -0.6890   30.0800 C.3   106  ILE106      0.0022
    108  CD1       -4.5650    1.1250   29.5950 C.3   106  ILE106      0.0001
    109  N          3.3080    1.0260   27.6680 N.3   109  ASP109     -0.1239
    110  CA         3.8010    1.4480   28.9900 C.3   109  ASP109      0.1674
    111  C          4.4110    0.2680   29.7310 C.2   109  ASP109      0.2266
    112  O          5.3260    0.4420   30.5310 O.2   109  ASP109     -0.2867
    113  CB         2.6840    2.0480   29.8540 C.3   109  ASP109      0.1410
    114  CG         2.1730    3.3830   29.3280 C.2   109  ASP109      0.3668
    115  OD1        3.0090    4.2670   29.0420 O.co2 109  ASP109     -0.2456
    116  OD2        0.9300    3.5580   29.2360 O.co2 109  ASP109     -0.2456
@<TRIPOS>BOND
     1     1     2    1
     2     2     5    1
     3     2     3    1
     4    53    54    1
     5    61    62    1
     6     5     6    1
     7    11     3   am
     8    11    12    1
     9     3     4    2
    10    99   100   ar
    11    99    97   ar
    12   100    98   ar
    13    13    12    1
    14    13    14    2
    15    55    54    1
    16    55    56    2
    17    15    12    1
    18    15    16    1
    19    54    57    1
    20    62    65    1
    21    62    63    1
    22    57    58    1
    23    57    59    1
    24     6     7   ar
    25     6     8   ar
    26    16    17    1
    27    97    95   ar
    28    60    58    1
    29    98    96   ar
    30     7     9   ar
    31    22    23    1
    32    65    66    1
    33    17    18    1
    34    37    38    1
    35    37    36    1
    36    32    33    1
    37    63    71   am
    38    63    64    2
    39    71    72    1
    40    38    39    1
    41    28    29    2
    42    28    27    1
    43    30    27    1
    44    30    31    1
    45    67    66   ar
    46    67    69   ar
    47     8    10   ar
    48    95    96   ar
    49    95    94    1
    50    66    68   ar
    51    78    79    1
    52    26    27    1
    53    26    24   am
    54     9    10   ar
    55    33    36    1
    56    33    34    1
    57    73    72    1
    58    73    74    2
    59    23    24    1
    60    18    19    2
    61    90    91    1
    62    72    75    1
    63    24    25    2
    64    20    19    1
    65    75    76    1
    66    75    77    1
    67    87    89    1
    68    87    86    1
    69    69    70   ar
    70    19    21    1
    71    91    94    1
    72    91    92    1
    73    68    70   ar
    74    79    80    1
    75    34    35    2
    76    34    40   am
    77    84    83    1
    78    84    85    2
    79    82    80   am
    80    82    83    1
    81    80    81    2
    82    40    41    1
    83    88    86    1
    84    86    83    1
    85    92    93    2
    86    92   101   am
    87    45    46    1
    88    42    41    1
    89    42    43    2
    90   101   102    1
    91    41    44    1
    92    46    47    1
    93    46    49    1
    94   109   110    1
    95   103   102    1
    96   103   104    2
    97    50    52    1
    98    50    49    1
    99    50    51    1
   100   102   105    1
   101    47    48    2
   102   105   106    1
   103   105   107    1
   104   110   111    1
   105   110   113    1
   106   115   114   ar
   107   116   114   ar
   108   106   108    1
   109   114   113    1
   110   111   112    2
