@<TRIPOS>MOLECULE
tmp/4yszD01.pdb
 132 131 0 0 0
SMALL
GASTEIGER

@<TRIPOS>ATOM
      1  N        105.0800    2.5310   55.6690 N.3    43  VAL43      -0.1231
      2  CA       105.3700    2.0940   57.0290 C.3    43  VAL43       0.1678
      3  C        106.6390    1.2270   57.0500 C.2    43  VAL43       0.2434
      4  O        107.5380    1.4810   57.8480 O.2    43  VAL43      -0.2733
      5  CB       104.1660    1.3940   57.6960 C.3    43  VAL43       0.0265
      6  CG1      104.5020    0.9870   59.1310 C.3    43  VAL43       0.0020
      7  CG2      102.9580    2.3240   57.6790 C.3    43  VAL43       0.0020
      8  N        106.7330    0.2180   56.1640 N.am   44  PRO44      -0.2729
      9  CA       108.0190   -0.4750   56.1020 C.3    44  PRO44       0.1401
     10  C        109.1910    0.4720   55.8440 C.2    44  PRO44       0.2269
     11  O        110.1950    0.4100   56.5440 O.2    44  PRO44      -0.2865
     12  CB       107.8530   -1.4450   54.9190 C.3    44  PRO44       0.0296
     13  CG       106.4010   -1.4830   54.5840 C.3    44  PRO44       0.0237
     14  CD       105.6650   -0.5450   55.4970 C.3    44  PRO44       0.0939
     15  N        110.0190    3.6170   56.3270 N.3    46  ILE46      -0.1231
     16  CA       110.5910    4.5700   57.2730 C.3    46  ILE46       0.1678
     17  C        111.7100    3.9800   58.1510 C.2    46  ILE46       0.2434
     18  O        112.7550    4.6100   58.3050 O.2    46  ILE46      -0.2733
     19  CB       109.4930    5.2930   58.0940 C.3    46  ILE46       0.0265
     20  CG1      109.1360    6.6260   57.4250 C.3    46  ILE46       0.0019
     21  CG2      109.9570    5.6220   59.5080 C.3    46  ILE46       0.0020
     22  CD1      108.6940    6.5160   55.9810 C.3    46  ILE46       0.0001
     23  N        111.5010    2.7800   58.7270 N.am   47  PRO47      -0.2729
     24  CA       112.5930    2.1040   59.4340 C.3    47  PRO47       0.1401
     25  C        113.6190    1.4680   58.4840 C.2    47  PRO47       0.2269
     26  O        114.8120    1.4650   58.7910 O.2    47  PRO47      -0.2865
     27  CB       111.8760    1.0360   60.2630 C.3    47  PRO47       0.0296
     28  CG       110.6060    0.7830   59.5450 C.3    47  PRO47       0.0237
     29  CD       110.2130    2.1010   58.9430 C.3    47  PRO47       0.0939
     30  N        114.8620    2.8090   56.1320 N.3    49  ALA49      -0.1231
     31  CA       115.8270    3.9090   55.9520 C.3    49  ALA49       0.1694
     32  C        116.5770    4.3210   57.2290 C.2    49  ALA49       0.2592
     33  O        117.5420    5.0920   57.1530 O.2    49  ALA49      -0.2718
     34  CB       115.1410    5.1270   55.3480 C.3    49  ALA49       0.0304
     35  N        116.1290    3.8490   58.3920 N.am   50  TYR50      -0.1962
     36  CA       116.9040    4.0100   59.6230 C.3    50  TYR50       0.1771
     37  C        118.1700    3.1800   59.5150 C.2    50  TYR50       0.2619
     38  O        119.2770    3.6480   59.7950 O.2    50  TYR50      -0.2715
     39  CB       116.1200    3.5370   60.8520 C.3    50  TYR50       0.0574
     40  CG       116.9020    3.7320   62.1280 C.ar   50  TYR50      -0.0198
     41  CD1      116.9510    4.9800   62.7330 C.ar   50  TYR50      -0.0009
     42  CD2      117.6200    2.6900   62.7090 C.ar   50  TYR50      -0.0009
     43  CE1      117.6740    5.1960   63.8850 C.ar   50  TYR50       0.0417
     44  CE2      118.3550    2.8950   63.8690 C.ar   50  TYR50       0.0417
     45  CZ       118.3750    4.1590   64.4480 C.ar   50  TYR50       0.1957
     46  OH       119.0850    4.4270   65.5910 O.3    50  TYR50      -0.2866
     47  N        117.9690    1.9320   59.1070 N.am   51  PHE51      -0.1974
     48  CA       119.0400    0.9670   58.9440 C.3    51  PHE51       0.1639
     49  C        119.8030    1.1770   57.6210 C.2    51  PHE51       0.2290
     50  O        120.9140    1.7110   57.6260 O.2    51  PHE51      -0.2864
     51  CB       118.4690   -0.4520   59.0410 C.3    51  PHE51       0.0560
     52  CG       117.7430   -0.7370   60.3380 C.ar   51  PHE51      -0.0200
     53  CD1      116.4420   -1.2490   60.3310 C.ar   51  PHE51      -0.0042
     54  CD2      118.3590   -0.5020   61.5670 C.ar   51  PHE51      -0.0042
     55  CE1      115.7810   -1.5260   61.5180 C.ar   51  PHE51      -0.0003
     56  CE2      117.6990   -0.7680   62.7540 C.ar   51  PHE51      -0.0003
     57  CZ       116.4120   -1.2840   62.7290 C.ar   51  PHE51      -0.0000
     58  N        121.1480    2.7350   54.3750 N.3    53  HIS53      -0.1241
     59  CA       121.3390    4.0760   53.8200 C.3    53  HIS53       0.1621
     60  C        121.7270    4.0340   52.3370 C.2    53  HIS53       0.2264
     61  O        121.5740    2.9970   51.6790 O.2    53  HIS53      -0.2867
     62  CB       122.3910    4.8130   54.6490 C.3    53  HIS53       0.0745
     63  CG       121.8640    5.3150   55.9490 C.ar   53  HIS53       0.0817
     64  ND1      122.4750    6.3220   56.6610 N.ar   53  HIS53      -0.2268
     65  CD2      120.7570    4.9740   56.6490 C.ar   53  HIS53       0.1154
     66  CE1      121.7780    6.5670   57.7560 C.ar   53  HIS53       0.1986
     67  NE2      120.7270    5.7660   57.7700 N.ar   53  HIS53      -0.2212
     68  N        113.0830    7.5960   49.4050 N.3    61  LEU61      -0.1245
     69  CA       112.5690    8.5720   50.3470 C.3    61  LEU61       0.1561
     70  C        112.1320    9.8180   49.5880 C.2    61  LEU61       0.2260
     71  O        111.0200   10.3030   49.7790 O.2    61  LEU61      -0.2867
     72  CB       113.6220    8.9370   51.3880 C.3    61  LEU61       0.0270
     73  CG       113.7310    7.9800   52.5710 C.3    61  LEU61       0.0019
     74  CD1      114.9990    8.2730   53.3500 C.3    61  LEU61       0.0001
     75  CD2      112.5260    8.1090   53.4890 C.3    61  LEU61       0.0001
     76  N        108.1830   10.4560   49.6000 N.3    65  LEU65      -0.1245
     77  CA       107.8340   11.6760   50.3530 C.3    65  LEU65       0.1561
     78  C        107.3180   12.8060   49.4650 C.2    65  LEU65       0.2260
     79  O        106.5200   13.6300   49.9070 O.2    65  LEU65      -0.2867
     80  CB       109.0100   12.1900   51.1980 C.3    65  LEU65       0.0270
     81  CG       109.1610   11.6180   52.6100 C.3    65  LEU65       0.0019
     82  CD1      108.7520   10.1500   52.6690 C.3    65  LEU65       0.0001
     83  CD2      110.5860   11.8130   53.1240 C.3    65  LEU65       0.0001
     84  N        119.9400   12.6350   51.7990 N.3   119  LEU119     -0.1231
     85  CA       119.0680   12.6530   52.9870 C.3   119  LEU119      0.1693
     86  C        119.6530   11.8350   54.1190 C.2   119  LEU119      0.2592
     87  O        119.9010   12.3500   55.2030 O.2   119  LEU119     -0.2718
     88  CB       117.6650   12.1160   52.6630 C.3   119  LEU119      0.0284
     89  CG       116.6130   13.1220   52.1800 C.3   119  LEU119      0.0019
     90  CD1      115.4570   12.4210   51.4650 C.3   119  LEU119      0.0001
     91  CD2      116.1090   13.9590   53.3460 C.3   119  LEU119      0.0001
     92  N        119.8740   10.5560   53.8560 N.am  120  THR120     -0.1953
     93  CA       120.3580    9.6460   54.8810 C.3   120  THR120      0.1897
     94  C        121.6600   10.1690   55.5150 C.2   120  THR120      0.2313
     95  O        121.8030   10.1860   56.7380 O.2   120  THR120     -0.2863
     96  CB       120.5300    8.2050   54.3340 C.3   120  THR120      0.1794
     97  OG1      121.3650    8.2100   53.1740 O.3   120  THR120     -0.2208
     98  CG2      119.1830    7.5920   53.9540 C.3   120  THR120      0.0378
     99  N        121.1370   13.1740   57.7800 N.3   123  PHE123     -0.1227
    100  CA       120.6730   12.6840   59.0710 C.3   123  PHE123      0.1736
    101  C        121.8300   12.1430   59.9200 C.2   123  PHE123      0.2595
    102  O        121.8910   12.4190   61.1230 O.2   123  PHE123     -0.2718
    103  CB       119.5810   11.6130   58.9120 C.3   123  PHE123      0.0547
    104  CG       118.1840   12.1710   58.7790 C.ar  123  PHE123     -0.0202
    105  CD1      117.4560   11.9950   57.6090 C.ar  123  PHE123     -0.0042
    106  CD2      117.5960   12.8680   59.8270 C.ar  123  PHE123     -0.0042
    107  CE1      116.1760   12.5050   57.4880 C.ar  123  PHE123     -0.0003
    108  CE2      116.3190   13.3790   59.7070 C.ar  123  PHE123     -0.0003
    109  CZ       115.6080   13.1990   58.5360 C.ar  123  PHE123     -0.0000
    110  N        122.7420   11.3800   59.3090 N.am  124  GLU124     -0.1979
    111  CA       123.9160   10.8630   60.0350 C.3   124  GLU124      0.1602
    112  C        124.6520   12.0130   60.7260 C.2   124  GLU124      0.2287
    113  O        124.8880   11.9960   61.9470 O.2   124  GLU124     -0.2864
    114  CB       124.8890   10.1330   59.0920 C.3   124  GLU124      0.0415
    115  CG       124.3990    8.7910   58.5600 C.3   124  GLU124      0.1163
    116  CD       125.3880    8.1330   57.6100 C.2   124  GLU124      0.3649
    117  OE1      124.9610    7.3200   56.7590 O.co2 124  GLU124     -0.2457
    118  OE2      126.5970    8.4280   57.7070 O.co2 124  GLU124     -0.2457
    119  N        123.1970   13.5040   63.7230 N.3   127  TRP127     -0.1241
    120  CA       123.1760   12.5220   64.8020 C.3   127  TRP127      0.1605
    121  C        124.5850   12.3330   65.4110 C.2   127  TRP127      0.2264
    122  O        124.7170   12.0360   66.6010 O.2   127  TRP127     -0.2867
    123  CB       122.4990   11.1990   64.3600 C.3   127  TRP127      0.0550
    124  CG       121.1850   10.9250   65.1090 C.ar  127  TRP127      0.0003
    125  CD1      120.9960   10.0180   66.1020 C.ar  127  TRP127      0.0946
    126  CD2      119.9240   11.5910   64.9420 C.ar  127  TRP127      0.0152
    127  NE1      119.7060   10.0640   66.5580 N.ar  127  TRP127     -0.2442
    128  CE2      119.0270   11.0250   65.8630 C.ar  127  TRP127      0.0810
    129  CE3      119.4650   12.6080   64.1010 C.ar  127  TRP127      0.0012
    130  CZ2      117.6980   11.4360   65.9650 C.ar  127  TRP127      0.0191
    131  CZ3      118.1360   13.0180   64.2050 C.ar  127  TRP127      0.0001
    132  CH2      117.2740   12.4280   65.1260 C.ar  127  TRP127      0.0015
@<TRIPOS>BOND
     1    68    69    1
     2    78    79    2
     3    78    77    1
     4    70    71    2
     5    70    69    1
     6    76    77    1
     7    69    72    1
     8    77    80    1
     9    80    81    1
    10    72    73    1
    11    90    89    1
    12    61    60    2
    13    84    85    1
    14    89    88    1
    15    89    91    1
    16    60    59    1
    17    73    74    1
    18    73    75    1
    19    81    82    1
    20    81    83    1
    21    88    85    1
    22    85    86    1
    23    97    96    1
    24    59    58    1
    25    59    62    1
    26    92    86   am
    27    92    93    1
    28    98    96    1
    29    86    87    2
    30    96    93    1
    31    13    12    1
    32    13    14    1
    33    62    63    1
    34    93    94    1
    35    12     9    1
    36    34    31    1
    37    14     8    1
    38    94    95    2
    39     1     2    1
    40    10     9    1
    41    10    11    2
    42    63    65   ar
    43    63    64   ar
    44    31    30    1
    45    31    32    1
    46    22    20    1
    47     9     8    1
    48     8     3   am
    49    15    16    1
    50    65    67   ar
    51    64    66   ar
    52   117   116   ar
    53     2     3    1
    54     2     5    1
    55     3     4    2
    56    33    32    2
    57    32    35   am
    58    16    19    1
    59    16    17    1
    60    20    19    1
    61   107   105   ar
    62   107   109   ar
    63   105   104   ar
    64   116   118   ar
    65   116   115    1
    66    49    50    2
    67    49    48    1
    68     7     5    1
    69     5     6    1
    70    66    67   ar
    71    99   100    1
    72    19    21    1
    73    17    18    2
    74    17    23   am
    75    35    36    1
    76    25    26    2
    77    25    24    1
    78   109   108   ar
    79   115   114    1
    80    23    29    1
    81    23    24    1
    82   104   103    1
    83   104   106   ar
    84   103   100    1
    85    29    28    1
    86    48    51    1
    87    48    47    1
    88    51    52    1
    89   100   101    1
    90   114   111    1
    91    47    37   am
    92   110   101   am
    93   110   111    1
    94    24    27    1
    95    37    36    1
    96    37    38    2
    97    28    27    1
    98    36    39    1
    99   108   106   ar
   100   101   102    2
   101   111   112    1
   102    53    52   ar
   103    53    55   ar
   104    52    54   ar
   105   112   113    2
   106    39    40    1
   107    55    57   ar
   108    54    56   ar
   109    40    42   ar
   110    40    41   ar
   111    42    44   ar
   112    57    56   ar
   113    41    43   ar
   114   119   120    1
   115    44    45   ar
   116    43    45   ar
   117   129   131   ar
   118   129   126   ar
   119   131   132   ar
   120   123   120    1
   121   123   124    1
   122    45    46    1
   123   120   121    1
   124   126   124   ar
   125   126   128   ar
   126   124   125   ar
   127   132   130   ar
   128   121   122    2
   129   128   130   ar
   130   128   127   ar
   131   125   127   ar
