@<TRIPOS>MOLECULE
tmp/4yt2A02.pdb
 90 86 0 0 0
SMALL
GASTEIGER

@<TRIPOS>ATOM
      1  N         17.6500  -38.1900   -4.9360 N.3    15  TYR15      -0.1241
      2  CA        16.3790  -38.7420   -5.4380 C.3    15  TYR15       0.1605
      3  C         15.6950  -39.6570   -4.4360 C.2    15  TYR15       0.2264
      4  O         14.4840  -39.6340   -4.2510 O.2    15  TYR15      -0.2867
      5  CB        16.6120  -39.5110   -6.7450 C.3    15  TYR15       0.0534
      6  CG        17.1750  -38.6450   -7.8300 C.ar   15  TYR15      -0.0201
      7  CD1       16.5710  -37.4630   -8.1710 C.ar   15  TYR15      -0.0009
      8  CD2       18.3200  -39.0450   -8.5470 C.ar   15  TYR15      -0.0009
      9  CE1       17.0840  -36.6530   -9.1730 C.ar   15  TYR15       0.0417
     10  CE2       18.8290  -38.2430   -9.5480 C.ar   15  TYR15       0.0417
     11  CZ        18.2000  -37.0440   -9.8500 C.ar   15  TYR15       0.1957
     12  OH        18.6820  -36.2230  -10.8520 O.3    15  TYR15      -0.2866
     13  N         14.4210  -36.4860   -1.5570 N.3    19  LEU19      -0.1245
     14  CA        13.1360  -36.2400   -2.2340 C.3    19  LEU19       0.1561
     15  C         12.1650  -37.3940   -2.0550 C.2    19  LEU19       0.2260
     16  O         10.9650  -37.2240   -2.2660 O.2    19  LEU19      -0.2867
     17  CB        13.3440  -35.9930   -3.7330 C.3    19  LEU19       0.0270
     18  CG        14.1160  -34.7150   -4.1240 C.3    19  LEU19       0.0019
     19  CD1       14.2530  -34.5600   -5.6600 C.3    19  LEU19       0.0001
     20  CD2       13.5210  -33.4640   -3.4600 C.3    19  LEU19       0.0001
     21  N         11.5840  -40.0030   -3.9200 N.3    21  LEU21      -0.1245
     22  CA        10.8120  -40.2450   -5.1490 C.3    21  LEU21       0.1561
     23  C         10.0530  -41.5940   -5.0990 C.2    21  LEU21       0.2260
     24  O          8.9200  -41.6500   -5.5740 O.2    21  LEU21      -0.2867
     25  CB        11.6810  -40.1970   -6.4070 C.3    21  LEU21       0.0270
     26  CG        12.4080  -38.9100   -6.7950 C.3    21  LEU21       0.0019
     27  CD1       13.1070  -39.0520   -8.1820 C.3    21  LEU21       0.0001
     28  CD2       11.5170  -37.6990   -6.7320 C.3    21  LEU21       0.0001
     29  N          6.5730  -40.0570   -5.8610 N.3    25  PHE25      -0.1241
     30  CA         6.2970  -40.0620   -7.3020 C.3    25  PHE25       0.1605
     31  C          6.1270  -41.4690   -7.8450 C.2    25  PHE25       0.2264
     32  O          5.2530  -41.7120   -8.6770 O.2    25  PHE25      -0.2867
     33  CB         7.4060  -39.3140   -8.0570 C.3    25  PHE25       0.0534
     34  CG         7.3220  -37.8330   -7.8630 C.ar   25  PHE25      -0.0203
     35  CD1        7.9700  -37.2240   -6.8060 C.ar   25  PHE25      -0.0042
     36  CD2        6.5150  -37.0580   -8.6870 C.ar   25  PHE25      -0.0042
     37  CE1        7.8750  -35.8700   -6.6010 C.ar   25  PHE25      -0.0003
     38  CE2        6.4090  -35.6870   -8.4830 C.ar   25  PHE25      -0.0003
     39  CZ         7.0940  -35.0950   -7.4360 C.ar   25  PHE25      -0.0000
     40  N         19.6190  -31.6370  -18.6360 N.3   117  CYS117     -0.1235
     41  CA        18.8260  -30.7420  -17.8030 C.3   117  CYS117      0.1677
     42  C         19.6310  -29.5040  -17.4970 C.2   117  CYS117      0.2270
     43  O         20.8530  -29.5490  -17.4580 O.2   117  CYS117     -0.2867
     44  CB        18.3970  -31.4080  -16.4810 C.3   117  CYS117      0.0956
     45  SG        17.7340  -33.0840  -16.5130 S.3   117  CYS117     -0.0801
     46  N         14.5830  -34.8810  -20.2120 N.3   146  PRO146     -0.2102
     47  CA        13.4880  -35.8050  -19.8590 C.3   146  PRO146      0.1504
     48  C         12.2450  -35.1320  -19.3260 C.2   146  PRO146      0.2576
     49  O         11.1780  -35.7800  -19.3150 O.2   146  PRO146     -0.2718
     50  CB        14.1200  -36.6960  -18.7620 C.3   146  PRO146      0.0282
     51  CG        15.1740  -35.8110  -18.1410 C.3   146  PRO146      0.0208
     52  CD        15.7490  -35.0110  -19.3190 C.3   146  PRO146      0.0893
     53  N         12.3520  -33.9050  -18.8190 N.am  147  ALA147     -0.1966
     54  CA        11.1280  -33.2330  -18.3580 C.3   147  ALA147      0.1728
     55  C         10.4320  -33.9380  -17.1520 C.2   147  ALA147      0.2616
     56  O          9.2740  -33.6540  -16.8320 O.2   147  ALA147     -0.2715
     57  CB        10.1570  -33.0610  -19.5370 C.3   147  ALA147      0.0334
     58  N         11.0990  -34.9440  -16.5820 N.am  148  ALA148     -0.1963
     59  CA        10.6950  -35.6190  -15.3530 C.3   148  ALA148      0.1728
     60  C         11.9560  -36.3850  -14.9430 C.2   148  ALA148      0.2616
     61  O         12.8800  -36.4530  -15.7560 O.2   148  ALA148     -0.2715
     62  CB         9.5200  -36.5480  -15.5620 C.3   148  ALA148      0.0334
     63  N         12.0480  -36.8550  -13.7060 N.am  149  VAL149     -0.1977
     64  CA        13.2610  -37.5990  -13.3330 C.3   149  VAL149      0.1596
     65  C         13.1360  -38.9850  -13.9470 C.2   149  VAL149      0.2287
     66  O         12.1780  -39.7030  -13.6460 O.2   149  VAL149     -0.2864
     67  CB        13.4830  -37.6740  -11.7900 C.3   149  VAL149      0.0276
     68  CG1       14.7310  -38.4740  -11.4660 C.3   149  VAL149      0.0022
     69  CG2       13.6280  -36.2440  -11.1690 C.3   149  VAL149      0.0022
     70  N         11.0970  -27.6910  -21.0820 N.3   202  ALA202     -0.1231
     71  CA        11.2610  -29.0350  -20.5250 C.3   202  ALA202      0.1694
     72  C         11.9750  -29.1400  -19.1840 C.2   202  ALA202      0.2592
     73  O         11.7710  -30.1220  -18.4730 O.2   202  ALA202     -0.2718
     74  CB        11.9810  -29.9220  -21.5570 C.3   202  ALA202      0.0304
     75  N         12.8230  -28.1720  -18.8400 N.am  203  ASP203     -0.1960
     76  CA        13.6210  -28.2530  -17.6150 C.3   203  ASP203      0.1840
     77  C         12.8390  -27.7370  -16.4010 C.2   203  ASP203      0.2621
     78  O         11.6590  -27.4140  -16.5180 O.2   203  ASP203     -0.2715
     79  CB        14.9450  -27.4950  -17.7760 C.3   203  ASP203      0.1450
     80  CG        15.8740  -28.1560  -18.8090 C.2   203  ASP203      0.3671
     81  OD1       15.5580  -29.2860  -19.2620 O.co2 203  ASP203     -0.2456
     82  OD2       16.9320  -27.5630  -19.1470 O.co2 203  ASP203     -0.2456
     83  N         13.4890  -27.6740  -15.2430 N.am  204  MET204     -0.1977
     84  CA        12.7640  -27.3360  -14.0150 C.3   204  MET204      0.1605
     85  C         12.1590  -25.9470  -14.0690 C.2   204  MET204      0.2287
     86  O         11.1300  -25.7000  -13.4490 O.2   204  MET204     -0.2864
     87  CB        13.6610  -27.4570  -12.7820 C.3   204  MET204      0.0413
     88  CG        14.1260  -28.8850  -12.5540 C.3   204  MET204      0.0598
     89  SD        14.7190  -29.1560  -10.8790 S.3   204  MET204     -0.1393
     90  CE        15.8780  -27.8200  -10.7220 C.3   204  MET204      0.0692
@<TRIPOS>BOND
     1    74    71    1
     2    70    71    1
     3    71    72    1
     4    46    47    1
     5    46    52    1
     6    47    48    1
     7    47    50    1
     8    57    54    1
     9    48    49    2
    10    48    53   am
    11    52    51    1
    12    81    80   ar
    13    72    75   am
    14    72    73    2
    15    82    80   ar
    16    75    76    1
    17    53    54    1
    18    80    79    1
    19    50    51    1
    20    40    41    1
    21    54    55    1
    22    41    42    1
    23    41    44    1
    24    79    76    1
    25    76    77    1
    26    42    43    2
    27    55    56    2
    28    55    58   am
    29    58    59    1
    30    78    77    2
    31    45    44    1
    32    77    83   am
    33    61    60    2
    34    62    59    1
    35    59    60    1
    36    83    84    1
    37    60    63   am
    38    85    84    1
    39    85    86    2
    40    84    87    1
    41    65    66    2
    42    65    64    1
    43    63    64    1
    44    64    67    1
    45    87    88    1
    46    88    89    1
    47    67    68    1
    48    67    69    1
    49    89    90    1
    50    12    11    1
    51    11    10   ar
    52    11     9   ar
    53    10     8   ar
    54     9     7   ar
    55    36    38   ar
    56    36    34   ar
    57    32    31    2
    58     8     6   ar
    59    38    39   ar
    60    27    26    1
    61     7     6   ar
    62    33    34    1
    63    33    30    1
    64    34    35   ar
    65    31    30    1
    66     6     5    1
    67    39    37   ar
    68    30    29    1
    69    35    37   ar
    70    26    28    1
    71    26    25    1
    72     5     2    1
    73    25    22    1
    74    19    18    1
    75    24    23    2
    76     2     1    1
    77     2     3    1
    78    22    23    1
    79    22    21    1
    80     3     4    2
    81    18    17    1
    82    18    20    1
    83    17    14    1
    84    16    15    2
    85    14    15    1
    86    14    13    1
