@<TRIPOS>MOLECULE
tmp/4yt5B01.pdb
 159 153 0 0 0
SMALL
GASTEIGER

@<TRIPOS>ATOM
      1  N        -12.6570    6.9040  -21.6400 N.3    11  ASN11      -0.1240
      2  CA       -13.7780    6.2690  -22.3250 C.3    11  ASN11       0.1653
      3  C        -14.8500    5.8190  -21.3360 C.2    11  ASN11       0.2266
      4  O        -14.7820    4.7100  -20.7980 O.2    11  ASN11      -0.2867
      5  CB       -13.2740    5.0800  -23.1500 C.3    11  ASN11       0.1155
      6  CG       -14.3690    4.4440  -24.0120 C.2    11  ASN11       0.2627
      7  OD1      -15.5610    4.6240  -23.7730 O.2    11  ASN11      -0.2716
      8  ND2      -13.9550    3.6990  -25.0230 N.am   11  ASN11      -0.0877
      9  N        -16.5300    2.4070  -21.7590 N.3    14  LEU14      -0.1231
     10  CA       -15.6770    1.3540  -21.2220 C.3    14  LEU14       0.1693
     11  C        -15.8800    1.1840  -19.7150 C.2    14  LEU14       0.2592
     12  O        -16.1740    0.0860  -19.2460 O.2    14  LEU14      -0.2718
     13  CB       -14.2000    1.6550  -21.5140 C.3    14  LEU14       0.0284
     14  CG       -13.1730    0.7970  -20.7610 C.3    14  LEU14       0.0019
     15  CD1      -13.1570   -0.6390  -21.2610 C.3    14  LEU14       0.0001
     16  CD2      -11.7760    1.4080  -20.7820 C.3    14  LEU14       0.0001
     17  N        -15.7610    2.2770  -18.9660 N.am   15  TYR15      -0.1976
     18  CA       -15.8230    2.2180  -17.5020 C.3    15  TYR15       0.1639
     19  C        -17.1900    1.7950  -16.9960 C.2    15  TYR15       0.2290
     20  O        -17.2960    0.9920  -16.0770 O.2    15  TYR15      -0.2864
     21  CB       -15.4380    3.5640  -16.8960 C.3    15  TYR15       0.0560
     22  CG       -14.0400    3.9470  -17.2750 C.ar   15  TYR15      -0.0198
     23  CD1      -13.0150    3.0140  -17.2130 C.ar   15  TYR15      -0.0009
     24  CD2      -13.7420    5.2230  -17.7200 C.ar   15  TYR15      -0.0009
     25  CE1      -11.7320    3.3470  -17.5690 C.ar   15  TYR15       0.0417
     26  CE2      -12.4550    5.5640  -18.0770 C.ar   15  TYR15       0.0417
     27  CZ       -11.4570    4.6250  -17.9940 C.ar   15  TYR15       0.1957
     28  OH       -10.1760    4.9600  -18.3490 O.3    15  TYR15      -0.2866
     29  N        -18.5590   -1.6070  -20.1480 N.3    18  LYS18      -0.1231
     30  CA       -17.6930   -2.7580  -20.3780 C.3    18  LYS18       0.1693
     31  C        -17.2200   -3.3160  -19.0420 C.2    18  LYS18       0.2591
     32  O        -17.4360   -4.4870  -18.7420 O.2    18  LYS18      -0.2718
     33  CB       -16.4960   -2.3900  -21.2660 C.3    18  LYS18       0.0285
     34  CG       -16.8680   -2.0130  -22.6990 C.3    18  LYS18       0.0035
     35  CD       -15.6370   -1.7730  -23.5780 C.3    18  LYS18       0.0206
     36  CE       -16.0380   -1.3460  -24.9900 C.3    18  LYS18       0.1093
     37  NZ       -14.8610   -1.1680  -25.8880 N.3    18  LYS18      -0.1314
     38  N        -16.6120   -2.4630  -18.2250 N.am   19  LEU19      -0.1980
     39  CA       -16.0430   -2.9000  -16.9560 C.3    19  LEU19       0.1596
     40  C        -17.0820   -2.9500  -15.8360 C.2    19  LEU19       0.2287
     41  O        -16.8440   -3.5600  -14.7980 O.2    19  LEU19      -0.2864
     42  CB       -14.8860   -1.9800  -16.5570 C.3    19  LEU19       0.0297
     43  CG       -13.7520   -1.9480  -17.5810 C.3    19  LEU19       0.0022
     44  CD1      -12.6190   -1.0880  -17.0930 C.3    19  LEU19       0.0001
     45  CD2      -13.2760   -3.3510  -17.9130 C.3    19  LEU19       0.0001
     46  N        -17.8280   -0.7100  -13.7030 N.3    21  LEU21      -0.1245
     47  CA       -17.1600   -0.2530  -12.4800 C.3    21  LEU21       0.1561
     48  C        -18.1060    0.1680  -11.3560 C.2    21  LEU21       0.2260
     49  O        -17.8810   -0.2070  -10.1980 O.2    21  LEU21      -0.2867
     50  CB       -16.2020    0.8950  -12.7930 C.3    21  LEU21       0.0270
     51  CG       -15.0130    0.4790  -13.6480 C.3    21  LEU21       0.0019
     52  CD1      -14.0830    1.6650  -13.8410 C.3    21  LEU21       0.0001
     53  CD2      -14.2810   -0.6980  -13.0240 C.3    21  LEU21       0.0001
     54  N        -16.7700   -2.4220   -8.6560 N.3    25  PHE25      -0.1241
     55  CA       -15.6700   -1.7950   -7.9200 C.3    25  PHE25       0.1605
     56  C        -16.2020   -0.7250   -6.9650 C.2    25  PHE25       0.2264
     57  O        -15.8000   -0.6530   -5.8050 O.2    25  PHE25      -0.2867
     58  CB       -14.6590   -1.1490   -8.8810 C.3    25  PHE25       0.0534
     59  CG       -13.6990   -2.1210   -9.5220 C.ar   25  PHE25      -0.0203
     60  CD1      -14.1660   -3.2500  -10.1680 C.ar   25  PHE25      -0.0042
     61  CD2      -12.3270   -1.8840   -9.5080 C.ar   25  PHE25      -0.0042
     62  CE1      -13.2940   -4.1420  -10.7650 C.ar   25  PHE25      -0.0003
     63  CE2      -11.4440   -2.7790  -10.1090 C.ar   25  PHE25      -0.0003
     64  CZ       -11.9370   -3.9100  -10.7360 C.ar   25  PHE25      -0.0000
     65  N         -4.3030    9.5400  -22.4820 N.3    88  THR88      -0.1204
     66  CA        -4.5740    9.5990  -23.9060 C.3    88  THR88       0.1979
     67  C         -4.7260    8.1960  -24.4790 C.2    88  THR88       0.2460
     68  O         -4.2300    7.2560  -23.8930 O.2    88  THR88      -0.2732
     69  CB        -3.4440   10.3610  -24.5970 C.3    88  THR88       0.1783
     70  OG1       -2.1920    9.8080  -24.1760 O.3    88  THR88      -0.2211
     71  CG2       -3.4750   11.8120  -24.1630 C.3    88  THR88       0.0376
     72  N         -5.4430    8.0480  -25.6100 N.am   89  PRO89      -0.2717
     73  CA        -5.6000    6.7180  -26.2160 C.3    89  PRO89       0.1535
     74  C         -4.2680    6.0670  -26.6220 C.2    89  PRO89       0.2598
     75  O         -3.3530    6.7660  -27.0610 O.2    89  PRO89      -0.2715
     76  CB        -6.4540    7.0020  -27.4560 C.3    89  PRO89       0.0310
     77  CG        -7.1760    8.2530  -27.1530 C.3    89  PRO89       0.0237
     78  CD        -6.2290    9.0700  -26.3240 C.3    89  PRO89       0.0939
     79  N         -4.1770    4.7440  -26.4920 N.am   90  PHE90      -0.1974
     80  CA        -2.9640    4.0080  -26.8430 C.3    90  PHE90       0.1639
     81  C         -2.4620    4.3550  -28.2460 C.2    90  PHE90       0.2290
     82  O         -3.2540    4.5580  -29.1670 O.2    90  PHE90      -0.2864
     83  CB        -3.2150    2.4930  -26.7520 C.3    90  PHE90       0.0560
     84  CG        -2.0790    1.6570  -27.2740 C.ar   90  PHE90      -0.0200
     85  CD1       -0.9070    1.5210  -26.5420 C.ar   90  PHE90      -0.0042
     86  CD2       -2.1650    1.0350  -28.5120 C.ar   90  PHE90      -0.0042
     87  CE1        0.1460    0.7630  -27.0280 C.ar   90  PHE90      -0.0003
     88  CE2       -1.1120    0.2780  -29.0040 C.ar   90  PHE90      -0.0003
     89  CZ         0.0460    0.1460  -28.2640 C.ar   90  PHE90      -0.0000
     90  N         -0.4680    6.1190  -31.5140 N.3    92  LYS92      -0.1231
     91  CA        -0.2050    7.4190  -32.1310 C.3    92  LYS92       0.1693
     92  C         -0.8450    8.6090  -31.3900 C.2    92  LYS92       0.2591
     93  O         -0.2040    9.6430  -31.2630 O.2    92  LYS92      -0.2718
     94  CB        -0.6180    7.3670  -33.5990 C.3    92  LYS92       0.0285
     95  CG        -1.4550    6.1650  -33.8350 C.3    92  LYS92       0.0035
     96  CD        -1.6750    5.8200  -35.2650 C.3    92  LYS92       0.0206
     97  CE        -2.5390    4.5780  -35.2190 C.3    92  LYS92       0.1093
     98  NZ        -3.8690    4.9520  -34.6440 N.3    92  LYS92      -0.1314
     99  N         -2.0650    8.4590  -30.8700 N.am   93  ALA93      -0.1980
    100  CA        -2.7150    9.5570  -30.1390 C.3    93  ALA93       0.1597
    101  C         -1.8130   10.0860  -29.0110 C.2    93  ALA93       0.2287
    102  O         -1.5690   11.2890  -28.9200 O.2    93  ALA93      -0.2864
    103  CB        -4.0610    9.1150  -29.5740 C.3    93  ALA93       0.0319
    104  N         -1.6140    5.3830  -17.8850 N.3   115  CYS115     -0.1221
    105  CA        -1.7080    3.9690  -18.2670 C.3   115  CYS115      0.1808
    106  C         -0.9830    3.6090  -19.5640 C.2   115  CYS115      0.2601
    107  O         -0.4260    2.5220  -19.7130 O.2   115  CYS115     -0.2717
    108  CB        -3.1900    3.5720  -18.4030 C.3   115  CYS115      0.0970
    109  SG        -4.3090    4.4570  -17.2760 S.3   115  CYS115     -0.0800
    110  N         -1.0310    4.5310  -20.5100 N.am  116  THR116     -0.1953
    111  CA        -0.8250    4.2150  -21.9130 C.3   116  THR116      0.1897
    112  C          0.6070    3.9820  -22.4470 C.2   116  THR116      0.2313
    113  O          0.7670    3.2430  -23.4150 O.2   116  THR116     -0.2863
    114  CB        -1.4890    5.3040  -22.7370 C.3   116  THR116      0.1794
    115  OG1       -1.2030    6.5870  -22.1670 O.3   116  THR116     -0.2208
    116  CG2       -2.9580    5.0890  -22.6270 C.3   116  THR116      0.0378
    117  N         -2.0660    5.5940  -12.0380 N.3   143  PRO143     -0.2102
    118  CA        -2.9760    5.3330  -10.9160 C.3   143  PRO143      0.1504
    119  C         -2.9310    3.8430  -10.5650 C.2   143  PRO143      0.2576
    120  O         -2.6320    3.0080  -11.4410 O.2   143  PRO143     -0.2718
    121  CB        -4.3530    5.7560  -11.4690 C.3   143  PRO143      0.0282
    122  CG        -4.2270    5.5890  -12.9580 C.3   143  PRO143      0.0208
    123  CD        -2.7870    5.9720  -13.2710 C.3   143  PRO143      0.0893
    124  N         -3.2240    3.4760   -9.3230 N.am  144  ALA144     -0.1966
    125  CA        -3.1340    2.0520   -8.9970 C.3   144  ALA144      0.1728
    126  C         -4.3390    1.2790   -9.4830 C.2   144  ALA144      0.2616
    127  O         -4.3450    0.0460   -9.4840 O.2   144  ALA144     -0.2715
    128  CB        -3.0030    1.8720   -7.5100 C.3   144  ALA144      0.0334
    129  N         -5.3090    2.0300   -9.9890 N.am  145  ALA145     -0.1963
    130  CA        -6.5930    1.5190  -10.4100 C.3   145  ALA145      0.1728
    131  C         -7.2060    2.5520  -11.3290 C.2   145  ALA145      0.2616
    132  O         -6.5370    3.4680  -11.7920 O.2   145  ALA145     -0.2715
    133  CB        -7.5010    1.2560   -9.2080 C.3   145  ALA145      0.0334
    134  N         -8.4800    2.3920  -11.6230 N.am  146  VAL146     -0.1977
    135  CA        -9.1700    3.4200  -12.3860 C.3   146  VAL146      0.1596
    136  C         -9.5760    4.5530  -11.4490 C.2   146  VAL146      0.2287
    137  O        -10.3110    4.3220  -10.4910 O.2   146  VAL146     -0.2864
    138  CB       -10.4180    2.8790  -13.0680 C.3   146  VAL146      0.0276
    139  CG1      -11.0850    3.9990  -13.8190 C.3   146  VAL146      0.0022
    140  CG2      -10.0510    1.7510  -14.0240 C.3   146  VAL146      0.0022
    141  N          2.5760   -0.8500  -12.4870 N.3   199  ALA199     -0.1231
    142  CA         1.3180   -0.1110  -12.3540 C.3   199  ALA199      0.1694
    143  C          0.3520   -0.2690  -13.5260 C.2   199  ALA199      0.2592
    144  O         -0.8580   -0.0980  -13.3510 O.2   199  ALA199     -0.2718
    145  CB         1.6080    1.3660  -12.1290 C.3   199  ALA199      0.0304
    146  N          0.8600   -0.5820  -14.7140 N.am  200  ASP200     -0.1974
    147  CA        -0.0270   -0.7590  -15.8750 C.3   200  ASP200      0.1709
    148  C         -0.8790   -2.0140  -15.7270 C.2   200  ASP200      0.2293
    149  O         -0.7450   -2.7490  -14.7540 O.2   200  ASP200     -0.2864
    150  CB         0.7690   -0.8310  -17.1810 C.3   200  ASP200      0.1436
    151  CG         1.0690    0.5390  -17.7580 C.2   200  ASP200      0.3671
    152  OD1        0.6710    1.5590  -17.1450 O.co2 200  ASP200     -0.2456
    153  OD2        1.6950    0.5880  -18.8390 O.co2 200  ASP200     -0.2456
    154  N          0.5360   -5.3640  -15.0900 N.3   202  SER202     -0.1217
    155  CA         0.9490   -5.7030  -13.7200 C.3   202  SER202      0.1889
    156  C          0.3230   -7.0410  -13.3030 C.2   202  SER202      0.2288
    157  O          0.8130   -7.7200  -12.3970 O.2   202  SER202     -0.2866
    158  CB         0.5400   -4.6140  -12.7340 C.3   202  SER202      0.2089
    159  OG        -0.8740   -4.6310  -12.5570 O.3   202  SER202     -0.2183
@<TRIPOS>BOND
     1    96    97    1
     2    96    95    1
     3    97    98    1
     4    95    94    1
     5    94    91    1
     6    91    90    1
     7    91    92    1
     8    92    93    2
     9    92    99   am
    10    99   100    1
    11   100   103    1
    12   100   101    1
    13    82    81    2
    14   101   102    2
    15    88    86   ar
    16    88    89   ar
    17    86    84   ar
    18    89    87   ar
    19    81    80    1
    20    76    77    1
    21    76    73    1
    22    84    83    1
    23    84    85   ar
    24    77    78    1
    25    75    74    2
    26    87    85   ar
    27    80    83    1
    28    80    79    1
    29    74    79   am
    30    74    73    1
    31    78    72    1
    32    73    72    1
    33    37    36    1
    34    72    67   am
    35     8     6   am
    36    36    35    1
    37    69    70    1
    38    69    71    1
    39    69    66    1
    40    67    66    1
    41    67    68    2
    42     6     7    2
    43     6     5    1
    44    66    65    1
    45    35    34    1
    46   113   112    2
    47     5     2    1
    48   114   116    1
    49   114   115    1
    50   114   111    1
    51    34    33    1
    52   112   111    1
    53     2     1    1
    54     2     3    1
    55   111   110    1
    56     9    10    1
    57    13    10    1
    58    13    14    1
    59     3     4    2
    60    33    30    1
    61    15    14    1
    62    10    11    1
    63    16    14    1
    64   110   106   am
    65    30    29    1
    66    30    31    1
    67    11    12    2
    68    11    17   am
    69   107   106    2
    70   106   105    1
    71    31    32    2
    72    31    38   am
    73    17    18    1
    74   153   151   ar
    75   108   105    1
    76   108   109    1
    77    28    27    1
    78   105   104    1
    79    38    39    1
    80    26    27   ar
    81    26    24   ar
    82    27    25   ar
    83    45    43    1
    84   151   150    1
    85   151   152   ar
    86    24    22   ar
    87    43    44    1
    88    43    42    1
    89    25    23   ar
    90    18    19    1
    91    18    21    1
    92    22    23   ar
    93    22    21    1
    94   150   147    1
    95    19    20    2
    96    39    42    1
    97    39    40    1
    98   147   148    1
    99   147   146    1
   100    40    41    2
   101   148   149    2
   102   154   155    1
   103   146   143   am
   104   140   138    1
   105    52    51    1
   106   139   138    1
   107   155   156    1
   108   155   158    1
   109    46    47    1
   110    51    53    1
   111    51    50    1
   112   143   144    2
   113   143   142    1
   114   156   157    2
   115   123   122    1
   116   123   117    1
   117   138   135    1
   118   122   121    1
   119    50    47    1
   120   158   159    1
   121   141   142    1
   122    47    48    1
   123   135   134    1
   124   135   136    1
   125   142   145    1
   126   117   118    1
   127   132   131    2
   128   134   131   am
   129   121   118    1
   130   136   137    2
   131   120   119    2
   132    48    49    2
   133   131   130    1
   134   118   119    1
   135    62    64   ar
   136    62    60   ar
   137    64    63   ar
   138   119   124   am
   139   130   129    1
   140   130   133    1
   141    60    59   ar
   142    63    61   ar
   143   129   126   am
   144    59    61   ar
   145    59    58    1
   146   127   126    2
   147   126   125    1
   148   124   125    1
   149   125   128    1
   150    58    55    1
   151    54    55    1
   152    55    56    1
   153    56    57    2
