@<TRIPOS>MOLECULE
tmp/4yt7A00.pdb
 215 213 0 0 0
SMALL
GASTEIGER

@<TRIPOS>ATOM
      1  N         15.6340   38.7620   15.8110 N.3    25  LEU25      -0.1231
      2  CA        14.2180   38.4960   16.0230 C.3    25  LEU25       0.1693
      3  C         14.0100   37.3490   17.0120 C.2    25  LEU25       0.2592
      4  O         13.3480   37.5190   18.0360 O.2    25  LEU25      -0.2718
      5  CB        13.5510   38.1590   14.6700 C.3    25  LEU25       0.0284
      6  CG        12.0530   37.7700   14.7020 C.3    25  LEU25       0.0019
      7  CD1       11.1720   38.9700   15.0150 C.3    25  LEU25       0.0001
      8  CD2       11.6340   37.1370   13.3840 C.3    25  LEU25       0.0001
      9  N         14.5410   36.1630   16.6670 N.am   26  CYS26      -0.1970
     10  CA        14.3010   34.9360   17.4190 C.3    26  CYS26       0.1712
     11  C         15.3840   33.9300   17.1890 C.2    26  CYS26       0.2296
     12  O         16.2490   34.1080   16.3260 O.2    26  CYS26      -0.2864
     13  CB        12.9550   34.3570   16.9840 C.3    26  CYS26       0.0983
     14  SG        11.5550   34.9790   17.9370 S.3    26  CYS26      -0.0798
     15  N          4.9290   32.5860   17.6360 N.3    41  HIS41      -0.1226
     16  CA         4.7900   33.9430   18.1820 C.3    41  HIS41       0.1752
     17  C          5.8720   34.9200   17.7070 C.2    41  HIS41       0.2596
     18  O          5.6470   36.1290   17.7520 O.2    41  HIS41      -0.2718
     19  CB         4.6590   33.9290   19.7130 C.3    41  HIS41       0.0759
     20  CG         5.9560   33.8940   20.4650 C.ar   41  HIS41       0.0818
     21  ND1        6.4490   32.7100   21.0030 N.ar   41  HIS41      -0.2268
     22  CD2        6.7560   34.9130   20.8500 C.ar   41  HIS41       0.1154
     23  CE1        7.5660   33.0340   21.6200 C.ar   41  HIS41       0.1986
     24  NE2        7.8000   34.3470   21.5480 N.ar   41  HIS41      -0.2212
     25  N          6.9920   34.4040   17.1670 N.am   42  CYS42      -0.1970
     26  CA         8.0850   35.2060   16.6010 C.3    42  CYS42       0.1712
     27  C          7.6490   36.0440   15.4230 C.2    42  CYS42       0.2296
     28  O          8.3420   36.9980   15.0870 O.2    42  CYS42      -0.2864
     29  CB         9.2410   34.2960   16.2040 C.3    42  CYS42       0.0983
     30  SG        10.1260   33.5880   17.6080 S.3    42  CYS42      -0.0798
     31  N          4.2730   37.2260   14.9180 N.3    44  ASP44      -0.1225
     32  CA         3.0440   37.9870   15.1650 C.3    44  ASP44       0.1805
     33  C          3.0670   39.4080   14.6360 C.2    44  ASP44       0.2597
     34  O          2.0160   39.9400   14.2630 O.2    44  ASP44      -0.2718
     35  CB         2.7370   38.0380   16.6630 C.3    44  ASP44       0.1424
     36  CG         2.1190   36.7800   17.2380 C.2    44  ASP44       0.3668
     37  OD1        1.9990   35.7670   16.4830 O.co2  44  ASP44      -0.2456
     38  OD2        1.7870   36.7860   18.4550 O.co2  44  ASP44      -0.2456
     39  N          4.2430   40.0450   14.6630 N.am   45  LYS45      -0.1979
     40  CA         4.4030   41.4650   14.3140 C.3    45  LYS45       0.1596
     41  C          5.1700   41.7010   13.0250 C.2    45  LYS45       0.2287
     42  O          5.4890   42.8430   12.7340 O.2    45  LYS45      -0.2864
     43  CB         5.0520   42.2100   15.5130 C.3    45  LYS45       0.0298
     44  CG         4.1040   42.3170   16.6950 C.3    45  LYS45       0.0038
     45  CD         4.8000   42.3540   18.0180 C.3    45  LYS45       0.0206
     46  CE         3.7710   42.4630   19.1190 C.3    45  LYS45       0.1093
     47  NZ         4.4040   42.7090   20.4400 N.3    45  LYS45      -0.1314
     48  N         -3.0470   27.8260   16.0180 N.3    82  TYR82      -0.1241
     49  CA        -2.3660   28.9090   16.7220 C.3    82  TYR82       0.1605
     50  C         -3.1140   30.2310   16.5430 C.2    82  TYR82       0.2264
     51  O         -3.4950   30.6090   15.4180 O.2    82  TYR82      -0.2867
     52  CB        -0.8940   29.0310   16.2820 C.3    82  TYR82       0.0534
     53  CG        -0.2180   30.2900   16.7850 C.ar   82  TYR82      -0.0201
     54  CD1        0.3300   30.3490   18.0690 C.ar   82  TYR82      -0.0009
     55  CD2       -0.1520   31.4340   15.9900 C.ar   82  TYR82      -0.0009
     56  CE1        0.9390   31.5100   18.5410 C.ar   82  TYR82       0.0417
     57  CE2        0.4780   32.5870   16.4390 C.ar   82  TYR82       0.0417
     58  CZ         1.0030   32.6310   17.7220 C.ar   82  TYR82       0.1957
     59  OH         1.5950   33.7920   18.1640 O.3    82  TYR82      -0.2866
     60  N         -0.9500   36.3190   19.5200 N.3    85  GLY85      -0.1210
     61  CA        -1.0350   36.9580   20.8250 C.3    85  GLY85       0.1956
     62  C         -1.3990   36.0210   21.9630 C.2    85  GLY85       0.2613
     63  O         -1.5400   36.4890   23.0830 O.2    85  GLY85      -0.2717
     64  N         -1.6030   34.7090   21.6900 N.am   86  THR86      -0.1938
     65  CA        -1.9480   33.6770   22.6890 C.3    86  THR86       0.2028
     66  C         -0.8180   32.6760   22.7530 C.2    86  THR86       0.2642
     67  O          0.1300   32.7910   21.9780 O.2    86  THR86      -0.2714
     68  CB        -3.3520   33.0600   22.4940 C.3    86  THR86       0.1808
     69  OG1       -3.3470   32.2020   21.3540 O.3    86  THR86      -0.2208
     70  CG2       -4.5020   34.1190   22.4070 C.3    86  THR86       0.0379
     71  N         -0.8780   31.7190   23.6770 N.am   87  THR87      -0.1950
     72  CA         0.2530   30.8230   23.9070 C.3    87  THR87       0.1897
     73  C          0.2060   29.4370   23.2650 C.2    87  THR87       0.2313
     74  O          1.2740   28.8620   23.0580 O.2    87  THR87      -0.2863
     75  CB         0.4950   30.6470   25.4180 C.3    87  THR87       0.1794
     76  OG1       -0.7130   30.2000   26.0260 O.3    87  THR87      -0.2208
     77  CG2        1.0190   31.9200   26.0880 C.3    87  THR87       0.0378
     78  N          2.5790   26.8880   19.9060 N.3    90  ASP90      -0.1239
     79  CA         3.5770   27.8800   19.5290 C.3    90  ASP90       0.1674
     80  C          4.7530   27.2420   18.7700 C.2    90  ASP90       0.2266
     81  O          5.8380   27.0190   19.3130 O.2    90  ASP90      -0.2867
     82  CB         3.9990   28.7200   20.7550 C.3    90  ASP90       0.1410
     83  CG         4.9360   29.8670   20.4470 C.2    90  ASP90       0.3668
     84  OD1        4.8820   30.4000   19.3110 O.co2  90  ASP90      -0.2456
     85  OD2        5.6690   30.2760   21.3470 O.co2  90  ASP90      -0.2456
     86  N         -1.8290   31.9430   31.5430 N.3   169  PRO169     -0.2116
     87  CA        -2.3440   30.9900   30.5470 C.3   169  PRO169      0.1372
     88  C         -2.2580   29.5560   31.0270 C.2   169  PRO169      0.2244
     89  O         -1.4260   29.2250   31.8820 O.2   169  PRO169     -0.2868
     90  CB        -1.4420   31.2190   29.3260 C.3   169  PRO169      0.0268
     91  CG        -0.7820   32.5470   29.5600 C.3   169  PRO169      0.0207
     92  CD        -0.6130   32.6200   31.0440 C.3   169  PRO169      0.0892
     93  N         16.8650   30.4200   33.6270 N.3   186  ASP186     -0.1225
     94  CA        15.7290   30.3200   32.6910 C.3   186  ASP186      0.1805
     95  C         16.1130   30.8110   31.2940 C.2   186  ASP186      0.2598
     96  O         17.1200   31.4840   31.1460 O.2   186  ASP186     -0.2718
     97  CB        14.5820   31.2210   33.1960 C.3   186  ASP186      0.1424
     98  CG        13.1780   30.8990   32.6910 C.2   186  ASP186      0.3668
     99  OD1       13.0340   29.9680   31.8550 O.co2 186  ASP186     -0.2456
    100  OD2       12.2310   31.6070   33.0920 O.co2 186  ASP186     -0.2456
    101  N         15.2730   30.5190   30.2910 N.am  187  SER187     -0.1938
    102  CA        15.3670   31.0890   28.9490 C.3   187  SER187      0.2055
    103  C         14.5250   32.3860   29.0240 C.2   187  SER187      0.2643
    104  O         13.7670   32.5560   29.9870 O.2   187  SER187     -0.2714
    105  CB        14.8460   30.1210   27.8820 C.3   187  SER187      0.2130
    106  OG        13.5010   29.7190   28.0820 O.3   187  SER187     -0.2179
    107  N         14.6850   33.3110   28.0580 N.am  188  CYS188     -0.1953
    108  CA        13.9680   34.5900   28.0590 C.3   188  CYS188      0.1843
    109  C         13.3350   34.8350   26.6990 C.2   188  CYS188      0.2625
    110  O         13.5620   34.0500   25.7830 O.2   188  CYS188     -0.2714
    111  CB        14.9130   35.7220   28.4510 C.3   188  CYS188      0.0997
    112  SG        14.0920   37.1480   29.2100 S.3   188  CYS188     -0.0797
    113  N         12.5660   35.9400   26.5620 N.am  189  LYS189     -0.1963
    114  CA        11.8720   36.2990   25.3340 C.3   189  LYS189      0.1728
    115  C         12.7840   36.3460   24.0920 C.2   189  LYS189      0.2616
    116  O         12.3680   35.8540   23.0540 O.2   189  LYS189     -0.2715
    117  CB        11.0270   37.5870   25.4830 C.3   189  LYS189      0.0311
    118  CG        11.7490   38.9030   25.6130 C.3   189  LYS189      0.0038
    119  CD        10.7340   40.0450   25.5940 C.3   189  LYS189      0.0206
    120  CE        11.3720   41.3970   25.8200 C.3   189  LYS189      0.1093
    121  NZ        10.3610   42.4850   25.8740 N.3   189  LYS189     -0.1314
    122  N         14.0140   36.8370   24.2180 N.am  190  GLY190     -0.1955
    123  CA        14.9610   36.8920   23.1050 C.3   190  GLY190      0.1869
    124  C         15.4480   35.5250   22.6470 C.2   190  GLY190      0.2309
    125  O         16.0120   35.3990   21.5420 O.2   190  GLY190     -0.2863
    126  N         13.2190   33.0010   22.3780 N.3   192  SER192     -0.1217
    127  CA        12.0030   32.4850   21.7250 C.3   192  SER192      0.1889
    128  C         12.3270   31.7850   20.4080 C.2   192  SER192      0.2288
    129  O         13.0940   32.3170   19.6260 O.2   192  SER192     -0.2866
    130  CB        11.0430   33.6280   21.4130 C.3   192  SER192      0.2089
    131  OG        10.4210   34.1580   22.5660 O.3   192  SER192     -0.2183
    132  N         11.6650   27.2600   22.8700 N.3   210  VAL210     -0.1231
    133  CA        11.5190   28.3550   23.8400 C.3   210  VAL210      0.1692
    134  C         10.2070   29.0720   23.4830 C.2   210  VAL210      0.2593
    135  O         10.0340   29.5710   22.3650 O.2   210  VAL210     -0.2718
    136  CB        12.7110   29.3200   23.8500 C.3   210  VAL210      0.0266
    137  CG1       12.5060   30.4280   24.9090 C.3   210  VAL210      0.0020
    138  CG2       14.0230   28.5790   24.0750 C.3   210  VAL210      0.0020
    139  N          9.2670   29.0680   24.4130 N.am  211  SER211     -0.1938
    140  CA         7.9570   29.6150   24.1080 C.3   211  SER211      0.2055
    141  C          7.5280   30.8000   24.9940 C.2   211  SER211      0.2643
    142  O          7.4220   31.9200   24.5010 O.2   211  SER211     -0.2714
    143  CB         6.9210   28.5000   24.1380 C.3   211  SER211      0.2130
    144  OG         5.6710   28.9660   23.6740 O.3   211  SER211     -0.2179
    145  N          7.2570   30.5560   26.2670 N.am  212  TRP212     -0.1959
    146  CA         6.7810   31.6060   27.1740 C.3   212  TRP212      0.1771
    147  C          7.1000   31.3140   28.6340 C.2   212  TRP212      0.2620
    148  O          7.6140   30.2480   28.9630 O.2   212  TRP212     -0.2715
    149  CB         5.2590   31.8360   26.9860 C.3   212  TRP212      0.0590
    150  CG         4.3780   30.6910   27.3930 C.ar  212  TRP212      0.0006
    151  CD1        4.0120   29.6230   26.6270 C.ar  212  TRP212      0.0946
    152  CD2        3.6490   30.5700   28.6290 C.ar  212  TRP212      0.0152
    153  NE1        3.1060   28.8400   27.3110 N.ar  212  TRP212     -0.2442
    154  CE2        2.8700   29.3970   28.5440 C.ar  212  TRP212      0.0810
    155  CE3        3.5510   31.3640   29.7890 C.ar  212  TRP212      0.0012
    156  CZ2        2.0240   28.9810   29.5830 C.ar  212  TRP212      0.0191
    157  CZ3        2.7340   30.9370   30.8300 C.ar  212  TRP212      0.0001
    158  CH2        1.9980   29.7460   30.7290 C.ar  212  TRP212      0.0015
    159  N          6.7900   32.2850   29.4790 N.am  213  GLY213     -0.1940
    160  CA         6.9420   32.2440   30.9260 C.3   213  GLY213      0.2014
    161  C          6.5010   33.5730   31.5090 C.2   213  GLY213      0.2639
    162  O          6.2630   34.5230   30.7580 O.2   213  GLY213     -0.2714
    163  N          6.3300   33.6200   32.8400 N.am  214  GLN214     -0.1963
    164  CA         6.0330   34.8160   33.6340 C.3   214  GLN214      0.1733
    165  C          7.3770   35.5090   33.8400 C.2   214  GLN214      0.2617
    166  O          8.2200   34.9980   34.5780 O.2   214  GLN214     -0.2715
    167  CB         5.4820   34.4080   35.0150 C.3   214  GLN214      0.0408
    168  CG         3.9650   34.2610   35.0940 C.3   214  GLN214      0.0908
    169  CD         3.1830   35.4940   34.7110 C.2   214  GLN214      0.2608
    170  OE1        2.1200   35.3900   34.1020 O.2   214  GLN214     -0.2717
    171  NE2        3.6740   36.6790   35.0540 N.am  214  GLN214     -0.0878
    172  N          7.6080   36.6010   33.1200 N.am  215  GLY215     -0.1940
    173  CA         8.8960   37.2900   33.1090 C.3   215  GLY215      0.2014
    174  C          9.9600   36.2860   32.7090 C.2   215  GLY215      0.2639
    175  O          9.6440   35.3030   32.0200 O.2   215  GLY215     -0.2714
    176  N         11.2150   36.5090   33.1550 N.am  216  CYS216     -0.1967
    177  CA        12.3600   35.6210   32.8890 C.3   216  CYS216      0.1712
    178  C         13.0390   35.3260   34.2130 C.2   216  CYS216      0.2296
    179  O         13.4210   36.2630   34.9050 O.2   216  CYS216     -0.2864
    180  CB        13.3340   36.2400   31.8860 C.3   216  CYS216      0.0983
    181  SG        12.5550   36.8490   30.3670 S.3   216  CYS216     -0.0798
    182  N          8.3950   28.7090   36.1390 N.3   222  PHE222     -0.1227
    183  CA         9.2330   27.8810   35.2790 C.3   222  PHE222      0.1736
    184  C          9.1020   28.3510   33.8360 C.2   222  PHE222      0.2596
    185  O          8.1040   28.9860   33.4780 O.2   222  PHE222     -0.2718
    186  CB         8.7800   26.4040   35.3880 C.3   222  PHE222      0.0547
    187  CG         9.0500   25.7590   36.7340 C.ar  222  PHE222     -0.0202
    188  CD1        8.1160   25.8370   37.7620 C.ar  222  PHE222     -0.0042
    189  CD2       10.2270   25.0490   36.9600 C.ar  222  PHE222     -0.0042
    190  CE1        8.3740   25.2530   39.0090 C.ar  222  PHE222     -0.0003
    191  CE2       10.4770   24.4480   38.2040 C.ar  222  PHE222     -0.0003
    192  CZ         9.5450   24.5400   39.2150 C.ar  222  PHE222     -0.0000
    193  N         10.0880   28.0020   33.0110 N.am  223  GLY223     -0.1942
    194  CA        10.0060   28.2960   31.5900 C.3   223  GLY223      0.2014
    195  C          9.0200   27.3300   30.9740 C.2   223  GLY223      0.2639
    196  O          8.9510   26.1730   31.3970 O.2   223  GLY223     -0.2714
    197  N          8.1910   27.8070   30.0440 N.am  224  VAL224     -0.1963
    198  CA         7.2250   26.9570   29.3480 C.3   224  VAL224      0.1727
    199  C          7.6980   26.7980   27.8880 C.2   224  VAL224      0.2616
    200  O          8.0790   27.7800   27.2410 O.2   224  VAL224     -0.2715
    201  CB         5.7560   27.4170   29.4780 C.3   224  VAL224      0.0290
    202  CG1        4.8090   26.3550   28.9270 C.3   224  VAL224      0.0023
    203  CG2        5.4140   27.7370   30.9370 C.3   224  VAL224      0.0023
    204  N          7.7150   25.5400   27.4150 N.am  225  TYR225     -0.1974
    205  CA         8.2210   25.1260   26.1130 C.3   225  TYR225      0.1639
    206  C          7.1680   24.4330   25.2650 C.2   225  TYR225      0.2290
    207  O          6.3750   23.6840   25.8060 O.2   225  TYR225     -0.2864
    208  CB         9.4100   24.1580   26.3450 C.3   225  TYR225      0.0560
    209  CG        10.5670   24.8450   27.0390 C.ar  225  TYR225     -0.0198
    210  CD1       10.6030   24.9600   28.4310 C.ar  225  TYR225     -0.0009
    211  CD2       11.5580   25.4930   26.3040 C.ar  225  TYR225     -0.0009
    212  CE1       11.5830   25.7200   29.0670 C.ar  225  TYR225      0.0417
    213  CE2       12.5640   26.2280   26.9350 C.ar  225  TYR225      0.0417
    214  CZ        12.5600   26.3560   28.3140 C.ar  225  TYR225      0.1957
    215  OH        13.5730   27.0490   28.9220 O.3   225  TYR225     -0.2866
@<TRIPOS>BOND
     1    42    41    2
     2    41    40    1
     3     8     6    1
     4    34    33    2
     5    40    39    1
     6    40    43    1
     7    33    39   am
     8    33    32    1
     9     5     6    1
    10     5     2    1
    11     6     7    1
    12    31    32    1
    13    28    27    2
    14    32    35    1
    15    51    50    2
    16    27    26    1
    17    43    44    1
    18     1     2    1
    19    55    57   ar
    20    55    53   ar
    21    48    49    1
    22     2     3    1
    23    29    26    1
    24    29    30    1
    25    52    49    1
    26    52    53    1
    27    12    11    2
    28    57    58   ar
    29    37    36   ar
    30    50    49    1
    31    26    25    1
    32    35    36    1
    33     9     3   am
    34     9    10    1
    35    44    45    1
    36    53    54   ar
    37    13    10    1
    38    13    14    1
    39     3     4    2
    40    25    17   am
    41    11    10    1
    42    36    38   ar
    43    30    14    1
    44    15    16    1
    45    17    18    2
    46    17    16    1
    47    58    59    1
    48    58    56   ar
    49    45    46    1
    50    54    56   ar
    51    16    19    1
    52    80    81    2
    53    80    79    1
    54    46    47    1
    55    84    83   ar
    56    60    61    1
    57    79    78    1
    58    79    82    1
    59   129   128    2
    60    19    20    1
    61   128   127    1
    62    83    82    1
    63    83    85   ar
    64    20    22   ar
    65    20    21   ar
    66    61    62    1
    67    22    24   ar
    68    21    23   ar
    69    69    68    1
    70   130   127    1
    71   130   131    1
    72   125   124    2
    73    24    23   ar
    74    64    62   am
    75    64    65    1
    76   127   126    1
    77    62    63    2
    78    67    66    2
    79   135   134    2
    80    70    68    1
    81    68    65    1
    82   124   123    1
    83    65    66    1
    84    66    71   am
    85   132   133    1
    86   116   115    2
    87    74    73    2
    88   123   122    1
    89    73    72    1
    90   134   133    1
    91   134   139   am
    92   144   143    1
    93    71    72    1
    94   133   136    1
    95   136   138    1
    96   136   137    1
    97    72    75    1
    98   115   122   am
    99   115   114    1
   100   140   143    1
   101   140   139    1
   102   140   141    1
   103   142   141    2
   104   141   145   am
   105   206   207    2
   106   206   205    1
   107   114   117    1
   108   114   113    1
   109    75    76    1
   110    75    77    1
   111   117   118    1
   112   119   118    1
   113   119   120    1
   114   110   109    2
   115   120   121    1
   116   205   208    1
   117   205   204    1
   118   145   146    1
   119   211   213   ar
   120   211   209   ar
   121   208   209    1
   122   113   109   am
   123   151   153   ar
   124   151   150   ar
   125   109   108    1
   126   213   214   ar
   127   149   146    1
   128   149   150    1
   129   209   210   ar
   130   146   147    1
   131   200   199    2
   132   153   154   ar
   133   150   152   ar
   134   204   199   am
   135   105   106    1
   136   105   102    1
   137   199   198    1
   138   107   108    1
   139   107   103   am
   140   108   111    1
   141   214   215    1
   142   214   212   ar
   143   210   212   ar
   144   111   112    1
   145   154   152   ar
   146   154   156   ar
   147   152   155   ar
   148   147   148    2
   149   147   159   am
   150   202   201    1
   151   102   103    1
   152   102   101    1
   153   103   104    2
   154   112   181    1
   155    90    91    1
   156    90    87    1
   157   198   201    1
   158   198   197    1
   159   201   203    1
   160   159   160    1
   161    91    92    1
   162   156   158   ar
   163   155   157   ar
   164   197   195   am
   165   101    95   am
   166   181   180    1
   167    87    88    1
   168    87    86    1
   169   158   157   ar
   170   162   161    2
   171   160   161    1
   172   195   196    2
   173   195   194    1
   174    88    89    2
   175    92    86    1
   176    96    95    2
   177    95    94    1
   178   161   163   am
   179   194   193    1
   180    99    98   ar
   181   180   177    1
   182   175   174    2
   183    94    97    1
   184    94    93    1
   185    98   100   ar
   186    98    97    1
   187   174   173    1
   188   174   176   am
   189   163   164    1
   190   177   176    1
   191   177   178    1
   192   193   184   am
   193   173   172    1
   194   172   165   am
   195   185   184    2
   196   164   165    1
   197   164   167    1
   198   184   183    1
   199   165   166    2
   200   170   169    2
   201   178   179    2
   202   169   171   am
   203   169   168    1
   204   167   168    1
   205   183   186    1
   206   183   182    1
   207   186   187    1
   208   187   189   ar
   209   187   188   ar
   210   189   191   ar
   211   188   190   ar
   212   191   192   ar
   213   190   192   ar
