@<TRIPOS>MOLECULE
tmp/4ytbA01.pdb
 107 103 0 0 0
SMALL
GASTEIGER

@<TRIPOS>ATOM
      1  N        -15.8110   -4.0550  -12.8680 N.3    84  TRP84      -0.1241
      2  CA       -15.1660   -2.9680  -12.1190 C.3    84  TRP84       0.1605
      3  C        -14.5580   -1.9260  -13.0710 C.2    84  TRP84       0.2264
      4  O        -13.3340   -1.7310  -13.1170 O.2    84  TRP84      -0.2867
      5  CB       -14.1340   -3.5320  -11.1480 C.3    84  TRP84       0.0550
      6  CG       -14.7970   -4.3560  -10.0750 C.ar   84  TRP84       0.0003
      7  CD1      -15.6590   -3.9070   -9.1160 C.ar   84  TRP84       0.0946
      8  CD2      -14.6860   -5.7720   -9.8790 C.ar   84  TRP84       0.0152
      9  NE1      -16.1170   -4.9570   -8.3570 N.ar   84  TRP84      -0.2442
     10  CE2      -15.5370   -6.1140   -8.7980 C.ar   84  TRP84       0.0810
     11  CE3      -13.9330   -6.7790  -10.4880 C.ar   84  TRP84       0.0012
     12  CZ2      -15.6490   -7.4280   -8.3240 C.ar   84  TRP84       0.0191
     13  CZ3      -14.0600   -8.0890  -10.0400 C.ar   84  TRP84       0.0001
     14  CH2      -14.9210   -8.4070   -8.9750 C.ar   84  TRP84       0.0015
     15  N        -11.7850    0.4870  -12.2210 N.3    87  ASP87      -0.1239
     16  CA       -10.4090    0.0770  -12.0050 C.3    87  ASP87       0.1674
     17  C         -9.5910   -0.0990  -13.2680 C.2    87  ASP87       0.2266
     18  O         -8.3660    0.0930  -13.2000 O.2    87  ASP87      -0.2867
     19  CB       -10.4220   -1.2340  -11.2030 C.3    87  ASP87       0.1410
     20  CG       -10.8740   -1.0560   -9.7660 C.2    87  ASP87       0.3668
     21  OD1      -10.9600    0.1020   -9.3000 O.co2  87  ASP87      -0.2456
     22  OD2      -11.1540   -2.0700   -9.1220 O.co2  87  ASP87      -0.2456
     23  N         -3.3310   -2.7730  -15.7080 N.3   107  TYR107     -0.1241
     24  CA        -4.2980   -3.0590  -14.6560 C.3   107  TYR107      0.1605
     25  C         -3.6700   -4.0490  -13.6630 C.2   107  TYR107      0.2264
     26  O         -3.1380   -5.0790  -14.0750 O.2   107  TYR107     -0.2867
     27  CB        -5.5560   -3.6070  -15.3350 C.3   107  TYR107      0.0534
     28  CG        -6.7090   -4.0210  -14.4430 C.ar  107  TYR107     -0.0201
     29  CD1       -6.9440   -3.3970  -13.2080 C.ar  107  TYR107     -0.0009
     30  CD2       -7.5980   -5.0070  -14.8540 C.ar  107  TYR107     -0.0009
     31  CE1       -8.0260   -3.7760  -12.4040 C.ar  107  TYR107      0.0417
     32  CE2       -8.7130   -5.3360  -14.0990 C.ar  107  TYR107      0.0417
     33  CZ        -8.9230   -4.7260  -12.8760 C.ar  107  TYR107      0.1957
     34  OH       -10.0040   -5.1140  -12.1090 O.3   107  TYR107     -0.2866
     35  N         -4.4170   -6.5280  -11.9950 N.3   109  ARG109     -0.1245
     36  CA        -5.1420   -7.7760  -11.8220 C.3   109  ARG109      0.1563
     37  C         -4.8840   -8.6710  -13.0150 C.2   109  ARG109      0.2260
     38  O         -4.6450   -8.1550  -14.1060 O.2   109  ARG109     -0.2867
     39  CB        -6.6660   -7.5070  -11.7110 C.3   109  ARG109      0.0307
     40  CG        -7.0910   -6.7660  -10.4590 C.3   109  ARG109      0.0489
     41  CD        -7.0420   -7.6850   -9.2430 C.3   109  ARG109      0.2205
     42  NE        -7.5910   -7.0230   -8.0530 N.pl3 109  ARG109     -0.0865
     43  CZ        -6.8890   -6.2900   -7.1920 C.cat 109  ARG109      0.5346
     44  NH1       -5.5860   -6.0920   -7.3790 N.pl3 109  ARG109      0.1354
     45  NH2       -7.4740   -5.7920   -6.1100 N.pl3 109  ARG109      0.1354
     46  N         -6.4340   -9.9360  -15.4380 N.3   111  ARG111     -0.1245
     47  CA        -7.6900   -9.7450  -16.1700 C.3   111  ARG111      0.1563
     48  C         -7.3230   -9.1110  -17.4900 C.2   111  ARG111      0.2260
     49  O         -7.3480   -7.8970  -17.6570 O.2   111  ARG111     -0.2867
     50  CB        -8.6160   -8.8600  -15.3250 C.3   111  ARG111      0.0307
     51  CG        -9.1330   -9.6300  -14.1100 C.3   111  ARG111      0.0489
     52  CD        -9.9190   -8.7250  -13.1700 C.3   111  ARG111      0.2205
     53  NE       -10.2600   -9.4800  -11.9590 N.pl3 111  ARG111     -0.0865
     54  CZ       -10.5830   -8.9420  -10.7850 C.cat 111  ARG111      0.5346
     55  NH1      -10.6310   -7.6250  -10.6390 N.pl3 111  ARG111      0.1354
     56  NH2      -10.8480   -9.7210   -9.7450 N.pl3 111  ARG111      0.1354
     57  N         -7.8800   -5.7560    2.3370 N.3   190  TYR190     -0.1227
     58  CA        -7.0010   -6.2350    1.3030 C.3   190  TYR190      0.1736
     59  C         -6.8320   -5.3160    0.1140 C.2   190  TYR190      0.2595
     60  O         -5.8140   -5.4000   -0.5870 O.2   190  TYR190     -0.2718
     61  CB        -7.4660   -7.6300    0.7770 C.3   190  TYR190      0.0548
     62  CG        -8.5180   -7.5240   -0.3110 C.ar  190  TYR190     -0.0200
     63  CD1       -9.8630   -7.3120    0.0060 C.ar  190  TYR190     -0.0009
     64  CD2       -8.1550   -7.5430   -1.6620 C.ar  190  TYR190     -0.0009
     65  CE1      -10.8280   -7.1660   -0.9960 C.ar  190  TYR190      0.0417
     66  CE2       -9.1070   -7.3730   -2.6710 C.ar  190  TYR190      0.0417
     67  CZ       -10.4380   -7.1810   -2.3290 C.ar  190  TYR190      0.1957
     68  OH       -11.3890   -7.0080   -3.3040 O.3   190  TYR190     -0.2866
     69  N         -7.8490   -4.5040   -0.1670 N.am  191  ILE191     -0.1980
     70  CA        -7.9090   -3.8950   -1.4840 C.3   191  ILE191      0.1595
     71  C         -7.0100   -2.6820   -1.6250 C.2   191  ILE191      0.2287
     72  O         -6.4860   -2.4470   -2.7090 O.2   191  ILE191     -0.2864
     73  CB        -9.3590   -3.6180   -1.8930 C.3   191  ILE191      0.0276
     74  CG1       -9.4420   -3.5280   -3.4520 C.3   191  ILE191      0.0022
     75  CG2       -9.9820   -2.4190   -1.1720 C.3   191  ILE191      0.0022
     76  CD1      -10.7800   -3.4720   -4.0070 C.3   191  ILE191      0.0001
     77  N         -7.4950    0.5570   -1.8300 N.3   193  HIS193     -0.1241
     78  CA        -7.9400    1.5730   -2.7680 C.3   193  HIS193      0.1621
     79  C         -8.3590    2.8230   -2.0160 C.2   193  HIS193      0.2264
     80  O         -9.2010    2.7410   -1.0980 O.2   193  HIS193     -0.2867
     81  CB        -9.1230    1.0920   -3.5940 C.3   193  HIS193      0.0745
     82  CG        -8.8180    0.1040   -4.6640 C.ar  193  HIS193      0.0817
     83  ND1       -9.7520   -0.1850   -5.6340 N.ar  193  HIS193     -0.2268
     84  CD2       -7.7270   -0.6750   -4.8600 C.ar  193  HIS193      0.1154
     85  CE1       -9.2090   -1.1270   -6.4040 C.ar  193  HIS193      0.1986
     86  NE2       -7.9870   -1.4510   -5.9810 N.ar  193  HIS193     -0.2212
     87  N        -15.5830   -2.8700    0.6770 N.3   303  THR303     -0.1203
     88  CA       -14.3990   -2.7010   -0.1800 C.3   303  THR303      0.1994
     89  C        -14.7390   -2.5460   -1.6530 C.2   303  THR303      0.2617
     90  O        -13.8290   -2.5120   -2.5030 O.2   303  THR303     -0.2717
     91  CB       -13.5100   -3.9500   -0.0470 C.3   303  THR303      0.1784
     92  OG1      -14.3070   -5.1290   -0.2060 O.3   303  THR303     -0.2211
     93  CG2      -12.8010   -4.0210    1.3100 C.3   303  THR303      0.0376
     94  N        -16.0330   -2.5180   -1.9860 N.am  304  ASP304     -0.1973
     95  CA       -16.4490   -2.5590   -3.3960 C.3   304  ASP304      0.1709
     96  C        -17.8860   -2.0860   -3.5260 C.2   304  ASP304      0.2293
     97  O        -18.8250   -2.8410   -3.2260 O.2   304  ASP304     -0.2864
     98  CB       -16.3060   -4.0140   -3.9170 C.3   304  ASP304      0.1436
     99  CG       -16.9290   -4.2810   -5.2680 C.2   304  ASP304      0.3671
    100  OD1      -17.3050   -3.3010   -5.9570 O.co2 304  ASP304     -0.2456
    101  OD2      -17.0000   -5.4510   -5.6490 O.co2 304  ASP304     -0.2456
    102  N        -16.7690    1.8530   -7.4890 N.3   308  CYS308     -0.1235
    103  CA       -15.9710    0.7540   -8.0620 C.3   308  CYS308      0.1677
    104  C        -16.5260    0.2260   -9.3480 C.2   308  CYS308      0.2270
    105  O        -15.8080   -0.4680  -10.0650 O.2   308  CYS308     -0.2867
    106  CB       -15.8600   -0.3720   -7.0510 C.3   308  CYS308      0.0956
    107  SG       -15.0940    0.1350   -5.4970 S.3   308  CYS308     -0.0801
@<TRIPOS>BOND
     1    49    48    2
     2    48    47    1
     3    47    46    1
     4    47    50    1
     5    23    24    1
     6    27    24    1
     7    27    28    1
     8    50    51    1
     9    30    28   ar
    10    30    32   ar
    11    24    25    1
    12    28    29   ar
    13    51    52    1
    14    38    37    2
    15    32    33   ar
    16    26    25    2
    17    17    18    2
    18    17    16    1
    19    29    31   ar
    20    52    53    1
    21     4     3    2
    22     3     2    1
    23    37    36    1
    24    33    31   ar
    25    33    34    1
    26     1     2    1
    27    15    16    1
    28     2     5    1
    29    16    19    1
    30    35    36    1
    31    53    54    2
    32    36    39    1
    33    39    40    1
    34    19    20    1
    35     5     6    1
    36    54    55    1
    37    54    56    1
    38    11    13   ar
    39    11     8   ar
    40    40    41    1
    41     6     8   ar
    42     6     7   ar
    43   105   104    2
    44    13    14   ar
    45     8    10   ar
    46    20    21   ar
    47    20    22   ar
    48   104   103    1
    49    41    42    1
    50     7     9   ar
    51    14    12   ar
    52    10     9   ar
    53    10    12   ar
    54   103   102    1
    55   103   106    1
    56    42    43    2
    57    44    43    1
    58    43    45    1
    59   106   107    1
    60    85    86   ar
    61    85    83   ar
    62    86    84   ar
    63   100    99   ar
    64   101    99   ar
    65    83    82   ar
    66    99    98    1
    67    84    82   ar
    68    82    81    1
    69    76    74    1
    70    98    95    1
    71    81    78    1
    72    96    95    1
    73    96    97    2
    74    74    73    1
    75    95    94    1
    76    68    67    1
    77    78    79    1
    78    78    77    1
    79    72    71    2
    80    66    67   ar
    81    66    64   ar
    82    90    89    2
    83    67    65   ar
    84    79    80    2
    85    94    89   am
    86    73    70    1
    87    73    75    1
    88    64    62   ar
    89    89    88    1
    90    71    70    1
    91    70    69    1
    92    65    63   ar
    93    60    59    2
    94    62    63   ar
    95    62    61    1
    96    92    91    1
    97    88    91    1
    98    88    87    1
    99    69    59   am
   100    91    93    1
   101    59    58    1
   102    61    58    1
   103    58    57    1
