@<TRIPOS>MOLECULE
tmp/4ytcA00.pdb
 162 154 0 0 0
SMALL
GASTEIGER

@<TRIPOS>ATOM
      1  N         10.9580    5.1530   12.5050 N.3    12  GLN12      -0.1245
      2  CA        12.2300    5.8330   12.7230 C.3    12  GLN12       0.1566
      3  C         12.1880    7.2760   12.2670 C.2    12  GLN12       0.2260
      4  O         11.4640    7.6090   11.3440 O.2    12  GLN12      -0.2867
      5  CB        13.2470    5.0570   11.8580 C.3    12  GLN12       0.0367
      6  CG        14.7200    5.4330   11.9070 C.3    12  GLN12       0.0905
      7  CD        15.4850    4.4420   11.0790 C.2    12  GLN12       0.2608
      8  OE1       15.6500    3.2800   11.4670 O.2    12  GLN12      -0.2717
      9  NE2       15.9430    4.8660    9.9130 N.am   12  GLN12      -0.0878
     10  N         13.8810   10.2580   10.2670 N.3    14  LEU14      -0.1231
     11  CA        14.7760   10.3390    9.1150 C.3    14  LEU14       0.1696
     12  C         15.5380   11.6370    9.0540 C.2    14  LEU14       0.2631
     13  O         16.6990   11.6040    8.6590 O.2    14  LEU14      -0.2714
     14  CB        14.0570   10.0500    7.7730 C.3    14  LEU14       0.0284
     15  CG        13.3110    8.7030    7.6090 C.3    14  LEU14       0.0019
     16  CD1       12.4780    8.7020    6.3650 C.3    14  LEU14       0.0001
     17  CD2       14.2600    7.4660    7.6460 C.3    14  LEU14       0.0001
     18  N         14.9130   12.7490    9.4490 N.am   15  GLY15      -0.1732
     19  CA        15.5480   14.0630    9.4360 C.2    15  GLY15       0.1340
     20  C         14.6890   15.1940    9.9420 C.2    15  GLY15       0.2521
     21  O         13.4690   15.0470   10.0380 O.2    15  GLY15      -0.2816
     22  N         10.8250   14.6590    9.1300 N.3    20  VAL20      -0.1245
     23  CA        10.5620   13.5570    8.2260 C.3    20  VAL20       0.1561
     24  C         10.7940   12.2720    9.0080 C.2    20  VAL20       0.2260
     25  O         11.8530   12.0960    9.6050 O.2    20  VAL20      -0.2867
     26  CB        11.3470   13.6260    6.8770 C.3    20  VAL20       0.0252
     27  CG1       10.9010   12.5210    5.9190 C.3    20  VAL20       0.0019
     28  CG2       11.1750   14.9980    6.2010 C.3    20  VAL20       0.0019
     29  N          7.1910    7.6800    3.8410 N.3    37  ALA37      -0.1245
     30  CA         7.9550    8.7820    4.4300 C.3    37  ALA37       0.1562
     31  C          6.8640    9.8120    4.7730 C.2    37  ALA37       0.2260
     32  O          5.9910   10.1060    3.9330 O.2    37  ALA37      -0.2867
     33  CB         8.9560    9.3500    3.4350 C.3    37  ALA37       0.0290
     34  N          6.1310   13.6830    6.3160 N.3    39  LYS39      -0.1245
     35  CA         6.6210   15.0000    6.6870 C.3    39  LYS39       0.1561
     36  C          5.5250   15.7060    7.4920 C.2    39  LYS39       0.2260
     37  O          4.3630   15.7160    7.0800 O.2    39  LYS39      -0.2867
     38  CB         7.0670   15.8390    5.4880 C.3    39  LYS39       0.0271
     39  CG         7.6310   17.2070    5.9040 C.3    39  LYS39       0.0035
     40  CD         8.4180   17.8860    4.8130 C.3    39  LYS39       0.0206
     41  CE         8.8340   19.2740    5.2690 C.3    39  LYS39       0.1093
     42  NZ         9.9100   19.8230    4.3920 N.3    39  LYS39      -0.1314
     43  N         10.6600   12.9400   -5.9680 N.3    68  VAL68      -0.1245
     44  CA        10.0300   12.0820   -4.9310 C.3    68  VAL68       0.1561
     45  C          8.4730   12.1360   -5.1720 C.2    68  VAL68       0.2260
     46  O          7.9120   13.2180   -5.4720 O.2    68  VAL68      -0.2867
     47  CB        10.4870   12.4480   -3.4630 C.3    68  VAL68       0.0252
     48  CG1       10.0640   13.8580   -3.0630 C.3    68  VAL68       0.0019
     49  CG2        9.9650   11.4340   -2.4340 C.3    68  VAL68       0.0019
     50  N          4.5860   10.5320    1.5330 N.3    85  MET85      -0.1230
     51  CA         5.4380   10.3560    0.3460 C.3    85  MET85       0.1702
     52  C          5.9560    8.9610    0.3030 C.2    85  MET85       0.2595
     53  O          5.9780    8.2680    1.3230 O.2    85  MET85      -0.2718
     54  CB         6.6790   11.2710    0.4340 C.3    85  MET85       0.0401
     55  CG         6.3740   12.7400    0.4100 C.3    85  MET85       0.0596
     56  SD         7.8580   13.6570    0.8550 S.3    85  MET85      -0.1393
     57  CE         7.8520   13.4740    2.6870 C.3    85  MET85       0.0692
     58  N          6.4460    8.5600   -0.8630 N.am   86  GLU86      -0.1920
     59  CA         7.0930    7.2500   -1.0160 C.3    86  GLU86       0.1949
     60  C          8.3880    7.2920   -0.1760 C.2    86  GLU86       0.2659
     61  O          9.0660    8.3370   -0.0880 O.2    86  GLU86      -0.2711
     62  CB         7.4440    6.9510   -2.4970 C.2    86  GLU86       0.0111
     63  CG         8.3630    7.9730   -3.1840 C.2    86  GLU86       0.0838
     64  CD         8.9170    7.6330   -4.5590 C.2    86  GLU86       0.3877
     65  OE1        8.6930    6.5040   -5.0590 O.co2  86  GLU86      -0.2406
     66  OE2        9.6180    8.5000   -5.1250 O.co2  86  GLU86      -0.2406
     67  N          8.6900    6.1780    0.4510 N.am   87  TYR87      -0.1957
     68  CA         9.9030    6.0140    1.2290 C.3    87  TYR87       0.1771
     69  C         11.0130    5.5780    0.2400 C.2    87  TYR87       0.2619
     70  O         10.8390    4.5980   -0.4660 O.2    87  TYR87      -0.2715
     71  CB         9.7200    4.9660    2.3480 C.3    87  TYR87       0.0574
     72  CG        11.0040    4.6600    3.0940 C.ar   87  TYR87      -0.0198
     73  CD1       11.5930    5.6110    3.9270 C.ar   87  TYR87      -0.0009
     74  CD2       11.6330    3.4120    2.9680 C.ar   87  TYR87      -0.0009
     75  CE1       12.7840    5.3430    4.6060 C.ar   87  TYR87       0.0417
     76  CE2       12.8110    3.1200    3.6680 C.ar   87  TYR87       0.0417
     77  CZ        13.3870    4.0930    4.4810 C.ar   87  TYR87       0.1957
     78  OH        14.5520    3.8480    5.1710 O.3    87  TYR87      -0.2866
     79  N         12.1330    6.3160    0.2010 N.am   88  LEU88      -0.1964
     80  CA        13.2970    6.0190   -0.6670 C.3    88  LEU88       0.1713
     81  C         14.3120    5.3800    0.2750 C.2    88  LEU88       0.2458
     82  O         14.7730    6.0460    1.2130 O.2    88  LEU88      -0.2730
     83  CB        13.7690    7.2470   -1.4760 C.3    88  LEU88       0.0310
     84  CG        12.6630    7.8570   -2.3950 C.3    88  LEU88       0.0022
     85  CD1       13.1520    9.1010   -3.1050 C.3    88  LEU88       0.0001
     86  CD2       12.1610    6.8560   -3.4470 C.3    88  LEU88       0.0001
     87  N         14.5540    4.0540    0.1250 N.am   89  PRO89      -0.2716
     88  CA        15.3510    3.3220    1.1430 C.3    89  PRO89       0.1536
     89  C         16.8550    3.5680    1.2620 C.2    89  PRO89       0.2599
     90  O         17.3980    3.1830    2.2960 O.2    89  PRO89      -0.2715
     91  CB        15.1090    1.8440    0.7840 C.3    89  PRO89       0.0310
     92  CG        14.7500    1.8360   -0.6750 C.3    89  PRO89       0.0237
     93  CD        13.9900    3.1250   -0.8870 C.3    89  PRO89       0.0939
     94  N         17.5300    4.1670    0.2700 N.am   90  TYR90      -0.1960
     95  CA        18.9820    4.3670    0.3950 C.3    90  TYR90       0.1771
     96  C         19.3720    5.7420    0.9880 C.2    90  TYR90       0.2620
     97  O         20.5490    6.0310    1.0790 O.2    90  TYR90      -0.2715
     98  CB        19.7060    4.0920   -0.9240 C.3    90  TYR90       0.0574
     99  CG        19.7180    2.6530   -1.3800 C.ar   90  TYR90      -0.0198
    100  CD1       18.5860    2.0690   -1.9460 C.ar   90  TYR90      -0.0009
    101  CD2       20.8720    1.8750   -1.2780 C.ar   90  TYR90      -0.0009
    102  CE1       18.5920    0.7420   -2.3880 C.ar   90  TYR90       0.0417
    103  CE2       20.8940    0.5450   -1.7320 C.ar   90  TYR90       0.0417
    104  CZ        19.7500   -0.0120   -2.2920 C.ar   90  TYR90       0.1957
    105  OH        19.7340   -1.3070   -2.7450 O.3    90  TYR90      -0.2866
    106  N         18.3880    6.5300    1.4420 N.am   91  GLY91      -0.1940
    107  CA        18.6050    7.8200    2.0990 C.3    91  GLY91       0.2014
    108  C         19.0770    8.9490    1.2240 C.2    91  GLY91       0.2639
    109  O         18.9030    8.8930    0.0100 O.2    91  GLY91      -0.2714
    110  N         19.6560    9.9930    1.8490 N.am   92  SER92      -0.1949
    111  CA        20.1610   11.1380    1.0870 C.3    92  SER92       0.1924
    112  C         21.4500   10.7620    0.3830 C.2    92  SER92       0.2314
    113  O         22.2400    9.9600    0.8870 O.2    92  SER92      -0.2863
    114  CB        20.3450   12.3860    1.9460 C.3    92  SER92       0.2116
    115  OG        21.5320   12.3220    2.7060 O.3    92  SER92      -0.2180
    116  N         24.8460   11.1550    2.2540 N.3    95  ASP95      -0.1239
    117  CA        25.2080   10.0190    3.1010 C.3    95  ASP95       0.1674
    118  C         25.5860    8.8260    2.2800 C.2    95  ASP95       0.2266
    119  O         26.5890    8.2010    2.5830 O.2    95  ASP95      -0.2867
    120  CB        24.0880    9.6950    4.1220 C.3    95  ASP95       0.1410
    121  CG        23.6770   10.8850    4.9860 C.2    95  ASP95       0.3668
    122  OD1       24.5660   11.6950    5.3560 O.co2  95  ASP95      -0.2456
    123  OD2       22.4650   11.0130    5.2860 O.co2  95  ASP95      -0.2456
    124  N         22.3520   16.7800    0.2050 N.3   136  ARG136     -0.1231
    125  CA        21.5540   16.4060    1.3950 C.3   136  ARG136      0.1694
    126  C         20.0490   16.3290    1.0180 C.2   136  ARG136      0.2592
    127  O         19.3340   15.5790    1.6530 O.2   136  ARG136     -0.2718
    128  CB        21.7640   17.4030    2.5810 C.3   136  ARG136      0.0321
    129  CG        21.2310   18.8300    2.3350 C.3   136  ARG136      0.0489
    130  CD        21.2420   19.7680    3.5320 C.3   136  ARG136      0.2205
    131  NE        20.6910   21.0830    3.1470 N.pl3 136  ARG136     -0.0865
    132  CZ        20.5600   22.1440    3.9460 C.cat 136  ARG136      0.5346
    133  NH1       20.9400   22.0810    5.2200 N.pl3 136  ARG136      0.1354
    134  NH2       20.0480   23.2730    3.4780 N.pl3 136  ARG136      0.1354
    135  N         19.5880   17.0940   -0.0130 N.am  137  ASN137     -0.1974
    136  CA        18.1750   17.1400   -0.4270 C.3   137  ASN137      0.1688
    137  C         17.8600   16.2290   -1.6030 C.2   137  ASN137      0.2292
    138  O         16.7250   16.2050   -2.0830 O.2   137  ASN137     -0.2864
    139  CB        17.7500   18.6060   -0.6860 C.3   137  ASN137      0.1181
    140  CG        17.7650   19.4000    0.5930 C.2   137  ASN137      0.2629
    141  OD1       17.3540   18.9110    1.6350 O.2   137  ASN137     -0.2716
    142  ND2       18.2600   20.6220    0.5670 N.am  137  ASN137     -0.0877
    143  N         17.6890   12.3310   -2.8380 N.3   139  LEU139     -0.1245
    144  CA        17.4630   10.9960   -2.2560 C.3   139  LEU139      0.1561
    145  C         17.7430    9.8980   -3.2410 C.2   139  LEU139      0.2260
    146  O         17.5860   10.0760   -4.4500 O.2   139  LEU139     -0.2867
    147  CB        16.0430   10.8810   -1.6430 C.3   139  LEU139      0.0270
    148  CG        15.6370   11.9790   -0.6490 C.3   139  LEU139      0.0019
    149  CD1       14.1300   12.1970   -0.6780 C.3   139  LEU139      0.0001
    150  CD2       16.2440   11.7690    0.7420 C.3   139  LEU139      0.0001
    151  N         14.1780   15.7740   -3.5520 N.3   149  GLY149     -0.1210
    152  CA        13.2440   15.7420   -2.4330 C.3   149  GLY149      0.1956
    153  C         13.3470   17.1040   -1.7920 C.2   149  GLY149      0.2611
    154  O         14.0670   18.0050   -2.2860 O.2   149  GLY149     -0.2717
    155  N         12.6310   17.2550   -0.7040 N.am  150  ASP150     -0.1973
    156  CA        12.5970   18.4390    0.1410 C.3   150  ASP150      0.1709
    157  C         12.3350   19.7530   -0.6260 C.2   150  ASP150      0.2293
    158  O         13.2730   20.4310   -1.0930 O.2   150  ASP150     -0.2864
    159  CB        13.8920   18.5050    0.9810 C.3   150  ASP150      0.1436
    160  CG        13.6820   19.0740    2.3540 C.2   150  ASP150      0.3671
    161  OD1       13.0520   20.1730    2.4600 O.co2 150  ASP150     -0.2456
    162  OD2       14.1510   18.4350    3.3370 O.co2 150  ASP150     -0.2456
@<TRIPOS>BOND
     1    43    44    1
     2    46    45    2
     3    45    44    1
     4    66    64   ar
     5    65    64   ar
     6    44    47    1
     7    64    63    1
     8   146   145    2
     9   151   152    1
    10    47    48    1
    11    47    49    1
    12    86    84    1
    13   145   144    1
    14    63    62    2
    15    85    84    1
    16   143   144    1
    17   105   104    1
    18    62    59    1
    19   152   153    1
    20    84    83    1
    21   102   104   ar
    22   102   100   ar
    23   104   103   ar
    24   154   153    2
    25   144   147    1
    26   138   137    2
    27   100    99   ar
    28   153   155   am
    29   103   101   ar
    30   147   148    1
    31   137   136    1
    32    83    80    1
    33    99   101   ar
    34    99    98    1
    35   158   157    2
    36    59    58    1
    37    59    60    1
    38    98    95    1
    39    93    92    1
    40    93    87    1
    41    58    52   am
    42   155   156    1
    43   139   136    1
    44   139   140    1
    45   149   148    1
    46    92    91    1
    47    80    79    1
    48    80    81    1
    49   148   150    1
    50   157   156    1
    51    70    69    2
    52   136   135    1
    53    60    61    2
    54    60    67   am
    55   135   126   am
    56   109   108    2
    57    87    81   am
    58    87    88    1
    59   156   159    1
    60    79    69   am
    61   124   125    1
    62    69    68    1
    63    94    95    1
    64    94    89   am
    65    81    82    2
    66    52    51    1
    67    52    53    2
    68    51    54    1
    69    51    50    1
    70   112   113    2
    71   112   111    1
    72    95    96    1
    73    55    54    1
    74    55    56    1
    75    67    68    1
    76   142   140   am
    77   140   141    2
    78    91    88    1
    79    56    57    1
    80   159   160    1
    81    96    97    2
    82    96   106   am
    83   126   125    1
    84   126   127    2
    85   111   110    1
    86   111   114    1
    87    88    89    1
    88   108   110   am
    89   108   107    1
    90    68    71    1
    91    89    90    2
    92   125   128    1
    93   106   107    1
    94   114   115    1
    95   116   117    1
    96   118   119    2
    97   118   117    1
    98   129   128    1
    99   129   130    1
   100    71    72    1
   101   160   161   ar
   102   160   162   ar
   103    74    72   ar
   104    74    76   ar
   105    72    73   ar
   106   117   120    1
   107   131   130    1
   108   131   132    2
   109    33    30    1
   110   134   132    1
   111    76    77   ar
   112    29    30    1
   113    73    75   ar
   114    32    31    2
   115   132   133    1
   116   120   121    1
   117    42    41    1
   118    30    31    1
   119    77    75   ar
   120    77    78    1
   121    40    41    1
   122    40    39    1
   123   121   123   ar
   124   121   122   ar
   125    38    39    1
   126    38    35    1
   127    27    26    1
   128    28    26    1
   129    34    35    1
   130    16    15    1
   131    35    36    1
   132    26    23    1
   133    37    36    2
   134    15    17    1
   135    15    14    1
   136    14    11    1
   137    23    24    1
   138    23    22    1
   139    13    12    2
   140    24    25    2
   141    12    11    1
   142    12    18    1
   143    11    10    1
   144    19    18    2
   145    19    20    1
   146     9     7   am
   147    20    21    2
   148     7     8    2
   149     7     6    1
   150     4     3    2
   151     5     6    1
   152     5     2    1
   153     3     2    1
   154     1     2    1
