@<TRIPOS>MOLECULE
tmp/4ytfA00.pdb
 156 148 0 0 0
SMALL
GASTEIGER

@<TRIPOS>ATOM
      1  N         13.9010   10.1690   10.4110 N.3    14  LEU14      -0.1231
      2  CA        14.7920   10.2110    9.2450 C.3    14  LEU14       0.1693
      3  C         15.6730   11.4240    9.2650 C.2    14  LEU14       0.2593
      4  O         16.8820   11.3200    8.9790 O.2    14  LEU14      -0.2718
      5  CB        14.0420   10.0600    7.8910 C.3    14  LEU14       0.0284
      6  CG        13.4620    8.6710    7.5760 C.3    14  LEU14       0.0019
      7  CD1       12.5230    8.7480    6.4300 C.3    14  LEU14       0.0001
      8  CD2       14.5610    7.6030    7.3050 C.3    14  LEU14       0.0001
      9  N         15.0750   12.5530    9.6080 N.am   15  GLY15      -0.1942
     10  CA        15.7970   13.8010    9.6850 C.3    15  GLY15       0.2014
     11  C         14.9240   14.9930    9.9310 C.2    15  GLY15       0.2639
     12  O         13.6870   14.9180    9.8710 O.2    15  GLY15      -0.2714
     13  N         15.5930   16.1130   10.1840 N.am   16  LYS16      -0.1963
     14  CA        14.9420   17.3800   10.4560 C.3    16  LYS16       0.1728
     15  C         15.4170   18.4330    9.4570 C.2    16  LYS16       0.2616
     16  O         16.6070   18.4890    9.1180 O.2    16  LYS16      -0.2715
     17  CB        15.0770   17.7920   11.9500 C.3    16  LYS16       0.0311
     18  CG        14.4650   16.7590   12.9400 C.3    16  LYS16       0.0038
     19  CD        13.5880   17.3160   14.0640 C.3    16  LYS16       0.0206
     20  CE        14.2410   17.4220   15.4310 C.3    16  LYS16       0.1093
     21  NZ        14.6550   16.1060   16.0080 N.3    16  LYS16      -0.1314
     22  N         14.4540   19.2030    8.9470 N.am   17  GLY17      -0.1955
     23  CA        14.6470   20.2840    7.9870 C.3    17  GLY17       0.1869
     24  C         14.1080   21.6030    8.5010 C.2    17  GLY17       0.2309
     25  O         13.9090   22.5430    7.7300 O.2    17  GLY17      -0.2863
     26  N         10.1320   21.4980   10.5000 N.3    18  GLY18      -0.1210
     27  CA         9.6080   20.2180   10.0420 C.3    18  GLY18       0.1956
     28  C         10.5470   19.0310   10.1890 C.2    18  GLY18       0.2613
     29  O         11.7800   19.1890   10.2300 O.2    18  GLY18      -0.2717
     30  N          9.9650   17.8250   10.2900 N.am   19  SER19      -0.1938
     31  CA        10.7160   16.5780   10.4280 C.3    19  SER19       0.2055
     32  C         10.0770   15.5260    9.5850 C.2    19  SER19       0.2642
     33  O          8.8600   15.5550    9.3670 O.2    19  SER19      -0.2714
     34  CB        10.8070   16.1030   11.8820 C.3    19  SER19       0.2130
     35  OG         9.5540   15.7140   12.4060 O.3    19  SER19      -0.2179
     36  N         10.9100   14.6150    9.1190 N.am   20  VAL20      -0.1977
     37  CA        10.5550   13.4760    8.2750 C.3    20  VAL20       0.1596
     38  C         10.8100   12.1950    9.0590 C.2    20  VAL20       0.2287
     39  O         11.8930   12.0210    9.6180 O.2    20  VAL20      -0.2864
     40  CB        11.2490   13.5110    6.8820 C.3    20  VAL20       0.0276
     41  CG1       10.9240   12.2710    6.0450 C.3    20  VAL20       0.0022
     42  CG2       10.8610   14.7780    6.1190 C.3    20  VAL20       0.0022
     43  N          7.4890    7.7190    3.9240 N.3    37  ALA37      -0.1245
     44  CA         8.1560    8.8260    4.5840 C.3    37  ALA37       0.1562
     45  C          7.0470    9.8180    4.8890 C.2    37  ALA37       0.2260
     46  O          6.1460   10.0780    4.0440 O.2    37  ALA37      -0.2867
     47  CB         9.1990    9.4490    3.6680 C.3    37  ALA37       0.0290
     48  N         10.9330   13.0460   -5.9610 N.3    68  VAL68      -0.1245
     49  CA        10.3430   12.1600   -4.8920 C.3    68  VAL68       0.1561
     50  C          8.7850   12.1890   -5.0860 C.2    68  VAL68       0.2260
     51  O          8.1780   13.2650   -5.3680 O.2    68  VAL68      -0.2867
     52  CB        10.8150   12.5160   -3.4530 C.3    68  VAL68       0.0252
     53  CG1       10.2980   13.8920   -2.9880 C.3    68  VAL68       0.0019
     54  CG2       10.4240   11.4180   -2.4520 C.3    68  VAL68       0.0019
     55  N          4.8470   10.6180    1.5880 N.3    84  MET84      -0.1230
     56  CA         5.6610   10.4410    0.3960 C.3    84  MET84       0.1702
     57  C          6.2490    9.0580    0.3390 C.2    84  MET84       0.2592
     58  O          6.3270    8.3860    1.3750 O.2    84  MET84      -0.2718
     59  CB         6.8550   11.4130    0.4630 C.3    84  MET84       0.0401
     60  CG         6.4630   12.8650    0.4280 C.3    84  MET84       0.0596
     61  SD         7.8070   13.9890    0.8920 S.3    84  MET84      -0.1393
     62  CE         7.8320   13.7510    2.7490 C.3    84  MET84       0.0692
     63  N          6.7440    8.6460   -0.8490 N.am   85  GLU85      -0.1966
     64  CA         7.4370    7.3410   -0.9260 C.3    85  GLU85       0.1733
     65  C          8.6980    7.4080   -0.0470 C.2    85  GLU85       0.2616
     66  O          9.3130    8.4790    0.1360 O.2    85  GLU85      -0.2715
     67  CB         7.7930    6.9650   -2.3380 C.3    85  GLU85       0.0429
     68  CG         8.7370    7.9910   -3.0080 C.3    85  GLU85       0.1163
     69  CD         9.1530    7.6530   -4.4200 C.2    85  GLU85       0.3649
     70  OE1        8.8880    6.5170   -4.8620 O.co2  85  GLU85      -0.2457
     71  OE2        9.7660    8.5250   -5.0790 O.co2  85  GLU85      -0.2457
     72  N          9.0600    6.2490    0.4910 N.am   86  TYR86      -0.1960
     73  CA        10.2780    6.1240    1.2750 C.3    86  TYR86       0.1771
     74  C         11.3590    5.5810    0.3280 C.2    86  TYR86       0.2619
     75  O         11.1770    4.5110   -0.2710 O.2    86  TYR86      -0.2715
     76  CB        10.0760    5.1840    2.4980 C.3    86  TYR86       0.0574
     77  CG        11.4180    4.8880    3.1610 C.ar   86  TYR86      -0.0198
     78  CD1       12.1290    5.8900    3.8140 C.ar   86  TYR86      -0.0009
     79  CD2       11.9900    3.6110    3.0930 C.ar   86  TYR86      -0.0009
     80  CE1       13.3790    5.6360    4.3980 C.ar   86  TYR86       0.0417
     81  CE2       13.2130    3.3310    3.7130 C.ar   86  TYR86       0.0417
     82  CZ        13.9020    4.3480    4.3660 C.ar   86  TYR86       0.1957
     83  OH        15.1270    4.1160    4.9540 O.3    86  TYR86      -0.2866
     84  N         12.4960    6.3300    0.1860 N.am   87  LEU87      -0.1977
     85  CA        13.6320    5.9360   -0.7090 C.3    87  LEU87       0.1596
     86  C         14.7000    5.3240    0.1780 C.2    87  LEU87       0.2287
     87  O         15.2850    6.0020    1.0090 O.2    87  LEU87      -0.2864
     88  CB        14.0890    7.1150   -1.5700 C.3    87  LEU87       0.0297
     89  CG        12.9460    7.5760   -2.5070 C.3    87  LEU87       0.0022
     90  CD1       13.4800    8.6610   -3.4820 C.3    87  LEU87       0.0001
     91  CD2       12.3290    6.3810   -3.3160 C.3    87  LEU87       0.0001
     92  N         18.7650    6.3160    1.2720 N.3    90  GLY90      -0.1210
     93  CA        19.0350    7.5720    1.9850 C.3    90  GLY90       0.1956
     94  C         19.3490    8.7640    1.1100 C.2    90  GLY90       0.2612
     95  O         19.0540    8.7650   -0.0910 O.2    90  GLY90      -0.2717
     96  N         19.9060    9.7950    1.7210 N.am   91  SER91      -0.1952
     97  CA        20.2430   10.9940    0.9350 C.3    91  SER91       0.1924
     98  C         21.4810   10.6870    0.1490 C.2    91  SER91       0.2314
     99  O         22.2850    9.8140    0.5120 O.2    91  SER91      -0.2863
    100  CB        20.4410   12.2360    1.8140 C.3    91  SER91       0.2116
    101  OG        21.5900   12.0400    2.6200 O.3    91  SER91      -0.2180
    102  N         24.5840   11.2890    2.2410 N.3    94  ASP94      -0.1239
    103  CA        24.9090   10.1480    3.1270 C.3    94  ASP94       0.1674
    104  C         25.4800    8.9690    2.3470 C.2    94  ASP94       0.2266
    105  O         26.4960    8.3940    2.7530 O.2    94  ASP94      -0.2867
    106  CB        23.6330    9.7280    3.9080 C.3    94  ASP94       0.1410
    107  CG        23.2960   10.6630    5.0640 C.2    94  ASP94       0.3668
    108  OD1       24.1090   11.5560    5.3670 O.co2  94  ASP94      -0.2456
    109  OD2       22.2500   10.4660    5.6950 O.co2  94  ASP94      -0.2456
    110  N         22.2660   16.9990    0.1370 N.3   135  ARG135     -0.1231
    111  CA        21.4450   16.6150    1.3100 C.3   135  ARG135      0.1694
    112  C         19.9510   16.5440    0.9170 C.2   135  ARG135      0.2592
    113  O         19.2000   15.8260    1.5780 O.2   135  ARG135     -0.2718
    114  CB        21.6530   17.5650    2.5110 C.3   135  ARG135      0.0321
    115  CG        21.2420   19.0190    2.2550 C.3   135  ARG135      0.0489
    116  CD        21.2800   19.9480    3.4770 C.3   135  ARG135      0.2205
    117  NE        20.7030   21.2430    3.0690 N.pl3 135  ARG135     -0.0865
    118  CZ        20.6530   22.3520    3.8060 C.cat 135  ARG135      0.5346
    119  NH1       21.1660   22.3700    5.0360 N.pl3 135  ARG135      0.1354
    120  NH2       20.0980   23.4540    3.3170 N.pl3 135  ARG135      0.1354
    121  N         19.5530   17.2580   -0.1870 N.am  136  ASN136     -0.1960
    122  CA        18.1730   17.3050   -0.6880 C.3   136  ASN136      0.1819
    123  C         17.9360   16.4060   -1.8970 C.2   136  ASN136      0.2621
    124  O         16.9320   16.5640   -2.5900 O.2   136  ASN136     -0.2715
    125  CB        17.7760   18.7530   -0.9360 C.3   136  ASN136      0.1195
    126  CG        17.6410   19.4450    0.4090 C.2   136  ASN136      0.2630
    127  OD1       17.2850   18.8280    1.4520 O.2   136  ASN136     -0.2716
    128  ND2       18.0100   20.6940    0.4550 N.am  136  ASN136     -0.0877
    129  N         18.8590   15.4800   -2.1520 N.am  137  ILE137     -0.1963
    130  CA        18.7300   14.4940   -3.2380 C.3   137  ILE137      0.1727
    131  C         18.6730   13.1080   -2.5230 C.2   137  ILE137      0.2616
    132  O         19.4650   12.8470   -1.6020 O.2   137  ILE137     -0.2715
    133  CB        19.8680   14.6030   -4.2800 C.3   137  ILE137      0.0290
    134  CG1       19.8680   16.0320   -4.9180 C.3   137  ILE137      0.0022
    135  CG2       19.7240   13.4950   -5.3640 C.3   137  ILE137      0.0023
    136  CD1       21.1810   16.5060   -5.3430 C.3   137  ILE137      0.0001
    137  N         17.7570   12.2430   -2.9620 N.am  138  LEU138     -0.1977
    138  CA        17.5780   10.9100   -2.3670 C.3   138  LEU138      0.1596
    139  C         17.9920    9.8420   -3.3410 C.2   138  LEU138      0.2287
    140  O         17.8720   10.0260   -4.5550 O.2   138  LEU138     -0.2864
    141  CB        16.0870   10.7070   -2.0060 C.3   138  LEU138      0.0297
    142  CG        15.5430   11.5060   -0.8620 C.3   138  LEU138      0.0022
    143  CD1       13.9740   11.4860   -0.8900 C.3   138  LEU138      0.0001
    144  CD2       16.1400   10.9680    0.4780 C.3   138  LEU138      0.0001
    145  N         14.4420   15.9440   -3.5650 N.3   148  GLY148     -0.1210
    146  CA        13.5620   16.0520   -2.4040 C.3   148  GLY148      0.1956
    147  C         13.6030   17.4730   -1.8590 C.2   148  GLY148      0.2611
    148  O         14.2530   18.4070   -2.4070 O.2   148  GLY148     -0.2717
    149  N         12.9160   17.6210   -0.7620 N.am  149  ASP149     -0.1973
    150  CA        12.7100   18.7740    0.0790 C.3   149  ASP149      0.1709
    151  C         12.3760   20.0580   -0.7150 C.2   149  ASP149      0.2293
    152  O         13.2380   20.9300   -0.9590 O.2   149  ASP149     -0.2864
    153  CB        13.8400   19.0100    1.0740 C.3   149  ASP149      0.1436
    154  CG        13.5150   20.0170    2.1980 C.2   149  ASP149      0.3671
    155  OD1       12.6030   20.8420    2.0160 O.co2 149  ASP149     -0.2456
    156  OD2       14.1660   19.9430    3.2920 O.co2 149  ASP149     -0.2456
@<TRIPOS>BOND
     1    48    49    1
     2    51    50    2
     3   135   133    1
     4   136   134    1
     5    50    49    1
     6    71    69   ar
     7   134   133    1
     8    49    52    1
     9    70    69   ar
    10   140   139    2
    11    69    68    1
    12   133   130    1
    13   145   146    1
    14    90    89    1
    15    52    53    1
    16    52    54    1
    17   139   138    1
    18    91    89    1
    19   130   131    1
    20   130   129    1
    21    68    67    1
    22   137   131   am
    23   137   138    1
    24   124   123    2
    25   131   132    2
    26    89    88    1
    27   148   147    2
    28   146   147    1
    29   138   141    1
    30    67    64    1
    31   129   123   am
    32   141   142    1
    33   123   122    1
    34   147   149   am
    35    88    85    1
    36   152   151    2
    37   125   122    1
    38   125   126    1
    39    64    63    1
    40    64    65    1
    41   143   142    1
    42   142   144    1
    43    63    57   am
    44   149   150    1
    45   151   150    1
    46    85    86    1
    47    85    84    1
    48   122   121    1
    49    75    74    2
    50   121   112   am
    51    95    94    2
    52    65    66    2
    53    65    72   am
    54   150   153    1
    55   110   111    1
    56    98    99    2
    57    98    97    1
    58    86    87    2
    59    84    74   am
    60    74    73    1
    61    57    56    1
    62    57    58    2
    63    56    59    1
    64    56    55    1
    65   126   128   am
    66   126   127    2
    67    60    59    1
    68    60    61    1
    69    72    73    1
    70    61    62    1
    71   112   111    1
    72   112   113    2
    73    97    96    1
    74    97   100    1
    75   153   154    1
    76    94    96   am
    77    94    93    1
    78    92    93    1
    79    73    76    1
    80   111   114    1
    81   100   101    1
    82   155   154   ar
    83   154   156   ar
    84   102   103    1
    85   115   114    1
    86   115   116    1
    87   104   105    2
    88   104   103    1
    89    76    77    1
    90   117   116    1
    91   117   118    2
    92    79    77   ar
    93    79    81   ar
    94   103   106    1
    95    77    78   ar
    96   120   118    1
    97    47    44    1
    98    81    82   ar
    99   118   119    1
   100    78    80   ar
   101   106   107    1
   102    43    44    1
   103    46    45    2
   104    82    80   ar
   105    82    83    1
   106    44    45    1
   107   107   108   ar
   108   107   109   ar
   109    41    40    1
   110    42    40    1
   111     7     6    1
   112    40    37    1
   113     8     6    1
   114     6     5    1
   115    25    24    2
   116     5     2    1
   117    23    24    1
   118    23    22    1
   119    37    38    1
   120    37    36    1
   121    22    15   am
   122     4     3    2
   123    38    39    2
   124    16    15    2
   125    36    32   am
   126     2     3    1
   127     2     1    1
   128     3     9   am
   129    33    32    2
   130    15    14    1
   131    32    31    1
   132     9    10    1
   133    10    11    1
   134    12    11    2
   135    11    13   am
   136    27    28    1
   137    27    26    1
   138    13    14    1
   139    28    29    2
   140    28    30   am
   141    30    31    1
   142    31    34    1
   143    14    17    1
   144    34    35    1
   145    17    18    1
   146    18    19    1
   147    19    20    1
   148    20    21    1
