@<TRIPOS>MOLECULE
tmp/4ytgA02.pdb
 143 136 0 0 0
SMALL
GASTEIGER

@<TRIPOS>ATOM
      1  N         59.2180   43.1730   94.2070 N.3    84  TRP84      -0.1241
      2  CA        57.7710   43.1060   94.0070 C.3    84  TRP84       0.1605
      3  C         57.1220   44.4820   94.2000 C.2    84  TRP84       0.2264
      4  O         56.2950   44.6860   95.1160 O.2    84  TRP84      -0.2867
      5  CB        57.1280   42.0100   94.8820 C.3    84  TRP84       0.0550
      6  CG        57.5870   40.6600   94.4560 C.ar   84  TRP84       0.0003
      7  CD1       57.2770   40.0130   93.2950 C.ar   84  TRP84       0.0946
      8  CD2       58.4480   39.7850   95.1880 C.ar   84  TRP84       0.0152
      9  NE1       57.9570   38.8200   93.2210 N.ar   84  TRP84      -0.2442
     10  CE2       58.6430   38.6290   94.3960 C.ar   84  TRP84       0.0810
     11  CE3       59.0450   39.8480   96.4570 C.ar   84  TRP84       0.0012
     12  CZ2       59.4260   37.5540   94.8260 C.ar   84  TRP84       0.0191
     13  CZ3       59.8330   38.7880   96.8700 C.ar   84  TRP84       0.0001
     14  CH2       60.0430   37.6730   96.0450 C.ar   84  TRP84       0.0015
     15  N         54.8210   45.8340   92.6940 N.3    86  ARG86      -0.1231
     16  CA        53.3680   45.8110   92.7120 C.3    86  ARG86       0.1694
     17  C         52.8100   45.8300   94.1180 C.2    86  ARG86       0.2592
     18  O         51.7400   46.3770   94.3600 O.2    86  ARG86      -0.2718
     19  CB        52.8840   44.4970   92.0430 C.3    86  ARG86       0.0321
     20  CG        51.3710   44.2230   92.1590 C.3    86  ARG86       0.0489
     21  CD        50.4960   45.3210   91.5250 C.3    86  ARG86       0.2205
     22  NE        50.9670   45.6870   90.1770 N.pl3  86  ARG86      -0.0865
     23  CZ        50.5220   46.7230   89.4790 C.cat  86  ARG86       0.5346
     24  NH1       49.4990   47.4470   89.9300 N.pl3  86  ARG86       0.1354
     25  NH2       51.0510   47.0080   88.2870 N.pl3  86  ARG86       0.1354
     26  N         53.4770   45.0940   95.0100 N.am   87  ASP87      -0.1974
     27  CA        52.9080   44.7620   96.2950 C.3    87  ASP87       0.1709
     28  C         53.1360   45.7640   97.3830 C.2    87  ASP87       0.2293
     29  O         52.3060   45.8140   98.2960 O.2    87  ASP87      -0.2864
     30  CB        53.4750   43.3980   96.7390 C.3    87  ASP87       0.1436
     31  CG        53.0200   42.2710   95.8080 C.2    87  ASP87       0.3671
     32  OD1       52.0540   42.4870   95.0260 O.co2  87  ASP87      -0.2456
     33  OD2       53.6820   41.2270   95.7860 O.co2  87  ASP87      -0.2456
     34  N         52.5230   46.8510  104.5900 N.3   107  TYR107     -0.1241
     35  CA        52.8190   45.7510  103.6520 C.3   107  TYR107      0.1605
     36  C         52.7690   44.4130  104.4090 C.2   107  TYR107      0.2264
     37  O         53.3910   44.2780  105.4660 O.2   107  TYR107     -0.2867
     38  CB        54.2030   46.0230  103.0140 C.3   107  TYR107      0.0534
     39  CG        54.7380   44.9620  102.0620 C.ar  107  TYR107     -0.0201
     40  CD1       53.8810   44.2490  101.2230 C.ar  107  TYR107     -0.0009
     41  CD2       56.1110   44.8120  101.8610 C.ar  107  TYR107     -0.0009
     42  CE1       54.3770   43.2910  100.3270 C.ar  107  TYR107      0.0417
     43  CE2       56.6140   43.9290  100.9080 C.ar  107  TYR107      0.0417
     44  CZ        55.7470   43.1750  100.1380 C.ar  107  TYR107      0.1957
     45  OH        56.2730   42.2830   99.2300 O.3   107  TYR107     -0.2866
     46  N         54.1680   41.6990  104.5440 N.3   109  ARG109     -0.1245
     47  CA        55.3910   40.9050  104.4740 C.3   109  ARG109      0.1563
     48  C         56.4180   41.4210  105.4880 C.2   109  ARG109      0.2260
     49  O         56.3770   42.5930  105.8480 O.2   109  ARG109     -0.2867
     50  CB        55.9840   40.9190  103.0540 C.3   109  ARG109      0.0307
     51  CG        55.1350   40.2040  101.9760 C.3   109  ARG109      0.0489
     52  CD        55.2200   38.6840  102.1070 C.3   109  ARG109      0.2205
     53  NE        54.4710   37.9800  101.0480 N.pl3 109  ARG109     -0.0865
     54  CZ        53.1930   37.6250  101.1230 C.cat 109  ARG109      0.5346
     55  NH1       52.4530   37.9870  102.1660 N.pl3 109  ARG109      0.1354
     56  NH2       52.6380   36.9100  100.1450 N.pl3 109  ARG109      0.1354
     57  N         59.1570   42.8360  105.4620 N.3   111  ARG111     -0.1245
     58  CA        60.0580   43.5520  104.5650 C.3   111  ARG111      0.1563
     59  C         59.9460   45.0350  104.9000 C.2   111  ARG111      0.2260
     60  O         59.1610   45.7640  104.2940 O.2   111  ARG111     -0.2867
     61  CB        59.6650   43.2380  103.0910 C.3   111  ARG111      0.0307
     62  CG        59.8300   41.7520  102.7720 C.3   111  ARG111      0.0489
     63  CD        59.3030   41.3610  101.3940 C.3   111  ARG111      0.2205
     64  NE        59.3920   39.9000  101.2390 N.pl3 111  ARG111     -0.0865
     65  CZ        58.6670   39.1600  100.4100 C.cat 111  ARG111      0.5346
     66  NH1       57.7380   39.7230   99.6380 N.pl3 111  ARG111      0.1354
     67  NH2       58.8440   37.8450  100.3610 N.pl3 111  ARG111      0.1354
     68  N         49.2850   43.4400   95.0040 N.3   139  GLY139     -0.1225
     69  CA        48.9460   42.2780   94.1810 C.3   139  GLY139      0.1811
     70  C         47.5250   41.7970   94.4110 C.2   139  GLY139      0.2280
     71  O         46.9060   41.2380   93.5080 O.2   139  GLY139     -0.2866
     72  N         49.0740   29.5550   98.2350 N.3   190  TYR190     -0.1227
     73  CA        49.4600   30.2480   99.4530 C.3   190  TYR190      0.1736
     74  C         49.2550   31.7730   99.3430 C.2   190  TYR190      0.2595
     75  O         49.0400   32.4190  100.3630 O.2   190  TYR190     -0.2718
     76  CB        50.9640   29.9640   99.7650 C.3   190  TYR190      0.0548
     77  CG        51.9220   30.9030   99.0440 C.ar  190  TYR190     -0.0200
     78  CD1       52.3870   30.6110   97.7640 C.ar  190  TYR190     -0.0009
     79  CD2       52.3510   32.0900   99.6390 C.ar  190  TYR190     -0.0009
     80  CE1       53.2320   31.4870   97.0820 C.ar  190  TYR190      0.0417
     81  CE2       53.1570   32.9970   98.9460 C.ar  190  TYR190      0.0417
     82  CZ        53.5940   32.6920   97.6670 C.ar  190  TYR190      0.1957
     83  OH        54.4410   33.5630   97.0100 O.3   190  TYR190     -0.2866
     84  N         49.4170   32.3390   98.1360 N.am  191  ILE191     -0.1980
     85  CA        49.5250   33.8030   97.9780 C.3   191  ILE191      0.1595
     86  C         48.1890   34.5800   98.1470 C.2   191  ILE191      0.2287
     87  O         48.2150   35.7020   98.6940 O.2   191  ILE191     -0.2864
     88  CB        50.2210   34.2040   96.6500 C.3   191  ILE191      0.0276
     89  CG1       50.6420   35.6890   96.6910 C.3   191  ILE191      0.0022
     90  CG2       49.4120   33.8570   95.4000 C.3   191  ILE191      0.0022
     91  CD1       51.9310   35.9750   96.2190 C.3   191  ILE191      0.0001
     92  N         46.3800   36.3960   96.0060 N.3   193  HIS193     -0.1241
     93  CA        46.3630   37.7010   95.3390 C.3   193  HIS193      0.1621
     94  C         45.4150   37.6580   94.1770 C.2   193  HIS193      0.2264
     95  O         45.5080   36.7460   93.3490 O.2   193  HIS193     -0.2867
     96  CB        47.7450   38.0850   94.7950 C.3   193  HIS193      0.0745
     97  CG        48.7330   38.5640   95.8210 C.ar  193  HIS193      0.0817
     98  ND1       49.9230   39.1040   95.4290 N.ar  193  HIS193     -0.2268
     99  CD2       48.7160   38.4710   97.1750 C.ar  193  HIS193      0.1154
    100  CE1       50.5960   39.3730   96.5420 C.ar  193  HIS193      0.1986
    101  NE2       49.9230   38.9800   97.6190 N.ar  193  HIS193     -0.2212
    102  N         45.5170   39.2900   91.4940 N.3   195  ASP195     -0.1225
    103  CA        46.2110   39.3630   90.2070 C.3   195  ASP195      0.1805
    104  C         46.7070   37.9960   89.6930 C.2   195  ASP195      0.2598
    105  O         47.1310   37.9110   88.5460 O.2   195  ASP195     -0.2718
    106  CB        47.3330   40.4000   90.2340 C.3   195  ASP195      0.1424
    107  CG        48.6340   40.0740   90.9330 C.2   195  ASP195      0.3668
    108  OD1       48.7350   38.9770   91.5480 O.co2 195  ASP195     -0.2456
    109  OD2       49.5870   40.8870   90.8140 O.co2 195  ASP195     -0.2456
    110  N         46.5840   36.9270   90.4980 N.am  196  CYS196     -0.1970
    111  CA        46.9060   35.5950   89.9990 C.3   196  CYS196      0.1712
    112  C         45.6640   34.9390   89.3610 C.2   196  CYS196      0.2296
    113  O         45.7730   33.8430   88.8100 O.2   196  CYS196     -0.2864
    114  CB        47.4850   34.7440   91.1190 C.3   196  CYS196      0.0983
    115  SG        48.9840   35.4650   91.8440 S.3   196  CYS196     -0.0798
    116  N         48.4320   38.0070   85.0580 N.3   254  ASN254     -0.1240
    117  CA        49.4470   38.8240   85.7470 C.3   254  ASN254      0.1653
    118  C         50.1490   39.7610   84.7610 C.2   254  ASN254      0.2266
    119  O         51.3840   39.8160   84.6810 O.2   254  ASN254     -0.2867
    120  CB        50.4570   37.8960   86.4720 C.3   254  ASN254      0.1155
    121  CG        51.0070   38.5010   87.7320 C.2   254  ASN254      0.2627
    122  OD1       52.1460   38.9480   87.7840 O.2   254  ASN254     -0.2716
    123  ND2       50.1870   38.6290   88.7580 N.am  254  ASN254     -0.0877
    124  N         52.1320   32.3060   90.4140 N.3   303  THR303     -0.1203
    125  CA        51.7590   33.1950   91.5080 C.3   303  THR303      0.1994
    126  C         52.5430   34.5020   91.4990 C.2   303  THR303      0.2617
    127  O         52.3700   35.2950   92.4120 O.2   303  THR303     -0.2717
    128  CB        52.0510   32.4590   92.8450 C.3   303  THR303      0.1784
    129  OG1       53.4110   31.9890   92.8280 O.3   303  THR303     -0.2211
    130  CG2       51.1000   31.3030   93.0830 C.3   303  THR303      0.0376
    131  N         53.4100   34.7190   90.4940 N.am  304  ASP304     -0.1973
    132  CA        54.3240   35.8620   90.5360 C.3   304  ASP304      0.1709
    133  C         54.9290   36.1190   89.1660 C.2   304  ASP304      0.2293
    134  O         55.8780   35.4250   88.7620 O.2   304  ASP304     -0.2864
    135  CB        55.4490   35.5380   91.5670 C.3   304  ASP304      0.1436
    136  CG        56.6540   36.4560   91.5350 C.2   304  ASP304      0.3671
    137  OD1       56.5390   37.5780   90.9620 O.co2 304  ASP304     -0.2456
    138  OD2       57.6770   36.0990   92.1430 O.co2 304  ASP304     -0.2456
    139  N         53.2660   41.5340   89.0840 N.3   308  ALA308     -0.1245
    140  CA        53.8520   41.4940   90.4340 C.3   308  ALA308      0.1562
    141  C         55.1450   42.3310   90.5640 C.2   308  ALA308      0.2260
    142  O         55.5290   42.7140   91.6750 O.2   308  ALA308     -0.2867
    143  CB        54.1580   40.0440   90.7910 C.3   308  ALA308      0.0290
@<TRIPOS>BOND
     1   119   118    2
     2   118   117    1
     3   116   117    1
     4   117   120    1
     5   120   121    1
     6   121   122    2
     7   121   123   am
     8    25    23    1
     9   105   104    2
    10   134   133    2
    11   113   112    2
    12   139   140    1
    13   133   132    1
    14   112   111    1
    15    23    24    1
    16    23    22    2
    17   104   103    1
    18   104   110   am
    19   111   110    1
    20   111   114    1
    21    22    21    1
    22   103   106    1
    23   103   102    1
    24   106   107    1
    25   124   125    1
    26   140   141    1
    27   140   143    1
    28   131   132    1
    29   131   126   am
    30   132   135    1
    31   141   142    2
    32   109   107   ar
    33   107   108   ar
    34   137   136   ar
    35   114   115    1
    36   126   125    1
    37   126   127    2
    38   125   128    1
    39    21    20    1
    40   136   135    1
    41   136   138   ar
    42    19    20    1
    43    19    16    1
    44    15    16    1
    45    16    17    1
    46   129   128    1
    47   128   130    1
    48     9     7   ar
    49     9    10   ar
    50     7     6   ar
    51    95    94    2
    52    71    70    2
    53     2     3    1
    54     2     1    1
    55     2     5    1
    56    17    18    2
    57    17    26   am
    58    94    93    1
    59    69    70    1
    60    69    68    1
    61     3     4    2
    62    10    12   ar
    63    10     8   ar
    64     6     5    1
    65     6     8   ar
    66    96    93    1
    67    96    97    1
    68    12    14   ar
    69    26    27    1
    70    32    31   ar
    71     8    11   ar
    72    93    92    1
    73    90    88    1
    74    98    97   ar
    75    98   100   ar
    76    33    31   ar
    77    31    30    1
    78    97    99   ar
    79    14    13   ar
    80    91    89    1
    81    27    30    1
    82    27    28    1
    83    11    13   ar
    84   100   101   ar
    85    88    89    1
    86    88    85    1
    87    83    82    1
    88    80    82   ar
    89    80    78   ar
    90    99   101   ar
    91    28    29    2
    92    82    81   ar
    93    78    77   ar
    94    85    84    1
    95    85    86    1
    96    84    74   am
    97    86    87    2
    98    72    73    1
    99    81    79   ar
   100    77    79   ar
   101    77    76    1
   102    45    44    1
   103    74    73    1
   104    74    75    2
   105    73    76    1
   106    66    65    1
   107    44    42   ar
   108    44    43   ar
   109    56    54    1
   110    42    40   ar
   111    67    65    1
   112    65    64    2
   113    43    41   ar
   114    53    54    2
   115    53    52    1
   116    54    55    1
   117    40    39   ar
   118    64    63    1
   119    63    62    1
   120    41    39   ar
   121    51    52    1
   122    51    50    1
   123    39    38    1
   124    62    61    1
   125    38    35    1
   126    50    47    1
   127    61    58    1
   128    35    36    1
   129    35    34    1
   130    60    59    2
   131    36    37    2
   132    47    46    1
   133    47    48    1
   134    58    59    1
   135    58    57    1
   136    48    49    2
