@<TRIPOS>MOLECULE
tmp/4ytiA00.pdb
 151 142 0 0 0
SMALL
GASTEIGER

@<TRIPOS>ATOM
      1  N         13.6620   10.4220   10.4360 N.3    14  LEU14      -0.1231
      2  CA        14.4880   10.5440    9.2340 C.3    14  LEU14       0.1696
      3  C         15.2950   11.8440    9.2850 C.2    14  LEU14       0.2632
      4  O         16.4350   11.8560    8.8190 O.2    14  LEU14      -0.2714
      5  CB        13.6860   10.4040    7.9230 C.3    14  LEU14       0.0284
      6  CG        13.0570    9.0190    7.5960 C.3    14  LEU14       0.0019
      7  CD1       12.1890    9.0930    6.3570 C.3    14  LEU14       0.0001
      8  CD2       14.1100    7.9140    7.4100 C.3    14  LEU14       0.0001
      9  N         14.7050   12.8990    9.8510 N.am   15  GLY15      -0.1718
     10  CA        15.3420   14.1970   10.0060 C.2    15  GLY15       0.1480
     11  C         14.4240   15.3340   10.3790 C.2    15  GLY15       0.2820
     12  O         13.2070   15.1700   10.4440 O.2    15  GLY15      -0.2669
     13  N         15.0340   16.4980   10.6550 N.am   16  LYS16      -0.1943
     14  CA        14.3810   17.7540   11.0470 C.3    16  LYS16       0.1599
     15  C         15.0080   18.9190   10.2920 C.2    16  LYS16       0.2287
     16  O         16.1530   18.8130    9.8480 O.2    16  LYS16      -0.2864
     17  CB        14.4740   17.9680   12.5610 C.3    16  LYS16       0.0298
     18  CG        13.6330   17.0140   13.3810 C.3    16  LYS16       0.0038
     19  CD        13.6430   17.4120   14.8330 C.3    16  LYS16       0.0206
     20  CE        13.0180   16.3500   15.6850 C.3    16  LYS16       0.1093
     21  NZ        12.6830   16.8570   17.0420 N.3    16  LYS16      -0.1314
     22  N         10.5650   14.8280    9.5740 N.3    22  VAL22      -0.1245
     23  CA        10.2570   13.7320    8.6600 C.3    22  VAL22       0.1561
     24  C         10.5060   12.4140    9.3650 C.2    22  VAL22       0.2260
     25  O         11.5890   12.2090    9.8930 O.2    22  VAL22      -0.2867
     26  CB        10.9550   13.8580    7.2720 C.3    22  VAL22       0.0252
     27  CG1       10.5120   12.7470    6.3050 C.3    22  VAL22       0.0019
     28  CG2       10.6730   15.2250    6.6590 C.3    22  VAL22       0.0019
     29  N          7.2160    7.8940    3.9960 N.3    39  ALA39      -0.1245
     30  CA         7.9100    9.0100    4.6430 C.3    39  ALA39       0.1562
     31  C          6.7910   10.0080    4.9710 C.2    39  ALA39       0.2260
     32  O          5.9430   10.3070    4.1180 O.2    39  ALA39      -0.2867
     33  CB         8.9430    9.6210    3.7280 C.3    39  ALA39       0.0290
     34  N          5.9000   13.8320    6.5730 N.3    41  LYS41      -0.1245
     35  CA         6.3820   15.1500    6.9890 C.3    41  LYS41       0.1561
     36  C          5.2580   15.8660    7.7330 C.2    41  LYS41       0.2260
     37  O          4.1290   15.8930    7.2540 O.2    41  LYS41      -0.2867
     38  CB         6.9040   15.9990    5.8220 C.3    41  LYS41       0.0271
     39  CG         7.5220   17.3400    6.2720 C.3    41  LYS41       0.0035
     40  CD         8.0090   18.1710    5.1070 C.3    41  LYS41       0.0206
     41  CE         8.5660   19.5000    5.5910 C.3    41  LYS41       0.1093
     42  NZ         9.3640   20.1950    4.5370 N.3    41  LYS41      -0.1314
     43  N         10.7650   13.0670   -5.9150 N.3    70  VAL70      -0.1245
     44  CA        10.1530   12.2130   -4.8770 C.3    70  VAL70       0.1561
     45  C          8.6020   12.2710   -5.0510 C.2    70  VAL70       0.2260
     46  O          8.0390   13.3550   -5.2730 O.2    70  VAL70      -0.2867
     47  CB        10.6540   12.5550   -3.4410 C.3    70  VAL70       0.0252
     48  CG1       10.2300   13.9580   -3.0080 C.3    70  VAL70       0.0019
     49  CG2       10.2190   11.5010   -2.4200 C.3    70  VAL70       0.0019
     50  N          4.6520   10.7440    1.6420 N.3    85  MET85      -0.1230
     51  CA         5.5280   10.5850    0.4830 C.3    85  MET85       0.1702
     52  C          6.0750    9.1910    0.4640 C.2    85  MET85       0.2595
     53  O          6.1000    8.5030    1.5050 O.2    85  MET85      -0.2718
     54  CB         6.7370   11.5450    0.5850 C.3    85  MET85       0.0401
     55  CG         6.3960   13.0180    0.5580 C.3    85  MET85       0.0596
     56  SD         7.8310   14.0350    1.0160 S.3    85  MET85      -0.1393
     57  CE         7.7800   13.9340    2.7790 C.3    85  MET85       0.0692
     58  N          6.5860    8.7930   -0.7090 N.am   86  GLU86      -0.1920
     59  CA         7.2390    7.4950   -0.8420 C.3    86  GLU86       0.1949
     60  C          8.5310    7.5130   -0.0060 C.2    86  GLU86       0.2659
     61  O          9.1510    8.5570    0.1400 O.2    86  GLU86      -0.2711
     62  CB         7.5470    7.1490   -2.3030 C.2    86  GLU86       0.0111
     63  CG         8.4870    8.1180   -3.0180 C.2    86  GLU86       0.0838
     64  CD         9.0080    7.7390   -4.3890 C.2    86  GLU86       0.3877
     65  OE1        8.7640    6.6020   -4.8580 O.co2  86  GLU86      -0.2406
     66  OE2        9.6710    8.6050   -5.0000 O.co2  86  GLU86      -0.2406
     67  N          8.8710    6.3640    0.5770 N.am   87  TYR87      -0.1957
     68  CA        10.0800    6.2090    1.3670 C.3    87  TYR87       0.1771
     69  C         11.1560    5.6120    0.4490 C.2    87  TYR87       0.2619
     70  O         10.9140    4.5770   -0.1890 O.2    87  TYR87      -0.2715
     71  CB         9.8700    5.3460    2.6280 C.3    87  TYR87       0.0574
     72  CG        11.1580    5.0380    3.3630 C.ar   87  TYR87      -0.0198
     73  CD1       11.8800    6.0490    4.0000 C.ar   87  TYR87      -0.0009
     74  CD2       11.6700    3.7360    3.4060 C.ar   87  TYR87      -0.0009
     75  CE1       13.0860    5.7810    4.6500 C.ar   87  TYR87       0.0417
     76  CE2       12.8620    3.4480    4.0840 C.ar   87  TYR87       0.0417
     77  CZ        13.5730    4.4770    4.6950 C.ar   87  TYR87       0.1957
     78  OH        14.7510    4.2030    5.3540 O.3    87  TYR87      -0.2866
     79  N         12.3220    6.2790    0.3530 N.am   88  LEU88      -0.1977
     80  CA        13.4630    5.8370   -0.4600 C.3    88  LEU88       0.1596
     81  C         14.5570    5.2810    0.4930 C.2    88  LEU88       0.2287
     82  O         15.2780    6.0480    1.1320 O.2    88  LEU88      -0.2864
     83  CB        13.9060    6.9220   -1.4600 C.3    88  LEU88       0.0297
     84  CG        12.7870    7.3890   -2.4430 C.3    88  LEU88       0.0022
     85  CD1       13.2360    8.4740   -3.3310 C.3    88  LEU88       0.0001
     86  CD2       12.2460    6.2330   -3.3080 C.3    88  LEU88       0.0001
     87  N         18.3570    6.2960    1.3150 N.3    91  GLY91      -0.1210
     88  CA        18.5660    7.5970    1.9370 C.3    91  GLY91       0.1956
     89  C         19.0760    8.6670    0.9920 C.2    91  GLY91       0.2612
     90  O         18.8840    8.5680   -0.2200 O.2    91  GLY91      -0.2717
     91  N         19.7200    9.7060    1.5490 N.am   92  SER92      -0.1952
     92  CA        20.2720   10.8130    0.7690 C.3    92  SER92       0.1924
     93  C         21.4810   10.4120   -0.0550 C.2    92  SER92       0.2314
     94  O         22.2610    9.5310    0.3570 O.2    92  SER92      -0.2863
     95  CB        20.6200   12.0220    1.6430 C.3    92  SER92       0.2116
     96  OG        21.8460   11.8570    2.3350 O.3    92  SER92      -0.2180
     97  N         24.7360   10.8050    2.0310 N.3    95  ASP95      -0.1239
     98  CA        25.0680    9.6370    2.8620 C.3    95  ASP95       0.1674
     99  C         25.5160    8.4350    2.0350 C.2    95  ASP95       0.2266
    100  O         26.5330    7.8110    2.3690 O.2    95  ASP95      -0.2867
    101  CB        23.9190    9.2670    3.8230 C.3    95  ASP95       0.1410
    102  CG        23.5200   10.3620    4.8100 C.2    95  ASP95       0.3668
    103  OD1       24.3630   11.2730    5.0800 O.co2  95  ASP95      -0.2456
    104  OD2       22.3650   10.3190    5.3110 O.co2  95  ASP95      -0.2456
    105  N         22.5300   16.5960    0.0430 N.3   136  ARG136     -0.1231
    106  CA        21.7580   16.2340    1.2420 C.3   136  ARG136      0.1694
    107  C         20.2370   16.2010    0.9470 C.2   136  ARG136      0.2592
    108  O         19.5260   15.5600    1.7060 O.2   136  ARG136     -0.2718
    109  CB        22.0750   17.1570    2.4550 C.3   136  ARG136      0.0321
    110  CG        21.5940   18.5950    2.3070 C.3   136  ARG136      0.0489
    111  CD        21.7170   19.4260    3.5580 C.3   136  ARG136      0.2205
    112  NE        21.1740   20.7600    3.2860 N.pl3 136  ARG136     -0.0865
    113  CZ        21.0660   21.7520    4.1650 C.cat 136  ARG136      0.5346
    114  NH1       21.4670   21.5860    5.4220 N.pl3 136  ARG136      0.1354
    115  NH2       20.5580   22.9210    3.7930 N.pl3 136  ARG136      0.1354
    116  N         19.7810   16.8880   -0.1520 N.am  137  ASN137     -0.1960
    117  CA        18.3830   17.0080   -0.5580 C.3   137  ASN137      0.1819
    118  C         18.0180   16.1870   -1.7770 C.2   137  ASN137      0.2621
    119  O         16.9460   16.3920   -2.3570 O.2   137  ASN137     -0.2715
    120  CB        18.0100   18.4950   -0.7350 C.3   137  ASN137      0.1195
    121  CG        17.9360   19.1950    0.5760 C.2   137  ASN137      0.2630
    122  OD1       17.5670   18.6130    1.5960 O.2   137  ASN137     -0.2716
    123  ND2       18.3070   20.4450    0.5940 N.am  137  ASN137     -0.0877
    124  N         18.8870   15.2470   -2.1410 N.am  138  ILE138     -0.1963
    125  CA        18.6940   14.3200   -3.2520 C.3   138  ILE138      0.1727
    126  C         18.6410   12.9360   -2.5910 C.2   138  ILE138      0.2616
    127  O         19.4670   12.6400   -1.7390 O.2   138  ILE138     -0.2715
    128  CB        19.7950   14.4600   -4.3400 C.3   138  ILE138      0.0290
    129  CG1       19.7800   15.9030   -4.9490 C.3   138  ILE138      0.0022
    130  CG2       19.6070   13.4020   -5.4470 C.3   138  ILE138      0.0023
    131  CD1       21.1320   16.4120   -5.4210 C.3   138  ILE138      0.0001
    132  N         17.6570   12.1180   -2.9700 N.am  139  LEU139     -0.1977
    133  CA        17.4520   10.7680   -2.4490 C.3   139  LEU139      0.1596
    134  C         17.8210    9.7350   -3.4790 C.2   139  LEU139      0.2287
    135  O         17.6690    9.9780   -4.6670 O.2   139  LEU139     -0.2864
    136  CB        15.9920   10.5650   -1.9980 C.3   139  LEU139      0.0297
    137  CG        15.4900   11.3860   -0.8180 C.3   139  LEU139      0.0022
    138  CD1       14.0220   11.3080   -0.7040 C.3   139  LEU139      0.0001
    139  CD2       16.2070   11.0290    0.5000 C.3   139  LEU139      0.0001
    140  N         14.3830   15.6180   -3.4540 N.3   149  GLY149     -0.1210
    141  CA        13.5770   15.5880   -2.2480 C.3   149  GLY149      0.1956
    142  C         13.5350   16.9930   -1.6790 C.2   149  GLY149      0.2611
    143  O         14.2340   17.8950   -2.1720 O.2   149  GLY149     -0.2717
    144  N         12.7250   17.1690   -0.6270 N.am  150  ASP150     -0.1973
    145  CA        12.4560   18.3790    0.1550 C.3   150  ASP150      0.1709
    146  C         12.2180   19.6490   -0.7050 C.2   150  ASP150      0.2293
    147  O         13.1450   20.2730   -1.2530 O.2   150  ASP150     -0.2864
    148  CB        13.5360   18.6100    1.2280 C.3   150  ASP150      0.1436
    149  CG        13.1920   19.5650    2.3810 C.2   150  ASP150      0.3671
    150  OD1       12.1120   20.2380    2.3210 O.co2 150  ASP150     -0.2456
    151  OD2       14.0080   19.6600    3.3350 O.co2 150  ASP150     -0.2456
@<TRIPOS>BOND
     1    43    44    1
     2   130   128    1
     3   131   129    1
     4    46    45    2
     5    45    44    1
     6    66    64   ar
     7   129   128    1
     8    44    47    1
     9    65    64   ar
    10   135   134    2
    11    64    63    1
    12   128   125    1
    13   134   133    1
    14   140   141    1
    15    47    48    1
    16    47    49    1
    17    85    84    1
    18    86    84    1
    19   125   126    1
    20   125   124    1
    21    63    62    2
    22   132   126   am
    23   132   133    1
    24   126   127    2
    25   133   136    1
    26    84    83    1
    27   119   118    2
    28    62    59    1
    29   141   142    1
    30   143   142    2
    31   124   118   am
    32   136   137    1
    33   118   117    1
    34   142   144   am
    35    83    80    1
    36   147   146    2
    37    59    58    1
    38    59    60    1
    39   137   138    1
    40   137   139    1
    41   120   117    1
    42   120   121    1
    43    58    52   am
    44   146   145    1
    45   144   145    1
    46   117   116    1
    47    80    79    1
    48    80    81    1
    49    90    89    2
    50    70    69    2
    51   116   107   am
    52    93    94    2
    53    93    92    1
    54    60    61    2
    55    60    67   am
    56   105   106    1
    57   145   148    1
    58    79    69   am
    59    69    68    1
    60    52    51    1
    61    52    53    2
    62    51    54    1
    63    51    50    1
    64    81    82    2
    65    55    54    1
    66    55    56    1
    67   121   123   am
    68   121   122    2
    69    67    68    1
    70    92    91    1
    71    92    95    1
    72   107   106    1
    73   107   108    2
    74    89    91   am
    75    89    88    1
    76    56    57    1
    77   148   149    1
    78   106   109    1
    79    87    88    1
    80    68    71    1
    81    95    96    1
    82    97    98    1
    83    99   100    2
    84    99    98    1
    85   110   109    1
    86   110   111    1
    87   150   149   ar
    88   149   151   ar
    89    71    72    1
    90    98   101    1
    91   112   111    1
    92   112   113    2
    93    72    74   ar
    94    72    73   ar
    95    74    76   ar
    96    33    30    1
    97   115   113    1
    98   101   102    1
    99    29    30    1
   100    73    75   ar
   101    76    77   ar
   102    32    31    2
   103   113   114    1
   104    42    41    1
   105    30    31    1
   106    75    77   ar
   107    77    78    1
   108   102   103   ar
   109   102   104   ar
   110    40    41    1
   111    40    39    1
   112    38    39    1
   113    38    35    1
   114    27    26    1
   115     7     6    1
   116    34    35    1
   117    28    26    1
   118    35    36    1
   119    37    36    2
   120    26    23    1
   121     8     6    1
   122     6     5    1
   123     5     2    1
   124    23    24    1
   125    23    22    1
   126     4     3    2
   127     2     3    1
   128     2     1    1
   129     3     9    1
   130    24    25    2
   131    16    15    2
   132     9    10    2
   133    10    11    1
   134    15    14    1
   135    11    12    2
   136    11    13   am
   137    13    14    1
   138    14    17    1
   139    17    18    1
   140    18    19    1
   141    19    20    1
   142    20    21    1
