@<TRIPOS>MOLECULE
tmp/4ytnD00.pdb
 94 86 0 0 0
SMALL
GASTEIGER

@<TRIPOS>ATOM
      1  N        -95.6340    5.5610  -51.2330 N.3    36  ARG36      -0.1245
      2  CA       -95.7920    4.7710  -52.4500 C.3    36  ARG36       0.1563
      3  C        -96.7660    3.6240  -52.2160 C.2    36  ARG36       0.2260
      4  O        -97.6540    3.3970  -53.0470 O.2    36  ARG36      -0.2867
      5  CB       -94.4440    4.2290  -52.9680 C.3    36  ARG36       0.0307
      6  CG       -93.3180    5.2520  -53.1030 C.3    36  ARG36       0.0489
      7  CD       -93.6080    6.3880  -54.0790 C.3    36  ARG36       0.2205
      8  NE       -93.1950    7.6830  -53.5280 N.pl3  36  ARG36      -0.0865
      9  CZ       -93.2110    8.8440  -54.1860 C.cat  36  ARG36       0.5346
     10  NH1      -93.6050    8.9040  -55.4530 N.pl3  36  ARG36       0.1354
     11  NH2      -92.8220    9.9600  -53.5670 N.pl3  36  ARG36       0.1354
     12  N       -100.2780    4.7330  -52.2410 N.3    39  ALA39      -0.1245
     13  CA      -100.7530    5.0400  -53.6040 C.3    39  ALA39       0.1562
     14  C       -101.0410    3.7720  -54.3930 C.2    39  ALA39       0.2260
     15  O       -101.9240    3.7580  -55.2500 O.2    39  ALA39      -0.2867
     16  CB       -99.7410    5.8980  -54.3530 C.3    39  ALA39       0.0290
     17  N       -104.3250    2.4970  -53.3010 N.3    42  MET42      -0.1230
     18  CA      -105.4050    3.3000  -53.8890 C.3    42  MET42       0.1702
     19  C       -105.7140    2.9380  -55.3330 C.2    42  MET42       0.2592
     20  O       -106.6570    3.4780  -55.9060 O.2    42  MET42      -0.2718
     21  CB      -105.0590    4.7880  -53.8470 C.3    42  MET42       0.0401
     22  CG      -105.1880    5.4260  -52.4770 C.3    42  MET42       0.0596
     23  SD      -104.3760    7.0320  -52.4160 S.3    42  MET42      -0.1393
     24  CE      -105.0550    7.8030  -53.8840 C.3    42  MET42       0.0692
     25  N       -104.9220    2.0570  -55.9370 N.am   43  VAL43      -0.1980
     26  CA      -105.1650    1.6650  -57.3300 C.3    43  VAL43       0.1595
     27  C       -106.5040    0.9270  -57.4770 C.2    43  VAL43       0.2287
     28  O       -107.2980    1.2790  -58.3440 O.2    43  VAL43      -0.2864
     29  CB      -103.9950    0.8490  -57.9390 C.3    43  VAL43       0.0276
     30  CG1     -104.3110    0.4400  -59.3720 C.3    43  VAL43       0.0022
     31  CG2     -102.7110    1.6670  -57.9150 C.3    43  VAL43       0.0022
     32  N       -110.0450    3.2080  -56.8840 N.3    46  ILE46      -0.1245
     33  CA      -110.6690    4.0920  -57.8780 C.3    46  ILE46       0.1561
     34  C       -111.7730    3.3680  -58.6460 C.2    46  ILE46       0.2260
     35  O       -112.9170    3.8110  -58.6180 O.2    46  ILE46      -0.2867
     36  CB      -109.6350    4.7630  -58.8240 C.3    46  ILE46       0.0252
     37  CG1     -109.1950    6.1300  -58.2700 C.3    46  ILE46       0.0019
     38  CG2     -110.2170    5.0190  -60.2130 C.3    46  ILE46       0.0019
     39  CD1     -108.9060    6.1760  -56.7810 C.3    46  ILE46       0.0001
     40  N       -107.9490   10.1740  -50.0370 N.3    65  LEU65      -0.1245
     41  CA      -107.5900   11.3630  -50.8080 C.3    65  LEU65       0.1561
     42  C       -106.9510   12.4400  -49.9340 C.2    65  LEU65       0.2260
     43  O       -106.0080   13.0920  -50.3640 O.2    65  LEU65      -0.2867
     44  CB      -108.7940   11.9390  -51.5650 C.3    65  LEU65       0.0270
     45  CG      -109.0680   11.4250  -52.9850 C.3    65  LEU65       0.0019
     46  CD1     -108.5520   10.0180  -53.2300 C.3    65  LEU65       0.0001
     47  CD2     -110.5570   11.4960  -53.2800 C.3    65  LEU65       0.0001
     48  N       -103.3020   11.1730  -49.0680 N.3    68  HIS68      -0.1226
     49  CA      -102.4860   11.1900  -50.2740 C.3    68  HIS68       0.1752
     50  C       -102.1270   12.6130  -50.6830 C.2    68  HIS68       0.2595
     51  O       -100.9480   12.9550  -50.7740 O.2    68  HIS68      -0.2718
     52  CB      -103.2090   10.4960  -51.4230 C.3    68  HIS68       0.0759
     53  CG      -102.3620   10.3390  -52.6440 C.ar   68  HIS68       0.0818
     54  ND1     -101.2900    9.4710  -52.7000 N.ar   68  HIS68      -0.2268
     55  CD2     -102.4140   10.9560  -53.8440 C.ar   68  HIS68       0.1154
     56  CE1     -100.7260    9.5550  -53.8900 C.ar   68  HIS68       0.1986
     57  NE2     -101.3900   10.4470  -54.6010 N.ar   68  HIS68      -0.2212
     58  N       -103.1540   13.4310  -50.9120 N.am   69  VAL69      -0.1980
     59  CA      -102.9870   14.8300  -51.3280 C.3    69  VAL69       0.1595
     60  C       -102.0980   15.6030  -50.3430 C.2    69  VAL69       0.2287
     61  O       -101.3230   16.4750  -50.7570 O.2    69  VAL69      -0.2864
     62  CB      -104.3580   15.5360  -51.5240 C.3    69  VAL69       0.0276
     63  CG1     -104.1930   17.0310  -51.7500 C.3    69  VAL69       0.0022
     64  CG2     -105.1120   14.9240  -52.7010 C.3    69  VAL69       0.0022
     65  N        -98.7160   14.7100  -51.4350 N.3    72  GLY72      -0.1210
     66  CA       -98.6280   15.3210  -52.7440 C.3    72  GLY72       0.1956
     67  C        -98.2580   16.7890  -52.7050 C.2    72  GLY72       0.2611
     68  O        -97.1960   17.1660  -53.2060 O.2    72  GLY72      -0.2717
     69  N        -99.1140   17.6180  -52.1000 N.am   73  VAL73      -0.1979
     70  CA       -98.8970   19.0800  -52.1230 C.3    73  VAL73       0.1595
     71  C        -97.6680   19.5170  -51.3300 C.2    73  VAL73       0.2287
     72  O        -96.9960   20.4660  -51.7180 O.2    73  VAL73      -0.2864
     73  CB      -100.1230   19.9110  -51.6600 C.3    73  VAL73       0.0276
     74  CG1     -101.3720   19.4990  -52.4300 C.3    73  VAL73       0.0022
     75  CG2     -100.3260   19.8220  -50.1550 C.3    73  VAL73       0.0022
     76  N        -94.9170   18.0930  -51.3120 N.3    75  GLY75      -0.1210
     77  CA       -93.8290   17.9620  -52.2870 C.3    75  GLY75       0.1956
     78  C        -93.7830   19.0770  -53.3210 C.2    75  GLY75       0.2611
     79  O        -92.7240   19.6090  -53.6270 O.2    75  GLY75      -0.2717
     80  N        -94.9370   19.4270  -53.8690 N.am   76  VAL76      -0.1979
     81  CA       -95.0240   20.5190  -54.8280 C.3    76  VAL76       0.1595
     82  C        -94.6150   21.8070  -54.1320 C.2    76  VAL76       0.2287
     83  O        -93.8410   22.5930  -54.6750 O.2    76  VAL76      -0.2864
     84  CB       -96.4520   20.6600  -55.3910 C.3    76  VAL76       0.0276
     85  CG1      -96.5350   21.7840  -56.4040 C.3    76  VAL76       0.0022
     86  CG2      -96.8960   19.3560  -56.0350 C.3    76  VAL76       0.0022
     87  N        -90.9700   22.3000  -53.9530 N.3    79  ASP79      -0.1239
     88  CA       -90.3300   22.6480  -55.2140 C.3    79  ASP79       0.1674
     89  C        -90.5650   24.1140  -55.5760 C.2    79  ASP79       0.2266
     90  O        -89.7350   24.7240  -56.2270 O.2    79  ASP79      -0.2867
     91  CB       -90.8290   21.7480  -56.3440 C.3    79  ASP79       0.1410
     92  CG       -90.3250   20.3280  -56.2200 C.2    79  ASP79       0.3668
     93  OD1      -89.1090   20.1410  -55.9980 O.co2  79  ASP79      -0.2456
     94  OD2      -91.1390   19.3870  -56.3460 O.co2  79  ASP79      -0.2456
@<TRIPOS>BOND
     1    38    36    1
     2    30    29    1
     3    36    37    1
     4    36    33    1
     5    34    35    2
     6    34    33    1
     7    28    27    2
     8    37    39    1
     9    29    31    1
    10    29    26    1
    11    33    32    1
    12    27    26    1
    13    26    25    1
    14    85    84    1
    15    94    92   ar
    16    91    92    1
    17    91    88    1
    18    90    89    2
    19    92    93   ar
    20    86    84    1
    21    25    19   am
    22    20    19    2
    23    89    88    1
    24    10     9    1
    25    84    81    1
    26    19    18    1
    27    15    14    2
    28    88    87    1
    29    81    82    1
    30    81    80    1
    31    83    82    2
    32    57    56   ar
    33    57    55   ar
    34    14    13    1
    35    16    13    1
    36     9    11    1
    37     9     8    2
    38     7     8    1
    39     7     6    1
    40    56    54   ar
    41    18    21    1
    42    18    17    1
    43    24    23    1
    44    80    78   am
    45    21    22    1
    46    55    53   ar
    47    79    78    2
    48    13    12    1
    49    78    77    1
    50    47    45    1
    51    46    45    1
    52    68    67    2
    53     6     5    1
    54     4     3    2
    55    45    44    1
    56     5     2    1
    57    66    67    1
    58    66    65    1
    59    67    69   am
    60    64    62    1
    61    54    53   ar
    62    53    52    1
    63    22    23    1
    64     2     3    1
    65     2     1    1
    66    74    73    1
    67    77    76    1
    68    70    69    1
    69    70    73    1
    70    70    71    1
    71    63    62    1
    72    72    71    2
    73    73    75    1
    74    44    41    1
    75    62    59    1
    76    52    49    1
    77    59    58    1
    78    59    60    1
    79    58    50   am
    80    41    40    1
    81    41    42    1
    82    51    50    2
    83    61    60    2
    84    50    49    1
    85    43    42    2
    86    49    48    1
