@<TRIPOS>MOLECULE
tmp/4ytxB00.pdb
 193 183 0 0 0
SMALL
GASTEIGER

@<TRIPOS>ATOM
      1  N          7.1340  -36.2710  -11.6990 N.3    26  ARG26      -0.1231
      2  CA         7.1510  -34.8120  -11.6280 C.3    26  ARG26       0.1694
      3  C          5.8680  -34.1350  -12.0850 C.2    26  ARG26       0.2592
      4  O          5.6690  -32.9530  -11.8050 O.2    26  ARG26      -0.2718
      5  CB         8.3510  -34.2570  -12.4100 C.3    26  ARG26       0.0321
      6  CG         8.1280  -34.1110  -13.9030 C.3    26  ARG26       0.0489
      7  CD         9.4050  -33.6820  -14.6250 C.3    26  ARG26       0.2205
      8  NE        10.0770  -34.8070  -15.2580 N.pl3  26  ARG26      -0.0865
      9  CZ        10.0640  -35.0510  -16.5640 C.cat  26  ARG26       0.5346
     10  NH1       10.7000  -36.1030  -17.0500 N.pl3  26  ARG26       0.1354
     11  NH2        9.4370  -34.2340  -17.3910 N.pl3  26  ARG26       0.1354
     12  N          5.0010  -34.8810  -12.7780 N.am   27  TYR27      -0.1976
     13  CA         3.7110  -34.3530  -13.2500 C.3    27  TYR27       0.1639
     14  C          2.4940  -34.9930  -12.5760 C.2    27  TYR27       0.2290
     15  O          2.4500  -36.1860  -12.3040 O.2    27  TYR27      -0.2864
     16  CB         3.5710  -34.5030  -14.7610 C.3    27  TYR27       0.0560
     17  CG         4.7100  -33.8910  -15.5040 C.ar   27  TYR27      -0.0198
     18  CD1        4.9970  -32.5510  -15.3670 C.ar   27  TYR27      -0.0009
     19  CD2        5.5270  -34.6580  -16.3230 C.ar   27  TYR27      -0.0009
     20  CE1        6.0760  -31.9770  -16.0230 C.ar   27  TYR27       0.0417
     21  CE2        6.6100  -34.0990  -16.9850 C.ar   27  TYR27       0.0417
     22  CZ         6.8780  -32.7480  -16.8300 C.ar   27  TYR27       0.1957
     23  OH         7.9360  -32.1420  -17.4850 O.3    27  TYR27      -0.2866
     24  N          3.7420  -25.6850  -11.7530 N.3    31  TYR31      -0.1227
     25  CA         4.2600  -24.9830  -12.9210 C.3    31  TYR31       0.1736
     26  C          4.4000  -25.8890  -14.1280 C.2    31  TYR31       0.2596
     27  O          5.4090  -25.8470  -14.8330 O.2    31  TYR31      -0.2718
     28  CB         5.6170  -24.3290  -12.5950 C.3    31  TYR31       0.0548
     29  CG         5.9490  -24.2210  -11.1050 C.ar   31  TYR31      -0.0200
     30  CD1        6.2720  -25.3580  -10.3550 C.ar   31  TYR31      -0.0009
     31  CD2        5.9310  -22.9850  -10.4410 C.ar   31  TYR31      -0.0009
     32  CE1        6.5690  -25.2750   -8.9780 C.ar   31  TYR31       0.0417
     33  CE2        6.2280  -22.8920   -9.0550 C.ar   31  TYR31       0.0417
     34  CZ         6.5450  -24.0460   -8.3380 C.ar   31  TYR31       0.1957
     35  OH         6.8300  -23.9910   -6.9900 O.3    31  TYR31      -0.2866
     36  N          3.3750  -26.7000  -14.3650 N.am   32  SER32      -0.1952
     37  CA         3.3690  -27.6360  -15.4870 C.3    32  SER32       0.1924
     38  C          2.0260  -27.7140  -16.1850 C.2    32  SER32       0.2314
     39  O          1.7470  -28.6980  -16.8800 O.2    32  SER32      -0.2863
     40  CB         3.7300  -29.0410  -15.0040 C.3    32  SER32       0.2116
     41  OG         5.0170  -29.0660  -14.3920 O.3    32  SER32      -0.2180
     42  N          1.0670  -26.7580  -18.7160 N.3    34  HIS34      -0.1226
     43  CA         1.2790  -27.0300  -20.1320 C.3    34  HIS34       0.1752
     44  C          1.5910  -28.4660  -20.4150 C.2    34  HIS34       0.2595
     45  O          1.6780  -28.8330  -21.5800 O.2    34  HIS34      -0.2718
     46  CB         2.4280  -26.2110  -20.6840 C.3    34  HIS34       0.0759
     47  CG         3.6750  -26.3330  -19.8780 C.ar   34  HIS34       0.0818
     48  ND1        3.8740  -25.6220  -18.7130 N.ar   34  HIS34      -0.2268
     49  CD2        4.7730  -27.1050  -20.0450 C.ar   34  HIS34       0.1154
     50  CE1        5.0460  -25.9510  -18.1990 C.ar   34  HIS34       0.1986
     51  NE2        5.6120  -26.8490  -18.9880 N.ar   34  HIS34      -0.2212
     52  N          1.8170  -29.2750  -19.3820 N.am   35  VAL35      -0.1980
     53  CA         2.0870  -30.6870  -19.6370 C.3    35  VAL35       0.1595
     54  C          0.7580  -31.4090  -19.6430 C.2    35  VAL35       0.2287
     55  O          0.0730  -31.4900  -18.6250 O.2    35  VAL35      -0.2864
     56  CB         2.9920  -31.3090  -18.6010 C.3    35  VAL35       0.0276
     57  CG1        3.2420  -32.7520  -18.9710 C.3    35  VAL35       0.0022
     58  CG2        4.2970  -30.5530  -18.5480 C.3    35  VAL35       0.0022
     59  N          3.3460  -31.6240  -24.4410 N.3    59  LYS59      -0.1231
     60  CA         3.2030  -30.3280  -23.7920 C.3    59  LYS59       0.1693
     61  C          2.5820  -29.3190  -24.7590 C.2    59  LYS59       0.2593
     62  O          2.8090  -29.3800  -25.9630 O.2    59  LYS59      -0.2718
     63  CB         4.5670  -29.8270  -23.3130 C.3    59  LYS59       0.0285
     64  CG         5.3420  -30.8210  -22.4630 C.3    59  LYS59       0.0035
     65  CD         6.6700  -30.2160  -21.9830 C.3    59  LYS59       0.0206
     66  CE         7.5380  -31.2310  -21.2220 C.3    59  LYS59       0.1093
     67  NZ         8.7750  -30.6660  -20.5890 N.3    59  LYS59      -0.1314
     68  N          1.8110  -28.3900  -24.2060 N.am   60  SER60      -0.1938
     69  CA         1.1110  -27.3660  -24.9700 C.3    60  SER60       0.2055
     70  C          1.7630  -26.0040  -24.8110 C.2    60  SER60       0.2643
     71  O          2.5340  -25.7880  -23.8790 O.2    60  SER60      -0.2714
     72  CB        -0.3080  -27.2490  -24.4610 C.3    60  SER60       0.2130
     73  OG        -0.2840  -26.6700  -23.1660 O.3    60  SER60      -0.2179
     74  N          1.4200  -25.0770  -25.7020 N.am   61  GLY61      -0.1954
     75  CA         1.9750  -23.7350  -25.6350 C.3    61  GLY61       0.1869
     76  C          1.1720  -22.7910  -26.5080 C.2    61  GLY61       0.2309
     77  O          0.4840  -23.2520  -27.4240 O.2    61  GLY61      -0.2863
     78  N          1.5220  -19.9450  -29.1600 N.3    63  LEU63      -0.1245
     79  CA         2.3520  -19.2100  -30.1090 C.3    63  LEU63       0.1561
     80  C          2.0390  -17.7010  -30.1580 C.2    63  LEU63       0.2260
     81  O          0.8810  -17.2880  -30.0300 O.2    63  LEU63      -0.2867
     82  CB         2.1630  -19.7940  -31.5170 C.3    63  LEU63       0.0270
     83  CG         3.1550  -20.7900  -32.1220 C.3    63  LEU63       0.0019
     84  CD1        2.5780  -21.3890  -33.4010 C.3    63  LEU63       0.0001
     85  CD2        4.4550  -20.0830  -32.4230 C.3    63  LEU63       0.0001
     86  N          3.1350  -20.1890  -39.6670 N.3    71  LEU71      -0.1245
     87  CA         2.9230  -21.5670  -39.2310 C.3    71  LEU71       0.1561
     88  C          1.4220  -21.8610  -39.1370 C.2    71  LEU71       0.2260
     89  O          0.6460  -21.0480  -38.6230 O.2    71  LEU71      -0.2867
     90  CB         3.5940  -21.7990  -37.8750 C.3    71  LEU71       0.0270
     91  CG         5.0390  -21.2980  -37.7600 C.3    71  LEU71       0.0019
     92  CD1        5.5400  -21.5670  -36.3480 C.3    71  LEU71       0.0001
     93  CD2        5.9340  -21.9640  -38.8150 C.3    71  LEU71       0.0001
     94  N         -1.1010  -24.9560  -34.8980 N.3    74  ILE74      -0.1245
     95  CA        -0.3150  -25.8040  -33.9910 C.3    74  ILE74       0.1561
     96  C         -0.1680  -25.2200  -32.5760 C.2    74  ILE74       0.2260
     97  O          0.4780  -24.1880  -32.3840 O.2    74  ILE74      -0.2867
     98  CB         1.0990  -26.0470  -34.5810 C.3    74  ILE74       0.0252
     99  CG1        1.7380  -24.7030  -34.9770 C.3    74  ILE74       0.0019
    100  CG2        0.9980  -27.0000  -35.7710 C.3    74  ILE74       0.0019
    101  CD1        3.1310  -24.8040  -35.5610 C.3    74  ILE74       0.0001
    102  N          0.6540  -27.4210  -29.8120 N.3    76  GLU76      -0.1231
    103  CA         1.2680  -28.4160  -28.9520 C.3    76  GLU76       0.1699
    104  C          2.3330  -29.2880  -29.6030 C.2    76  GLU76       0.2592
    105  O          2.3170  -29.5000  -30.8150 O.2    76  GLU76      -0.2718
    106  CB         0.1590  -29.2830  -28.3460 C.3    76  GLU76       0.0402
    107  CG        -0.8730  -29.7760  -29.3550 C.3    76  GLU76       0.1161
    108  CD        -2.2080  -30.1140  -28.7220 C.2    76  GLU76       0.3649
    109  OE1       -2.8470  -29.2020  -28.1400 O.co2  76  GLU76      -0.2457
    110  OE2       -2.6230  -31.2880  -28.8130 O.co2  76  GLU76      -0.2457
    111  N          3.2430  -29.8000  -28.7660 N.am   77  THR77      -0.1953
    112  CA         4.3650  -30.6440  -29.1960 C.3    77  THR77       0.1897
    113  C          4.4420  -31.9870  -28.4890 C.2    77  THR77       0.2313
    114  O          4.0570  -32.1200  -27.3350 O.2    77  THR77      -0.2863
    115  CB         5.7420  -29.9500  -28.9480 C.3    77  THR77       0.1794
    116  OG1        5.7880  -28.6990  -29.6250 O.3    77  THR77      -0.2208
    117  CG2        6.8740  -30.7890  -29.4850 C.3    77  THR77       0.0378
    118  N          7.0140  -34.8220  -27.1690 N.3    79  ILE79      -0.1245
    119  CA         8.4230  -34.8600  -26.7460 C.3    79  ILE79       0.1561
    120  C          8.8360  -36.2710  -26.3000 C.2    79  ILE79       0.2260
    121  O          8.0270  -37.0360  -25.8160 O.2    79  ILE79      -0.2867
    122  CB         8.6580  -33.9120  -25.5930 C.3    79  ILE79       0.0252
    123  CG1        8.3420  -32.4850  -26.0310 C.3    79  ILE79       0.0019
    124  CG2       10.0580  -34.0640  -25.0910 C.3    79  ILE79       0.0019
    125  CD1        8.4110  -31.4740  -24.9090 C.3    79  ILE79       0.0001
    126  N         16.2790  -35.3640  -23.3990 N.3    96  THR96      -0.1203
    127  CA        14.8840  -35.0340  -23.6540 C.3    96  THR96       0.1994
    128  C         14.7240  -33.8880  -24.6530 C.2    96  THR96       0.2618
    129  O         15.1860  -32.7820  -24.4140 O.2    96  THR96      -0.2717
    130  CB        14.1560  -34.7190  -22.3180 C.3    96  THR96       0.1784
    131  OG1       13.0490  -33.8610  -22.5660 O.3    96  THR96      -0.2211
    132  CG2       15.0850  -34.0500  -21.3350 C.3    96  THR96       0.0376
    133  N         14.0480  -34.1600  -25.7680 N.am   97  ARG97      -0.1965
    134  CA        13.8560  -33.1730  -26.8330 C.3    97  ARG97       0.1729
    135  C         12.5640  -33.3950  -27.5860 C.2    97  ARG97       0.2616
    136  O         11.9140  -34.4140  -27.3960 O.2    97  ARG97      -0.2715
    137  CB        15.0020  -33.2870  -27.8190 C.3    97  ARG97       0.0348
    138  CG        15.1520  -34.6710  -28.4380 C.3    97  ARG97       0.0492
    139  CD        14.5920  -34.7480  -29.8530 C.3    97  ARG97       0.2205
    140  NE        15.1180  -35.9070  -30.5620 N.pl3  97  ARG97      -0.0865
    141  CZ        14.6340  -36.3750  -31.7080 C.cat  97  ARG97       0.5346
    142  NH1       15.1910  -37.4430  -32.2660 N.pl3  97  ARG97       0.1354
    143  NH2       13.5930  -35.7870  -32.2940 N.pl3  97  ARG97       0.1354
    144  N         12.2060  -32.4580  -28.4610 N.am   98  ASN98      -0.1972
    145  CA        10.9700  -32.5750  -29.2420 C.3    98  ASN98       0.1688
    146  C         11.0680  -33.5780  -30.3920 C.2    98  ASN98       0.2292
    147  O         12.1480  -33.8180  -30.9220 O.2    98  ASN98      -0.2864
    148  CB        10.5210  -31.2000  -29.7730 C.3    98  ASN98       0.1181
    149  CG        11.5340  -30.5490  -30.7130 C.2    98  ASN98       0.2629
    150  OD1       12.7210  -30.4420  -30.4060 O.2    98  ASN98      -0.2716
    151  ND2       11.0530  -30.0860  -31.8570 N.am   98  ASN98      -0.0877
    152  N          7.9380  -30.9990  -35.1580 N.3   101  HIS101     -0.1241
    153  CA         8.3570  -29.5930  -35.2570 C.3   101  HIS101      0.1621
    154  C          9.8740  -29.4380  -35.4000 C.2   101  HIS101      0.2264
    155  O         10.4000  -28.3250  -35.3430 O.2   101  HIS101     -0.2867
    156  CB         7.9080  -28.7790  -34.0470 C.3   101  HIS101      0.0745
    157  CG         6.4380  -28.8140  -33.8070 C.ar  101  HIS101      0.0817
    158  ND1        5.5330  -29.1420  -34.7910 N.ar  101  HIS101     -0.2268
    159  CD2        5.7090  -28.5030  -32.7110 C.ar  101  HIS101      0.1154
    160  CE1        4.3070  -29.0270  -34.3120 C.ar  101  HIS101      0.1986
    161  NE2        4.3870  -28.6390  -33.0520 N.ar  101  HIS101     -0.2212
    162  N         11.0440  -26.4840  -37.8050 N.3   104  ILE104     -0.1231
    163  CA        11.3580  -25.1220  -37.3970 C.3   104  ILE104      0.1692
    164  C         12.6210  -25.0950  -36.5200 C.2   104  ILE104      0.2591
    165  O         13.6460  -24.5150  -36.8990 O.2   104  ILE104     -0.2718
    166  CB        10.2010  -24.5200  -36.5970 C.3   104  ILE104      0.0266
    167  CG1        9.0460  -24.1910  -37.5360 C.3   104  ILE104      0.0019
    168  CG2       10.6920  -23.3280  -35.7800 C.3   104  ILE104      0.0020
    169  CD1        7.8880  -23.5600  -36.8410 C.3   104  ILE104      0.0001
    170  N         12.5440  -25.7130  -35.3420 N.am  105  MET105     -0.1979
    171  CA        13.6840  -25.7590  -34.4270 C.3   105  MET105      0.1605
    172  C         13.6610  -27.0810  -33.7040 C.2   105  MET105      0.2287
    173  O         12.6930  -27.8340  -33.8220 O.2   105  MET105     -0.2864
    174  CB        13.5990  -24.6390  -33.4010 C.3   105  MET105      0.0413
    175  CG        12.4150  -24.7620  -32.4760 C.3   105  MET105      0.0598
    176  SD        12.3870  -23.4020  -31.3290 S.3   105  MET105     -0.1393
    177  CE        11.2830  -22.2060  -32.2110 C.3   105  MET105      0.0692
    178  N         14.8850  -28.5270  -29.8110 N.3   107  VAL107     -0.1245
    179  CA        15.4810  -28.3430  -28.4920 C.3   107  VAL107      0.1561
    180  C         15.9020  -29.6630  -27.8790 C.2   107  VAL107      0.2260
    181  O         15.2210  -30.6570  -28.0380 O.2   107  VAL107     -0.2867
    182  CB        14.4990  -27.7100  -27.5110 C.3   107  VAL107      0.0252
    183  CG1       15.2300  -27.4140  -26.2320 C.3   107  VAL107      0.0019
    184  CG2       13.8580  -26.4560  -28.0990 C.3   107  VAL107      0.0019
    185  N         17.6850  -31.4570  -24.1620 N.3   109  GLU109     -0.1245
    186  CA        17.9830  -31.1660  -22.7680 C.3   109  GLU109      0.1567
    187  C         18.6610  -32.3050  -22.0530 C.2   109  GLU109      0.2260
    188  O         18.0050  -33.2600  -21.6480 O.2   109  GLU109     -0.2867
    189  CB        16.6790  -30.8250  -22.0280 C.3   109  GLU109      0.0388
    190  CG        16.8530  -30.0940  -20.6980 C.3   109  GLU109      0.1160
    191  CD        16.2140  -30.8020  -19.5040 C.2   109  GLU109      0.3649
    192  OE1       16.1850  -30.1840  -18.4120 O.co2 109  GLU109     -0.2457
    193  OE2       15.7590  -31.9630  -19.6440 O.co2 109  GLU109     -0.2457
@<TRIPOS>BOND
     1    86    87    1
     2    87    88    1
     3    87    90    1
     4    88    89    2
     5    93    91    1
     6    90    91    1
     7   162   163    1
     8    91    92    1
     9   167   169    1
    10   167   166    1
    11   163   166    1
    12   163   164    1
    13   165   164    2
    14   166   168    1
    15   164   170   am
    16   100    98    1
    17   101    99    1
    18   154   155    2
    19   154   153    1
    20   170   171    1
    21   153   152    1
    22   153   156    1
    23    99    98    1
    24    94    95    1
    25   158   160   ar
    26   158   157   ar
    27    98    95    1
    28   171   172    1
    29   171   174    1
    30   160   161   ar
    31   156   157    1
    32    95    96    1
    33   173   172    2
    34   157   159   ar
    35    84    83    1
    36   174   175    1
    37   161   159   ar
    38    96    97    2
    39   175   176    1
    40    85    83    1
    41   143   141    1
    42   142   141    1
    43   177   176    1
    44    83    82    1
    45   151   149   am
    46   141   140    2
    47    82    79    1
    48   147   146    2
    49   105   104    2
    50   149   150    2
    51   149   148    1
    52   140   139    1
    53   146   145    1
    54    80    79    1
    55    80    81    2
    56    79    78    1
    57   139   138    1
    58   102   103    1
    59   178   179    1
    60   148   145    1
    61   116   115    1
    62   104   103    1
    63   104   111   am
    64   117   115    1
    65   107   108    1
    66   107   106    1
    67   145   144    1
    68   112   115    1
    69   112   111    1
    70   112   113    1
    71   103   106    1
    72   110   108   ar
    73   108   109   ar
    74   179   180    1
    75   179   182    1
    76   113   114    2
    77   144   135   am
    78   138   137    1
    79   184   182    1
    80   181   180    2
    81   137   134    1
    82   135   136    2
    83   135   134    1
    84   182   183    1
    85    77    76    2
    86   118   119    1
    87   134   133    1
    88   119   120    1
    89   119   122    1
    90    76    75    1
    91   120   121    2
    92   123   122    1
    93   123   125    1
    94    62    61    2
    95   133   128   am
    96    74    75    1
    97    74    70   am
    98   122   124    1
    99    69    70    1
   100    69    72    1
   101    69    68    1
   102    70    71    2
   103    61    68   am
   104    61    60    1
   105   128   129    2
   106   128   127    1
   107    72    73    1
   108    59    60    1
   109   185   186    1
   110    60    63    1
   111   127   126    1
   112   127   130    1
   113    63    64    1
   114   186   187    1
   115   186   189    1
   116   131   130    1
   117    64    65    1
   118   130   132    1
   119   187   188    2
   120   189   190    1
   121    65    66    1
   122    45    44    2
   123    66    67    1
   124   190   191    1
   125    46    43    1
   126    46    47    1
   127    44    43    1
   128    44    52   am
   129    43    42    1
   130    49    47   ar
   131    49    51   ar
   132    47    48   ar
   133   193   191   ar
   134    54    53    1
   135    54    55    2
   136    53    52    1
   137    53    56    1
   138   191   192   ar
   139    51    50   ar
   140    57    56    1
   141    48    50   ar
   142    56    58    1
   143    23    22    1
   144    11     9    1
   145    10     9    1
   146    21    22   ar
   147    21    19   ar
   148    39    38    2
   149    22    20   ar
   150     9     8    2
   151    19    17   ar
   152    38    37    1
   153    20    18   ar
   154    17    18   ar
   155    17    16    1
   156    37    40    1
   157    37    36    1
   158     8     7    1
   159    40    41    1
   160    27    26    2
   161    16    13    1
   162     7     6    1
   163    36    26   am
   164    26    25    1
   165     6     5    1
   166    13    12    1
   167    13    14    1
   168    25    28    1
   169    25    24    1
   170    12     3   am
   171    28    29    1
   172    14    15    2
   173     5     2    1
   174     3     4    2
   175     3     2    1
   176     1     2    1
   177    29    31   ar
   178    29    30   ar
   179    31    33   ar
   180    30    32   ar
   181    33    34   ar
   182    32    34   ar
   183    34    35    1
