@<TRIPOS>MOLECULE
tmp/4yu2D00.pdb
 151 142 0 0 0
SMALL
GASTEIGER

@<TRIPOS>ATOM
      1  N        -52.0770  -61.0900   23.0680 N.3    31  ILE31      -0.1231
      2  CA       -52.0890  -59.7510   23.7110 C.3    31  ILE31       0.1692
      3  C        -53.1580  -59.5530   24.7980 C.2    31  ILE31       0.2593
      4  O        -53.1850  -58.5150   25.4660 O.2    31  ILE31      -0.2718
      5  CB       -52.2520  -58.6110   22.6700 C.3    31  ILE31       0.0266
      6  CG1      -53.5560  -58.7810   21.8770 C.3    31  ILE31       0.0019
      7  CG2      -51.0570  -58.5660   21.7530 C.3    31  ILE31       0.0020
      8  CD1      -53.9600  -57.5530   21.0820 C.3    31  ILE31       0.0001
      9  N        -54.0060  -60.5440   25.0020 N.am   32  GLY32      -0.1942
     10  CA       -55.0090  -60.4480   26.0270 C.3    32  GLY32       0.2014
     11  C        -55.6310  -61.7860   26.3330 C.2    32  GLY32       0.2638
     12  O        -55.5160  -62.7320   25.5680 O.2    32  GLY32      -0.2714
     13  N        -56.2570  -61.8690   27.4960 N.am   33  LYS33      -0.1977
     14  CA       -56.9660  -63.0680   27.8860 C.3    33  LYS33       0.1596
     15  C        -58.1350  -62.7300   28.7910 C.2    33  LYS33       0.2287
     16  O        -58.2100  -61.6360   29.3500 O.2    33  LYS33      -0.2864
     17  CB       -56.0250  -64.0430   28.5840 C.3    33  LYS33       0.0298
     18  CG       -56.3740  -65.4880   28.3090 C.3    33  LYS33       0.0038
     19  CD       -55.2030  -66.4090   28.5810 C.3    33  LYS33       0.0206
     20  CE       -55.4840  -67.8050   28.0580 C.3    33  LYS33       0.1093
     21  NZ       -54.9670  -68.8520   28.9800 N.3    33  LYS33      -0.1314
     22  N        -63.9610  -64.9830   28.0370 N.3    36  PHE36      -0.1241
     23  CA       -64.3830  -65.2360   26.6500 C.3    36  PHE36       0.1605
     24  C        -63.4230  -66.1010   25.8510 C.2    36  PHE36       0.2264
     25  O        -63.8450  -66.8590   24.9910 O.2    36  PHE36      -0.2867
     26  CB       -64.5630  -63.9020   25.9050 C.3    36  PHE36       0.0534
     27  CG       -63.3190  -63.0490   25.8780 C.ar   36  PHE36      -0.0203
     28  CD1      -62.2620  -63.3500   25.0200 C.ar   36  PHE36      -0.0042
     29  CD2      -63.1920  -61.9470   26.7190 C.ar   36  PHE36      -0.0042
     30  CE1      -61.1080  -62.5780   25.0120 C.ar   36  PHE36      -0.0003
     31  CE2      -62.0340  -61.1670   26.7010 C.ar   36  PHE36      -0.0003
     32  CZ       -60.9930  -61.4860   25.8480 C.ar   36  PHE36      -0.0000
     33  N        -57.2130  -62.7910   22.8760 N.3    39  VAL39      -0.1245
     34  CA       -57.1280  -61.7340   21.8590 C.3    39  VAL39       0.1561
     35  C        -55.6920  -61.6900   21.3540 C.2    39  VAL39       0.2260
     36  O        -54.7720  -61.6500   22.1640 O.2    39  VAL39      -0.2867
     37  CB       -57.4890  -60.3420   22.4360 C.3    39  VAL39       0.0252
     38  CG1      -57.3930  -59.2550   21.3590 C.3    39  VAL39       0.0019
     39  CG2      -58.8780  -60.3620   23.0660 C.3    39  VAL39       0.0019
     40  N        -56.7020  -56.6010   15.8300 N.3    52  ALA52      -0.1245
     41  CA       -56.7850  -57.4240   17.0390 C.3    52  ALA52       0.1562
     42  C        -57.8710  -58.4650   16.8490 C.2    52  ALA52       0.2260
     43  O        -58.9860  -58.1210   16.4810 O.2    52  ALA52      -0.2867
     44  CB       -57.0980  -56.5590   18.2350 C.3    52  ALA52       0.0290
     45  N        -60.1100  -61.4540   18.3890 N.3    54  LYS54      -0.1245
     46  CA       -60.6110  -62.0540   19.6060 C.3    54  LYS54       0.1561
     47  C        -61.0540  -63.4710   19.2890 C.2    54  LYS54       0.2260
     48  O        -61.9980  -63.6630   18.5540 O.2    54  LYS54      -0.2867
     49  CB       -61.7800  -61.2230   20.1210 C.3    54  LYS54       0.0271
     50  CG       -62.3980  -61.7010   21.4210 C.3    54  LYS54       0.0035
     51  CD       -63.1360  -60.5630   22.1200 C.3    54  LYS54       0.0206
     52  CE       -64.2250  -61.0730   23.0510 C.3    54  LYS54       0.1093
     53  NZ       -64.8700  -59.9480   23.7900 N.3    54  LYS54      -0.1314
     54  N        -72.5050  -60.5300   21.3840 N.3    69  GLU69      -0.1245
     55  CA       -71.5230  -59.4530   21.2500 C.3    69  GLU69       0.1567
     56  C        -71.4950  -58.9370   19.8010 C.2    69  GLU69       0.2260
     57  O        -71.4730  -57.7310   19.5680 O.2    69  GLU69      -0.2867
     58  CB       -70.1100  -59.8970   21.7010 C.3    69  GLU69       0.0388
     59  CG       -69.1130  -58.7410   21.7830 C.3    69  GLU69       0.1160
     60  CD       -67.6990  -59.1490   22.2240 C.2    69  GLU69       0.3649
     61  OE1      -67.4470  -60.3660   22.4710 O.co2  69  GLU69      -0.2457
     62  OE2      -66.8210  -58.2280   22.3400 O.co2  69  GLU69      -0.2457
     63  N        -65.4540  -49.6150   20.3610 N.3    88  VAL88      -0.1245
     64  CA       -64.5370  -50.3220   19.5170 C.3    88  VAL88       0.1561
     65  C        -65.2390  -50.7680   18.2390 C.2    88  VAL88       0.2260
     66  O        -66.4520  -50.9980   18.2320 O.2    88  VAL88      -0.2867
     67  CB       -63.9200  -51.5140   20.2590 C.3    88  VAL88       0.0252
     68  CG1      -64.9710  -52.5750   20.5630 C.3    88  VAL88       0.0019
     69  CG2      -62.7580  -52.0950   19.4750 C.3    88  VAL88       0.0019
     70  N        -60.9920  -56.8170   15.3000 N.3   104  PHE104     -0.1227
     71  CA       -61.1630  -55.4250   15.7210 C.3   104  PHE104      0.1736
     72  C        -60.0260  -54.5250   15.2240 C.2   104  PHE104      0.2595
     73  O        -58.9430  -54.9990   14.8770 O.2   104  PHE104     -0.2718
     74  CB       -61.2110  -55.3470   17.2350 C.3   104  PHE104      0.0547
     75  CG       -62.4150  -55.9980   17.8300 C.ar  104  PHE104     -0.0202
     76  CD1      -62.3960  -57.3360   18.1840 C.ar  104  PHE104     -0.0042
     77  CD2      -63.5770  -55.2800   18.0270 C.ar  104  PHE104     -0.0042
     78  CE1      -63.5140  -57.9450   18.7500 C.ar  104  PHE104     -0.0003
     79  CE2      -64.7000  -55.8830   18.5840 C.ar  104  PHE104     -0.0003
     80  CZ       -64.6670  -57.2200   18.9450 C.ar  104  PHE104     -0.0000
     81  N        -60.3000  -53.2230   15.1730 N.am  105  GLU105     -0.1965
     82  CA       -59.2460  -52.2220   15.0250 C.3   105  GLU105      0.1733
     83  C        -58.2320  -52.4200   16.1440 C.2   105  GLU105      0.2616
     84  O        -58.5900  -52.9100   17.2080 O.2   105  GLU105     -0.2715
     85  CB       -59.8310  -50.8020   15.0830 C.3   105  GLU105      0.0429
     86  CG       -60.6990  -50.5100   16.3170 C.3   105  GLU105      0.1163
     87  CD       -61.1250  -49.0410   16.4270 C.2   105  GLU105      0.3649
     88  OE1      -60.3210  -48.1520   16.0190 O.co2 105  GLU105     -0.2457
     89  OE2      -62.2430  -48.7710   16.9340 O.co2 105  GLU105     -0.2457
     90  N        -56.9690  -52.0700   15.8950 N.am  106  MET106     -0.1963
     91  CA       -55.9200  -52.1780   16.9120 C.3   106  MET106      0.1736
     92  C        -55.9710  -50.9660   17.8120 C.2   106  MET106      0.2616
     93  O        -55.9190  -49.8400   17.3360 O.2   106  MET106     -0.2715
     94  CB       -54.5370  -52.2480   16.2700 C.3   106  MET106      0.0427
     95  CG       -53.4230  -52.5770   17.2490 C.3   106  MET106      0.0599
     96  SD       -53.6240  -54.2090   17.9760 S.3   106  MET106     -0.1393
     97  CE       -52.7330  -54.0080   19.5010 C.3   106  MET106      0.0692
     98  N        -56.0640  -51.1990   19.1150 N.am  107  LEU107     -0.1963
     99  CA       -56.1240  -50.1050   20.0780 C.3   107  LEU107      0.1728
    100  C        -54.8460  -50.0760   20.9500 C.2   107  LEU107      0.2616
    101  O        -53.9060  -50.8350   20.7120 O.2   107  LEU107     -0.2715
    102  CB       -57.3970  -50.2280   20.9310 C.3   107  LEU107      0.0311
    103  CG       -58.7430  -49.9300   20.2550 C.3   107  LEU107      0.0022
    104  CD1      -59.8960  -50.1300   21.2250 C.3   107  LEU107      0.0001
    105  CD2      -58.7720  -48.5180   19.7040 C.3   107  LEU107      0.0001
    106  N        -54.8130  -49.1910   21.9350 N.am  108  SER108     -0.1950
    107  CA       -53.6310  -48.9850   22.7510 C.3   108  SER108      0.1924
    108  C        -53.8560  -49.5000   24.1900 C.2   108  SER108      0.2314
    109  O        -54.6420  -50.4160   24.3980 O.2   108  SER108     -0.2863
    110  CB       -53.2750  -47.5000   22.7250 C.3   108  SER108      0.2116
    111  OG       -51.8970  -47.2990   22.9600 O.3   108  SER108     -0.2180
    112  N        -59.9610  -52.0360   32.7540 N.3   157  GLU157     -0.1231
    113  CA       -59.3930  -52.9470   31.7620 C.3   157  GLU157      0.1699
    114  C        -60.1770  -52.9940   30.4420 C.2   157  GLU157      0.2592
    115  O        -59.6520  -53.4260   29.4080 O.2   157  GLU157     -0.2718
    116  CB       -59.3110  -54.3630   32.3340 C.3   157  GLU157      0.0402
    117  CG       -58.2050  -54.5740   33.3600 C.3   157  GLU157      0.1161
    118  CD       -58.6350  -54.3120   34.7860 C.2   157  GLU157      0.3649
    119  OE1      -59.5740  -53.5110   35.0300 O.co2 157  GLU157     -0.2457
    120  OE2      -57.9980  -54.8910   35.6820 O.co2 157  GLU157     -0.2457
    121  N        -61.4270  -52.5600   30.4910 N.am  158  ASN158     -0.1974
    122  CA       -62.2690  -52.5260   29.3230 C.3   158  ASN158      0.1688
    123  C        -62.5090  -51.1290   28.8110 C.2   158  ASN158      0.2292
    124  O        -63.4760  -50.9010   28.0940 O.2   158  ASN158     -0.2864
    125  CB       -63.5920  -53.1980   29.6210 C.3   158  ASN158      0.1181
    126  CG       -63.4920  -54.6930   29.5670 C.2   158  ASN158      0.2629
    127  OD1      -62.5000  -55.2470   29.0980 O.2   158  ASN158     -0.2716
    128  ND2      -64.4990  -55.3670   30.1120 N.am  158  ASN158     -0.0877
    129  N        -60.0250  -48.6270   26.6070 N.3   160  LEU160     -0.1245
    130  CA       -58.7100  -48.5370   25.9620 C.3   160  LEU160      0.1561
    131  C        -58.5020  -47.1880   25.3120 C.2   160  LEU160      0.2260
    132  O        -59.4370  -46.5830   24.8080 O.2   160  LEU160     -0.2867
    133  CB       -58.5510  -49.6300   24.9170 C.3   160  LEU160      0.0270
    134  CG       -58.1930  -51.0080   25.4810 C.3   160  LEU160      0.0019
    135  CD1      -59.2720  -51.5550   26.4030 C.3   160  LEU160      0.0001
    136  CD2      -57.9570  -51.9600   24.3420 C.3   160  LEU160      0.0001
    137  N        -64.5670  -51.4570   25.1130 N.3   172  VAL172     -0.1231
    138  CA       -64.4620  -52.7490   24.4600 C.3   172  VAL172      0.1692
    139  C        -65.1590  -53.8340   25.2790 C.2   172  VAL172      0.2592
    140  O        -65.5760  -53.5950   26.3960 O.2   172  VAL172     -0.2718
    141  CB       -62.9970  -53.1390   24.2670 C.3   172  VAL172      0.0266
    142  CG1      -62.2100  -51.9490   23.7440 C.3   172  VAL172      0.0020
    143  CG2      -62.4030  -53.6320   25.5780 C.3   172  VAL172      0.0020
    144  N        -65.2980  -55.0080   24.6700 N.am  173  ASP173     -0.1974
    145  CA       -65.8670  -56.2030   25.2940 C.3   173  ASP173      0.1709
    146  C        -67.3120  -56.0470   25.6790 C.2   173  ASP173      0.2293
    147  O        -67.6300  -55.6810   26.8090 O.2   173  ASP173     -0.2864
    148  CB       -65.0750  -56.6620   26.5180 C.3   173  ASP173      0.1436
    149  CG       -65.3700  -58.1380   26.8860 C.2   173  ASP173      0.3671
    150  OD1      -66.3100  -58.7330   26.2940 O.co2 173  ASP173     -0.2456
    151  OD2      -64.6440  -58.7040   27.7320 O.co2 173  ASP173     -0.2456
@<TRIPOS>BOND
     1    73    72    2
     2    82    85    1
     3    82    81    1
     4    82    83    1
     5    85    86    1
     6    81    72   am
     7    72    71    1
     8    70    71    1
     9    71    74    1
    10    40    41    1
    11    90    83   am
    12    90    91    1
    13    88    87   ar
    14    83    84    2
    15    94    91    1
    16    94    95    1
    17    86    87    1
    18    87    89   ar
    19    43    42    2
    20    42    41    1
    21    91    92    1
    22    41    44    1
    23    74    75    1
    24    95    96    1
    25    93    92    2
    26    92    98   am
    27    75    77   ar
    28    75    76   ar
    29    96    97    1
    30    77    79   ar
    31    76    78   ar
    32    66    65    2
    33    65    64    1
    34    45    46    1
    35    48    47    2
    36    79    80   ar
    37    78    80   ar
    38    98    99    1
    39    47    46    1
    40    69    67    1
    41    64    67    1
    42    64    63    1
    43    57    56    2
    44    46    49    1
    45   105   103    1
    46    56    55    1
    47    99   102    1
    48    99   100    1
    49    49    50    1
    50   103   102    1
    51   103   104    1
    52    67    68    1
    53   101   100    2
    54   100   106   am
    55     8     6    1
    56    55    54    1
    57    55    58    1
    58    35    34    1
    59    35    36    2
    60    38    37    1
    61    50    51    1
    62    58    59    1
    63     7     5    1
    64    59    60    1
    65    34    37    1
    66    34    33    1
    67     6     5    1
    68   106   107    1
    69    51    52    1
    70    60    62   ar
    71    60    61   ar
    72    37    39    1
    73     5     2    1
    74   110   107    1
    75   110   111    1
    76   107   108    1
    77    52    53    1
    78     1     2    1
    79     2     3    1
    80   142   141    1
    81   108   109    2
    82   141   138    1
    83   141   143    1
    84   136   134    1
    85   138   137    1
    86   138   139    1
    87   144   139   am
    88   144   145    1
    89     3     9   am
    90     3     4    2
    91   132   131    2
    92   133   134    1
    93   133   130    1
    94    25    24    2
    95     9    10    1
    96    30    28   ar
    97    30    32   ar
    98    28    27   ar
    99   139   140    2
   100   145   146    1
   101   145   148    1
   102   131   130    1
   103   134   135    1
   104    12    11    2
   105   146   147    2
   106    32    31   ar
   107    24    23    1
   108    27    26    1
   109    27    29   ar
   110    26    23    1
   111   130   129    1
   112    10    11    1
   113   150   149   ar
   114    11    13   am
   115   148   149    1
   116    23    22    1
   117    31    29   ar
   118   149   151   ar
   119    13    14    1
   120    14    17    1
   121    14    15    1
   122    20    19    1
   123    20    21    1
   124   124   123    2
   125    18    19    1
   126    18    17    1
   127    15    16    2
   128   123   122    1
   129   127   126    2
   130   122   125    1
   131   122   121    1
   132   115   114    2
   133   126   125    1
   134   126   128   am
   135   114   121   am
   136   114   113    1
   137   113   116    1
   138   113   112    1
   139   116   117    1
   140   117   118    1
   141   118   119   ar
   142   118   120   ar
