@<TRIPOS>MOLECULE
tmp/4yu7B01.pdb
 94 91 0 0 0
SMALL
GASTEIGER

@<TRIPOS>ATOM
      1  N        -10.9280  -40.5550   -6.0060 N.3     2  LEU2       -0.1231
      2  CA        -9.5650  -40.1840   -5.6460 C.3     2  LEU2        0.1693
      3  C         -8.6810  -41.3930   -5.3840 C.2     2  LEU2        0.2592
      4  O         -7.4750  -41.3280   -5.6150 O.2     2  LEU2       -0.2718
      5  CB        -9.5690  -39.2410   -4.4410 C.3     2  LEU2        0.0284
      6  CG       -10.0060  -37.8320   -4.8510 C.3     2  LEU2        0.0019
      7  CD1      -10.4790  -37.0230   -3.6630 C.3     2  LEU2        0.0001
      8  CD2       -8.8710  -37.1130   -5.5600 C.3     2  LEU2        0.0001
      9  N         -9.2750  -42.4880   -4.9070 N.am    3  PHE3       -0.1976
     10  CA        -8.5320  -43.7260   -4.7100 C.3     3  PHE3        0.1639
     11  C         -7.9090  -44.2220   -6.0090 C.2     3  PHE3        0.2290
     12  O         -6.7140  -44.5200   -6.0440 O.2     3  PHE3       -0.2864
     13  CB        -9.4190  -44.8120   -4.1180 C.3     3  PHE3        0.0560
     14  CG        -9.8530  -44.4050   -2.7300 C.ar    3  PHE3       -0.0200
     15  CD1       -8.9260  -44.4160   -1.7070 C.ar    3  PHE3       -0.0042
     16  CD2      -11.1440  -43.9970   -2.4820 C.ar    3  PHE3       -0.0042
     17  CE1       -9.3020  -43.9790   -0.4460 C.ar    3  PHE3       -0.0003
     18  CE2      -11.4900  -43.5780   -1.2340 C.ar    3  PHE3       -0.0003
     19  CZ       -10.5760  -43.5820   -0.2160 C.ar    3  PHE3       -0.0000
     20  N         -7.5280  -42.5070   -8.8670 N.3     5  LEU5       -0.1231
     21  CA        -6.6460  -41.4670   -9.3890 C.3     5  LEU5        0.1693
     22  C         -5.2760  -41.5330   -8.7190 C.2     5  LEU5        0.2593
     23  O         -4.2520  -41.4810   -9.4000 O.2     5  LEU5       -0.2718
     24  CB        -7.2650  -40.0900   -9.1640 C.3     5  LEU5        0.0284
     25  CG        -6.3760  -38.9010   -9.5290 C.3     5  LEU5        0.0019
     26  CD1       -6.0170  -38.8830  -11.0230 C.3     5  LEU5        0.0001
     27  CD2       -7.0340  -37.5910   -9.1360 C.3     5  LEU5        0.0001
     28  N         -5.2710  -41.6510   -7.3900 N.am    6  GLY6       -0.1942
     29  CA        -4.0090  -41.7140   -6.6510 C.3     6  GLY6        0.2014
     30  C         -3.2300  -42.9630   -7.0010 C.2     6  GLY6        0.2638
     31  O         -1.9970  -42.9260   -7.1480 O.2     6  GLY6       -0.2714
     32  N         -3.9420  -44.0770   -7.1400 N.am    7  LYS7       -0.1977
     33  CA        -3.3040  -45.3340   -7.4850 C.3     7  LYS7        0.1596
     34  C         -2.6400  -45.2140   -8.8610 C.2     7  LYS7        0.2287
     35  O         -1.4920  -45.5890   -9.0370 O.2     7  LYS7       -0.2864
     36  CB        -4.3110  -46.4890   -7.4470 C.3     7  LYS7        0.0298
     37  CG        -3.6700  -47.8700   -7.5920 C.3     7  LYS7        0.0038
     38  CD        -4.6700  -48.9650   -7.2380 C.3     7  LYS7        0.0206
     39  CE        -4.1260  -50.3520   -7.5170 C.3     7  LYS7        0.1093
     40  NZ        -5.1410  -51.3760   -7.1610 N.3     7  LYS7       -0.1314
     41  N         -1.6000  -42.5110  -10.3940 N.3     9  ILE9       -0.1231
     42  CA        -0.4370  -41.6310  -10.3030 C.3     9  ILE9        0.1692
     43  C          0.7770  -42.3530   -9.7240 C.2     9  ILE9        0.2591
     44  O          1.8880  -42.2390  -10.2500 O.2     9  ILE9       -0.2718
     45  CB        -0.7920  -40.3320   -9.5220 C.3     9  ILE9        0.0266
     46  CG1       -1.7430  -39.4800  -10.3830 C.3     9  ILE9        0.0019
     47  CG2        0.4860  -39.5730   -9.1350 C.3     9  ILE9        0.0020
     48  CD1       -2.5040  -38.3620   -9.6260 C.3     9  ILE9        0.0001
     49  N          0.5600  -43.1120   -8.6560 N.am   10  LEU10      -0.1980
     50  CA         1.6070  -43.9410   -8.0790 C.3    10  LEU10       0.1596
     51  C          2.1620  -44.9300   -9.0980 C.2    10  LEU10       0.2287
     52  O          3.3700  -45.1210   -9.2130 O.2    10  LEU10      -0.2864
     53  CB         1.0300  -44.6950   -6.8850 C.3    10  LEU10       0.0297
     54  CG         1.9920  -45.6810   -6.2520 C.3    10  LEU10       0.0022
     55  CD1        3.1890  -44.9120   -5.7790 C.3    10  LEU10       0.0001
     56  CD2        1.3100  -46.3670   -5.0960 C.3    10  LEU10       0.0001
     57  N          1.3910  -39.9700   -4.3370 N.3    17  PRO17      -0.2102
     58  CA         0.5780  -38.9590   -5.0270 C.3    17  PRO17       0.1504
     59  C          0.2080  -37.7530   -4.1630 C.2    17  PRO17       0.2575
     60  O          0.2200  -36.6250   -4.6680 O.2    17  PRO17      -0.2718
     61  CB        -0.6870  -39.7320   -5.4260 C.3    17  PRO17       0.0282
     62  CG        -0.6890  -40.9650   -4.5610 C.3    17  PRO17       0.0208
     63  CD         0.7470  -41.2940   -4.3260 C.3    17  PRO17       0.0893
     64  N         -0.1650  -37.9840   -2.9130 N.am   18  ALA18      -0.1980
     65  CA        -0.5750  -36.8810   -2.0510 C.3    18  ALA18       0.1597
     66  C          0.5710  -35.9010   -1.8630 C.2    18  ALA18       0.2287
     67  O          0.3890  -34.6830   -1.9700 O.2    18  ALA18      -0.2864
     68  CB        -1.0560  -37.3910   -0.7100 C.3    18  ALA18       0.0319
     69  N          1.6910  -34.5240   -5.6100 N.3    21  TYR21      -0.1227
     70  CA         0.6960  -33.9350   -6.4990 C.3    21  TYR21       0.1736
     71  C         -0.5850  -33.4740   -5.8230 C.2    21  TYR21       0.2596
     72  O         -1.4950  -32.9710   -6.4930 O.2    21  TYR21      -0.2718
     73  CB         0.3730  -34.8970   -7.6420 C.3    21  TYR21       0.0548
     74  CG         1.5940  -35.2690   -8.4500 C.ar   21  TYR21      -0.0200
     75  CD1        2.2170  -34.3330   -9.2730 C.ar   21  TYR21      -0.0009
     76  CD2        2.1310  -36.5420   -8.3780 C.ar   21  TYR21      -0.0009
     77  CE1        3.3270  -34.6660  -10.0240 C.ar   21  TYR21       0.0417
     78  CE2        3.2540  -36.8920   -9.1270 C.ar   21  TYR21       0.0417
     79  CZ         3.8410  -35.9480   -9.9490 C.ar   21  TYR21       0.1957
     80  OH         4.9550  -36.2680  -10.6850 O.3    21  TYR21      -0.2866
     81  N         -0.6560  -33.6330   -4.5070 N.am   22  GLY22      -0.1957
     82  CA        -1.8430  -33.2320   -3.7730 C.3    22  GLY22       0.1869
     83  C         -2.1060  -31.7360   -3.7860 C.2    22  GLY22       0.2309
     84  O         -3.2590  -31.3120   -3.6170 O.2    22  GLY22      -0.2863
     85  N         -2.8840  -28.6940   -9.4850 N.3    28  CYS28      -0.1221
     86  CA        -2.8810  -30.0370   -8.8980 C.3    28  CYS28       0.1808
     87  C         -3.4340  -29.9460   -7.4920 C.2    28  CYS28       0.2601
     88  O         -2.8530  -29.2670   -6.6440 O.2    28  CYS28      -0.2717
     89  CB        -1.4600  -30.6200   -8.8480 C.3    28  CYS28       0.0970
     90  SG        -0.6820  -30.7900  -10.4840 S.3    28  CYS28      -0.0800
     91  N         -4.5510  -30.6310   -7.2500 N.am   29  GLY29      -0.1957
     92  CA        -5.1810  -30.6210   -5.9410 C.3    29  GLY29       0.1869
     93  C         -6.5410  -29.9450   -5.9540 C.2    29  GLY29       0.2309
     94  O         -7.2730  -30.0040   -6.9520 O.2    29  GLY29      -0.2863
@<TRIPOS>BOND
     1    26    25    1
     2    80    79    1
     3    90    89    1
     4    41    42    1
     5    46    48    1
     6    46    45    1
     7    42    43    1
     8    42    45    1
     9    44    43    2
    10    77    79   ar
    11    77    75   ar
    12    79    78   ar
    13    43    49   am
    14    25    24    1
    15    25    27    1
    16    45    47    1
    17    85    86    1
    18    23    22    2
    19    21    24    1
    20    21    20    1
    21    21    22    1
    22    75    74   ar
    23    52    51    2
    24    78    76   ar
    25    51    50    1
    26    35    34    2
    27    86    89    1
    28    86    87    1
    29    34    33    1
    30    22    28   am
    31    49    50    1
    32    74    76   ar
    33    74    73    1
    34    50    53    1
    35    73    70    1
    36    37    36    1
    37    37    38    1
    38    39    38    1
    39    39    40    1
    40    87    91   am
    41    87    88    2
    42    33    36    1
    43    33    32    1
    44    28    29    1
    45    91    92    1
    46    31    30    2
    47    32    30   am
    48    30    29    1
    49    94    93    2
    50    53    54    1
    51    70    71    1
    52    70    69    1
    53    72    71    2
    54    54    55    1
    55    54    56    1
    56    12    11    2
    57    11    10    1
    58     1     2    1
    59    93    92    1
    60    71    81   am
    61     2     3    1
    62     2     5    1
    63     4     3    2
    64     8     6    1
    65    61    58    1
    66    61    62    1
    67     3     9   am
    68    58    57    1
    69    58    59    1
    70     9    10    1
    71     6     5    1
    72     6     7    1
    73    10    13    1
    74    60    59    2
    75    62    63    1
    76    81    82    1
    77    57    63    1
    78    59    64   am
    79    13    14    1
    80    83    82    1
    81    83    84    2
    82    64    65    1
    83    14    16   ar
    84    14    15   ar
    85    16    18   ar
    86    65    66    1
    87    65    68    1
    88    67    66    2
    89    15    17   ar
    90    18    19   ar
    91    17    19   ar
