@<TRIPOS>MOLECULE
tmp/4yuaA01.pdb
 113 111 0 0 0
SMALL
GASTEIGER

@<TRIPOS>ATOM
      1  N         34.2740   30.9990   36.7700 N.3   265  ASN265     -0.1225
      2  CA        35.0390   31.0370   35.5110 C.3   265  ASN265      0.1785
      3  C         34.7050   29.8390   34.6160 C.2   265  ASN265      0.2597
      4  O         34.7190   28.6960   35.0760 O.2   265  ASN265     -0.2718
      5  CB        36.5520   31.0240   35.7770 C.3   265  ASN265      0.1169
      6  CG        36.9640   31.9210   36.9290 C.2   265  ASN265      0.2627
      7  OD1       37.6010   31.4740   37.8830 O.2   265  ASN265     -0.2716
      8  ND2       36.5950   33.1810   36.8510 N.am  265  ASN265     -0.0877
      9  N         34.4230   30.1030   33.3520 N.am  266  ASP266     -0.1974
     10  CA        34.1120   29.0700   32.3850 C.3   266  ASP266      0.1709
     11  C         35.2060   29.1750   31.3380 C.2   266  ASP266      0.2293
     12  O         35.3520   30.2270   30.7160 O.2   266  ASP266     -0.2864
     13  CB        32.7330   29.3660   31.7860 C.3   266  ASP266      0.1436
     14  CG        32.3000   28.3480   30.7480 C.2   266  ASP266      0.3671
     15  OD1       31.7250   27.3120   31.1270 O.co2 266  ASP266     -0.2456
     16  OD2       32.4970   28.6020   29.5450 O.co2 266  ASP266     -0.2456
     17  N         38.4510   29.5160   31.6360 N.3   268  PHE268     -0.1241
     18  CA        39.3980   30.5740   31.9780 C.3   268  PHE268      0.1605
     19  C         40.0600   30.2210   33.2990 C.2   268  PHE268      0.2264
     20  O         39.3750   29.9240   34.2870 O.2   268  PHE268     -0.2867
     21  CB        38.6990   31.9420   32.0740 C.3   268  PHE268      0.0534
     22  CG        39.6430   33.0990   32.3010 C.ar  268  PHE268     -0.0203
     23  CD1       40.3610   33.6570   31.2340 C.ar  268  PHE268     -0.0042
     24  CD2       39.8180   33.6400   33.5840 C.ar  268  PHE268     -0.0042
     25  CE1       41.2390   34.7210   31.4440 C.ar  268  PHE268     -0.0003
     26  CE2       40.6950   34.7060   33.8000 C.ar  268  PHE268     -0.0003
     27  CZ        41.4060   35.2460   32.7300 C.ar  268  PHE268     -0.0000
     28  N         42.0640   31.1370   36.5760 N.3   270  GLU270     -0.1245
     29  CA        42.3840   32.1820   37.5350 C.3   270  GLU270      0.1567
     30  C         43.2250   31.5020   38.6150 C.2   270  GLU270      0.2260
     31  O         42.7540   30.5860   39.3060 O.2   270  GLU270     -0.2867
     32  CB        41.0910   32.7800   38.1060 C.3   270  GLU270      0.0388
     33  CG        41.2140   34.2020   38.6350 C.3   270  GLU270      0.1160
     34  CD        39.9770   34.6620   39.4060 C.2   270  GLU270      0.3649
     35  OE1       40.1090   35.5830   40.2390 O.co2 270  GLU270     -0.2457
     36  OE2       38.8690   34.1120   39.1910 O.co2 270  GLU270     -0.2457
     37  N         44.2500   30.4400   27.4940 N.3   356  GLU356     -0.1245
     38  CA        43.8810   31.1140   28.7340 C.3   356  GLU356      0.1567
     39  C         43.0940   30.2270   29.7310 C.2   356  GLU356      0.2260
     40  O         42.8980   30.6070   30.8910 O.2   356  GLU356     -0.2867
     41  CB        43.1480   32.4320   28.4350 C.3   356  GLU356      0.0388
     42  CG        41.7690   32.2790   27.8020 C.3   356  GLU356      0.1160
     43  CD        41.7710   32.3540   26.2810 C.2   356  GLU356      0.3649
     44  OE1       42.7710   31.9620   25.6270 O.co2 356  GLU356     -0.2457
     45  OE2       40.7400   32.8080   25.7360 O.co2 356  GLU356     -0.2457
     46  N         30.8720   34.2690   25.8470 N.3   545  HIS545     -0.1226
     47  CA        32.3050   34.3050   25.5670 C.3   545  HIS545      0.1752
     48  C         32.5430   34.8430   24.1700 C.2   545  HIS545      0.2595
     49  O         31.7150   34.6950   23.2750 O.2   545  HIS545     -0.2718
     50  CB        32.9510   32.9190   25.7190 C.3   545  HIS545      0.0759
     51  CG        34.4290   32.9630   25.9690 C.ar  545  HIS545      0.0818
     52  ND1       35.3410   33.3580   25.0110 N.ar  545  HIS545     -0.2268
     53  CD2       35.1520   32.6630   27.0740 C.ar  545  HIS545      0.1154
     54  CE1       36.5590   33.3000   25.5150 C.ar  545  HIS545      0.1986
     55  NE2       36.4730   32.8740   26.7640 N.ar  545  HIS545     -0.2212
     56  N         33.6820   35.5030   23.9950 N.am  546  GLU546     -0.1979
     57  CA        34.0680   35.9640   22.6590 C.3   546  GLU546      0.1602
     58  C         34.1780   34.8240   21.6310 C.2   546  GLU546      0.2287
     59  O         33.7990   35.0100   20.4730 O.2   546  GLU546     -0.2864
     60  CB        35.3740   36.7470   22.7170 C.3   546  GLU546      0.0415
     61  CG        35.2140   38.1410   23.2790 C.3   546  GLU546      0.1163
     62  CD        36.5420   38.6950   23.7530 C.2   546  GLU546      0.3649
     63  OE1       37.1850   39.3980   22.9510 O.co2 546  GLU546     -0.2457
     64  OE2       36.9410   38.3950   24.8970 O.co2 546  GLU546     -0.2457
     65  N         31.1550   35.5720   33.4280 N.3   584  ALA584     -0.1231
     66  CA        31.9500   35.5890   34.6590 C.3   584  ALA584      0.1679
     67  C         32.0400   37.0450   35.1520 C.2   584  ALA584      0.2434
     68  O         32.2040   37.9500   34.3240 O.2   584  ALA584     -0.2733
     69  CB        33.3270   35.0030   34.3930 C.3   584  ALA584      0.0304
     70  N         31.8940   37.2860   36.4780 N.am  585  PRO585     -0.2718
     71  CA        31.8310   38.6670   37.0120 C.3   585  PRO585      0.1535
     72  C         33.0070   39.5770   36.6220 C.2   585  PRO585      0.2599
     73  O         32.8100   40.7780   36.4710 O.2   585  PRO585     -0.2715
     74  CB        31.7850   38.4630   38.5400 C.3   585  PRO585      0.0310
     75  CG        31.2260   37.0980   38.7200 C.3   585  PRO585      0.0237
     76  CD        31.7620   36.2920   37.5630 C.3   585  PRO585      0.0939
     77  N         34.1980   39.0110   36.4440 N.am  586  GLY586     -0.1941
     78  CA        35.3790   39.7990   36.0580 C.3   586  GLY586      0.2014
     79  C         35.6340   39.9390   34.5670 C.2   586  GLY586      0.2639
     80  O         36.6110   40.5740   34.1700 O.2   586  GLY586     -0.2714
     81  N         34.7690   39.3360   33.7430 N.am  587  TYR587     -0.1959
     82  CA        34.9500   39.2780   32.2910 C.3   587  TYR587      0.1771
     83  C         34.2470   40.4790   31.6560 C.2   587  TYR587      0.2619
     84  O         33.0730   40.4060   31.2720 O.2   587  TYR587     -0.2715
     85  CB        34.4190   37.9390   31.7350 C.3   587  TYR587      0.0574
     86  CG        34.7410   37.5970   30.2770 C.ar  587  TYR587     -0.0198
     87  CD1       35.4540   38.4750   29.4320 C.ar  587  TYR587     -0.0009
     88  CD2       34.2880   36.3840   29.7310 C.ar  587  TYR587     -0.0009
     89  CE1       35.7200   38.1390   28.1020 C.ar  587  TYR587      0.0417
     90  CE2       34.5360   36.0400   28.4070 C.ar  587  TYR587      0.0417
     91  CZ        35.2470   36.9110   27.5930 C.ar  587  TYR587      0.1957
     92  OH        35.4910   36.5390   26.2840 O.3   587  TYR587     -0.2866
     93  N         34.9870   41.5840   31.5610 N.am  588  HIS588     -0.1973
     94  CA        34.4470   42.8690   31.1200 C.3   588  HIS588      0.1656
     95  C         33.8130   42.8320   29.7240 C.2   588  HIS588      0.2291
     96  O         32.7090   43.3410   29.5410 O.2   588  HIS588     -0.2864
     97  CB        35.5280   43.9650   31.1830 C.3   588  HIS588      0.0771
     98  CG        35.0890   45.2710   30.5950 C.ar  588  HIS588      0.0820
     99  ND1       34.2030   46.1130   31.2340 N.ar  588  HIS588     -0.2267
    100  CD2       35.3980   45.8690   29.4180 C.ar  588  HIS588      0.1154
    101  CE1       33.9940   47.1810   30.4820 C.ar  588  HIS588      0.1986
    102  NE2       34.7050   47.0550   29.3740 N.ar  588  HIS588     -0.2212
    103  N         40.4050   38.2090   18.2060 N.3   744  ARG744     -0.1245
    104  CA        40.9740   36.8610   18.1500 C.3   744  ARG744      0.1563
    105  C         40.0830   35.8690   17.3930 C.2   744  ARG744      0.2260
    106  O         40.5720   34.8490   16.9100 O.2   744  ARG744     -0.2867
    107  CB        41.2200   36.3090   19.5630 C.3   744  ARG744      0.0307
    108  CG        42.2950   37.0230   20.3740 C.3   744  ARG744      0.0489
    109  CD        42.2370   36.5970   21.8390 C.3   744  ARG744      0.2205
    110  NE        42.6040   35.1870   22.0050 N.pl3 744  ARG744     -0.0865
    111  CZ        42.1970   34.4010   23.0010 C.cat 744  ARG744      0.5346
    112  NH1       41.3810   34.8720   23.9410 N.pl3 744  ARG744      0.1354
    113  NH2       42.5990   33.1310   23.0480 N.pl3 744  ARG744      0.1354
@<TRIPOS>BOND
     1   106   105    2
     2   105   104    1
     3   104   103    1
     4   104   107    1
     5   107   108    1
     6   108   109    1
     7    59    58    2
     8    58    57    1
     9   109   110    1
    10   110   111    2
    11    57    60    1
    12    57    56    1
    13    60    61    1
    14    63    62   ar
    15   111   113    1
    16   111   112    1
    17    49    48    2
    18    61    62    1
    19    62    64   ar
    20    56    48   am
    21    48    47    1
    22    52    54   ar
    23    52    51   ar
    24    54    55   ar
    25    47    50    1
    26    47    46    1
    27    44    43   ar
    28    50    51    1
    29    45    43   ar
    30    51    53   ar
    31    43    42    1
    32    92    91    1
    33    55    53   ar
    34    37    38    1
    35    91    89   ar
    36    91    90   ar
    37    42    41    1
    38    89    87   ar
    39    90    88   ar
    40    41    38    1
    41    38    39    1
    42   102   100   ar
    43   102   101   ar
    44   100    98   ar
    45    87    86   ar
    46    96    95    2
    47    16    14   ar
    48    95    94    1
    49    39    40    2
    50    88    86   ar
    51    86    85    1
    52   101    99   ar
    53    98    97    1
    54    98    99   ar
    55    12    11    2
    56    14    15   ar
    57    14    13    1
    58    94    97    1
    59    94    93    1
    60    23    25   ar
    61    23    22   ar
    62    84    83    2
    63    11    10    1
    64    25    27   ar
    65    93    83   am
    66    17    18    1
    67    83    82    1
    68    85    82    1
    69    13    10    1
    70    18    21    1
    71    18    19    1
    72    21    22    1
    73    82    81    1
    74    22    24   ar
    75    10     9    1
    76    27    26   ar
    77    19    20    2
    78     9     3   am
    79    65    66    1
    80    24    26   ar
    81    81    79   am
    82    80    79    2
    83    68    67    2
    84    69    66    1
    85    79    78    1
    86     3     4    2
    87     3     2    1
    88    66    67    1
    89    67    70   am
    90     2     5    1
    91     2     1    1
    92     5     6    1
    93    78    77    1
    94    77    72   am
    95    73    72    2
    96    70    71    1
    97    70    76    1
    98    28    29    1
    99    72    71    1
   100     8     6   am
   101     6     7    2
   102    71    74    1
   103    29    32    1
   104    29    30    1
   105    76    75    1
   106    32    33    1
   107    74    75    1
   108    30    31    2
   109    33    34    1
   110    36    34   ar
   111    34    35   ar
