@<TRIPOS>MOLECULE
tmp/4yuqA00.pdb
 160 148 0 0 0
SMALL
GASTEIGER

@<TRIPOS>ATOM
      1  N          3.0610   -3.3110    6.8430 N.3    27  LEU27      -0.1231
      2  CA         1.6410   -3.5810    7.0670 C.3    27  LEU27       0.1696
      3  C          1.4820   -5.0030    7.5540 C.2    27  LEU27       0.2632
      4  O          0.6580   -5.2750    8.4190 O.2    27  LEU27      -0.2714
      5  CB         0.8710   -3.4070    5.7720 C.3    27  LEU27       0.0284
      6  CG         1.0040   -2.0150    5.1780 C.3    27  LEU27       0.0019
      7  CD1        0.7530   -2.0400    3.6880 C.3    27  LEU27       0.0001
      8  CD2        0.0540   -1.0640    5.8850 C.3    27  LEU27       0.0001
      9  N          2.2750   -5.9100    6.9820 N.am   28  GLY28      -0.1718
     10  CA         2.2870   -7.3060    7.4120 C.2    28  GLY28       0.1480
     11  C          2.9750   -8.2840    6.4780 C.2    28  GLY28       0.2820
     12  O          3.7730   -7.9040    5.6240 O.2    28  GLY28      -0.2669
     13  N          2.6630   -9.5600    6.6720 N.am   29  LYS29      -0.1929
     14  CA         3.1490  -10.6280    5.8040 C.3    29  LYS29       0.1731
     15  C          1.9700  -11.3170    5.0930 C.2    29  LYS29       0.2616
     16  O          0.8710  -11.4340    5.6440 O.2    29  LYS29      -0.2715
     17  CB         3.9940  -11.6270    6.6080 C.3    29  LYS29       0.0312
     18  CG         5.0330  -10.9260    7.4750 C.3    29  LYS29       0.0038
     19  CD         6.2710  -11.7750    7.7610 C.3    29  LYS29       0.0206
     20  CE         7.0750  -12.0610    6.4890 C.3    29  LYS29       0.1093
     21  NZ         8.5110  -11.6710    6.5990 N.3    29  LYS29      -0.1314
     22  N          2.2230  -11.7700    3.8660 N.am   30  GLY30      -0.1955
     23  CA         1.2150  -12.4240    3.0680 C.3    30  GLY30       0.1869
     24  C          1.3230  -13.9340    3.0480 C.2    30  GLY30       0.2309
     25  O          1.9200  -14.5570    3.9250 O.2    30  GLY30      -0.2863
     26  N          4.2150   -7.2210    2.9100 N.3    35  VAL35      -0.1245
     27  CA         3.6060   -6.0730    2.2450 C.3    35  VAL35       0.1561
     28  C          4.0740   -4.7630    2.8760 C.2    35  VAL35       0.2260
     29  O          3.9470   -4.5440    4.0810 O.2    35  VAL35      -0.2867
     30  CB         2.0630   -6.0830    2.3280 C.3    35  VAL35       0.0252
     31  CG1        1.4770   -5.1030    1.3140 C.3    35  VAL35       0.0019
     32  CG2        1.5060   -7.4800    2.0940 C.3    35  VAL35       0.0019
     33  N          0.3180   -0.2780   -1.5340 N.3    48  ALA48      -0.1245
     34  CA         0.7930   -1.3740   -0.7110 C.3    48  ALA48       0.1562
     35  C          1.5830   -2.2870   -1.6050 C.2    48  ALA48       0.2260
     36  O          1.0280   -2.8800   -2.4980 O.2    48  ALA48      -0.2867
     37  CB        -0.3820   -2.1170   -0.1140 C.3    48  ALA48       0.0290
     38  N          3.9700   -5.6610   -2.2940 N.3    50  LYS50      -0.1245
     39  CA         4.2720   -6.9690   -1.7960 C.3    50  LYS50       0.1561
     40  C          5.6320   -7.2980   -2.3390 C.2    50  LYS50       0.2260
     41  O          5.8500   -7.2410   -3.5460 O.2    50  LYS50      -0.2867
     42  CB         3.2290   -7.9520   -2.2920 C.3    50  LYS50       0.0271
     43  CG         3.6750   -9.4050   -2.3070 C.3    50  LYS50       0.0035
     44  CD         2.6030  -10.2730   -1.6860 C.3    50  LYS50       0.0206
     45  CE         2.5730  -11.6840   -2.2310 C.3    50  LYS50       0.1093
     46  NZ         1.3580  -12.3060   -1.6640 N.3    50  LYS50      -0.1314
     47  N          0.4800  -14.6710   -9.5030 N.3    61  GLU61      -0.1245
     48  CA        -0.4350  -13.6940   -8.9390 C.3    61  GLU61       0.1567
     49  C         -0.5830  -12.4330   -9.7970 C.2    61  GLU61       0.2260
     50  O         -1.6180  -11.8010   -9.7720 O.2    61  GLU61      -0.2867
     51  CB         0.0230  -13.3230   -7.5360 C.3    61  GLU61       0.0388
     52  CG        -0.8940  -12.3520   -6.8140 C.3    61  GLU61       0.1160
     53  CD        -0.5350  -12.1690   -5.3430 C.2    61  GLU61       0.3649
     54  OE1        0.6170  -12.4840   -4.9580 O.co2  61  GLU61      -0.2457
     55  OE2       -1.4160  -11.7150   -4.5740 O.co2  61  GLU61      -0.2457
     56  N         -4.2520  -11.2770  -11.6160 N.3    65  LEU65      -0.1245
     57  CA        -4.7910   -9.9640  -11.2480 C.3    65  LEU65       0.1561
     58  C         -5.0150   -9.0530  -12.4330 C.2    65  LEU65       0.2260
     59  O         -5.9510   -8.2740  -12.4140 O.2    65  LEU65      -0.2867
     60  CB        -3.9140   -9.2540  -10.2190 C.3    65  LEU65       0.0270
     61  CG        -3.9320   -9.8390   -8.7990 C.3    65  LEU65       0.0019
     62  CD1       -2.8850   -9.1170   -7.9550 C.3    65  LEU65       0.0001
     63  CD2       -5.2910   -9.7780   -8.1090 C.3    65  LEU65       0.0001
     64  N         -9.0400   -6.4810   -5.0530 N.3    74  MET74      -0.1245
     65  CA        -7.7350   -5.8480   -5.0650 C.3    74  MET74       0.1570
     66  C         -7.3000   -5.4030   -6.4380 C.2    74  MET74       0.2261
     67  O         -7.3900   -6.1650   -7.3750 O.2    74  MET74      -0.2867
     68  CB        -6.7160   -6.9000   -4.6040 C.3    74  MET74       0.0387
     69  CG        -5.8600   -6.5680   -3.3880 C.3    74  MET74       0.0595
     70  SD        -4.1300   -6.9860   -3.6470 S.3    74  MET74      -0.1393
     71  CE        -4.2560   -8.3360   -4.8280 C.3    74  MET74       0.0692
     72  N          5.1510   -6.2510   -6.3060 N.3    88  LEU88      -0.1245
     73  CA         3.8090   -6.1450   -6.7900 C.3    88  LEU88       0.1561
     74  C          3.1360   -4.9530   -6.1430 C.2    88  LEU88       0.2260
     75  O          2.6000   -5.0640   -5.0480 O.2    88  LEU88      -0.2867
     76  CB         3.0370   -7.4060   -6.4190 C.3    88  LEU88       0.0270
     77  CG         3.2510   -8.6470   -7.2940 C.3    88  LEU88       0.0019
     78  CD1        4.7040   -8.9580   -7.5720 C.3    88  LEU88       0.0001
     79  CD2        2.5870   -9.8120   -6.6010 C.3    88  LEU88       0.0001
     80  N          0.3130   -2.4550   -5.3560 N.3    90  THR90      -0.1203
     81  CA        -1.1330   -2.4880   -5.4070 C.3    90  THR90       0.1994
     82  C         -1.7340   -1.3670   -4.6210 C.2    90  THR90       0.2618
     83  O         -1.0770   -0.7070   -3.8580 O.2    90  THR90      -0.2717
     84  CB        -1.7080   -3.8130   -4.8840 C.3    90  THR90       0.1784
     85  OG1       -1.7730   -3.7820   -3.4450 O.3    90  THR90      -0.2211
     86  CG2       -0.8790   -4.9840   -5.3500 C.3    90  THR90       0.0376
     87  N         -3.0190   -1.1790   -4.8270 N.am   91  GLU91      -0.1965
     88  CA        -3.7520   -0.1330   -4.1880 C.3    91  GLU91       0.1733
     89  C         -3.7940   -0.4660   -2.7380 C.2    91  GLU91       0.2616
     90  O         -3.8540   -1.6230   -2.4130 O.2    91  GLU91      -0.2715
     91  CB        -5.1600   -0.1390   -4.7320 C.3    91  GLU91       0.0429
     92  CG        -6.0650    0.8740   -4.0950 C.3    91  GLU91       0.1163
     93  CD        -6.5460    1.8970   -5.0720 C.2    91  GLU91       0.3649
     94  OE1       -5.6940    2.3830   -5.8420 O.co2  91  GLU91      -0.2457
     95  OE2       -7.7630    2.2150   -5.0420 O.co2  91  GLU91      -0.2457
     96  N         -3.7410    0.5390   -1.8750 N.am   92  VAL92      -0.1963
     97  CA        -3.7080    0.3070   -0.4290 C.3    92  VAL92       0.1727
     98  C         -5.0680    0.6020    0.1800 C.2    92  VAL92       0.2616
     99  O         -5.6880    1.6260   -0.1180 O.2    92  VAL92      -0.2715
    100  CB        -2.5960    1.1120    0.3070 C.3    92  VAL92       0.0290
    101  CG1       -2.6970    2.6060    0.0190 C.3    92  VAL92       0.0023
    102  CG2       -2.6700    0.8700    1.8040 C.3    92  VAL92       0.0023
    103  N         -5.5160   -0.3130    1.0300 N.am   93  TYR93      -0.1974
    104  CA        -6.8180   -0.2330    1.6620 C.3    93  TYR93       0.1639
    105  C         -6.5840    0.0160    3.1120 C.2    93  TYR93       0.2290
    106  O         -5.8480   -0.7020    3.7670 O.2    93  TYR93      -0.2864
    107  CB        -7.6000   -1.5160    1.4050 C.3    93  TYR93       0.0560
    108  CG        -7.7270   -1.7560   -0.0840 C.ar   93  TYR93      -0.0198
    109  CD1       -8.4740   -0.9120   -0.8740 C.ar   93  TYR93      -0.0009
    110  CD2       -7.0450   -2.7730   -0.6930 C.ar   93  TYR93      -0.0009
    111  CE1       -8.5710   -1.1060   -2.2330 C.ar   93  TYR93       0.0417
    112  CE2       -7.1430   -2.9880   -2.0490 C.ar   93  TYR93       0.0417
    113  CZ        -7.9020   -2.1540   -2.8150 C.ar   93  TYR93       0.1957
    114  OH        -7.9770   -2.3750   -4.1700 O.3    93  TYR93      -0.2866
    115  N         -8.0780   -1.7470    7.1850 N.3    96  GLY96      -0.1210
    116  CA        -7.5440   -2.9420    7.7920 C.3    96  GLY96       0.1956
    117  C         -8.4410   -4.1550    7.6250 C.2    96  GLY96       0.2611
    118  O         -9.4420   -4.1310    6.8990 O.2    96  GLY96      -0.2717
    119  N         -8.0800   -5.2340    8.2990 N.am   97  GLU97      -0.1979
    120  CA        -8.7180   -6.5330    8.0820 C.3    97  GLU97       0.1602
    121  C        -10.0910   -6.6390    8.6810 C.2    97  GLU97       0.2287
    122  O        -10.3950   -6.0680    9.7390 O.2    97  GLU97      -0.2864
    123  CB        -7.8980   -7.6440    8.7080 C.3    97  GLU97       0.0415
    124  CG        -6.5160   -7.7810    8.1310 C.3    97  GLU97       0.1163
    125  CD        -5.7490   -8.8430    8.8540 C.2    97  GLU97       0.3649
    126  OE1       -6.3860   -9.6920    9.5230 O.co2  97  GLU97      -0.2457
    127  OE2       -4.5100   -8.8010    8.7820 O.co2  97  GLU97      -0.2457
    128  N         -8.8330  -12.4160    7.2190 N.3   140  GLU140     -0.1245
    129  CA        -7.4910  -11.8730    7.0470 C.3   140  GLU140      0.1567
    130  C         -7.3190  -11.3710    5.6120 C.2   140  GLU140      0.2260
    131  O         -6.6450  -10.3790    5.3540 O.2   140  GLU140     -0.2867
    132  CB        -6.4180  -12.9430    7.3910 C.3   140  GLU140      0.0388
    133  CG        -6.3130  -13.3460    8.8650 C.3   140  GLU140      0.1160
    134  CD        -7.1520  -14.5530    9.2690 C.2   140  GLU140      0.3649
    135  OE1       -8.3220  -14.6470    8.8230 O.co2 140  GLU140     -0.2457
    136  OE2       -6.6580  -15.3920   10.0690 O.co2 140  GLU140     -0.2457
    137  N        -10.1700   -6.8810    3.1450 N.3   143  LEU143     -0.1245
    138  CA        -9.9250   -5.5660    3.6800 C.3   143  LEU143      0.1561
    139  C        -11.0580   -4.6030    3.4280 C.2   143  LEU143      0.2260
    140  O        -11.6730   -4.5640    2.3480 O.2   143  LEU143     -0.2867
    141  CB        -8.6560   -4.9900    3.0830 C.3   143  LEU143      0.0270
    142  CG        -7.3690   -5.7990    3.2650 C.3   143  LEU143      0.0019
    143  CD1       -6.1780   -4.9980    2.7920 C.3   143  LEU143      0.0001
    144  CD2       -7.1180   -6.1810    4.7070 C.3   143  LEU143      0.0001
    145  N         -8.0830   -9.8380   -1.1340 N.3   156  ILE156     -0.1231
    146  CA        -6.6580   -9.6560   -1.4270 C.3   156  ILE156      0.1692
    147  C         -5.9270  -11.0000   -1.4540 C.2   156  ILE156      0.2592
    148  O         -6.5450  -12.0580   -1.3110 O.2   156  ILE156     -0.2718
    149  CB        -5.9950   -8.7160   -0.3970 C.3   156  ILE156      0.0266
    150  CG1       -6.1200   -9.3140    1.0080 C.3   156  ILE156      0.0019
    151  CG2       -6.6140   -7.3210   -0.4200 C.3   156  ILE156      0.0020
    152  CD1       -5.0650   -8.8150    1.9630 C.3   156  ILE156      0.0001
    153  N         -4.6160  -10.9630   -1.6510 N.am  157  ASP157     -0.1974
    154  CA        -3.7870  -12.1530   -1.5150 C.3   157  ASP157      0.1709
    155  C         -4.1960  -13.2180   -2.4750 C.2   157  ASP157      0.2293
    156  O         -4.7620  -14.2440   -2.1050 O.2   157  ASP157     -0.2864
    157  CB        -3.8530  -12.7120   -0.1020 C.3   157  ASP157      0.1436
    158  CG        -2.6060  -13.4530    0.2770 C.2   157  ASP157      0.3671
    159  OD1       -1.8660  -13.9000   -0.6260 O.co2 157  ASP157     -0.2456
    160  OD2       -2.3570  -13.5550    1.4980 O.co2 157  ASP157     -0.2456
@<TRIPOS>BOND
     1    58    59    2
     2    58    57    1
     3    56    57    1
     4    57    60    1
     5    60    61    1
     6    49    50    2
     7    49    48    1
     8    47    48    1
     9    48    51    1
    10    61    63    1
    11    61    62    1
    12    78    77    1
    13    51    52    1
    14    67    66    2
    15    77    79    1
    16    77    76    1
    17    52    53    1
    18    73    76    1
    19    73    72    1
    20    73    74    1
    21    66    65    1
    22    74    75    2
    23    94    93   ar
    24    81    80    1
    25    81    84    1
    26    81    82    1
    27    86    84    1
    28    53    54   ar
    29    53    55   ar
    30    93    95   ar
    31    93    92    1
    32    65    64    1
    33    65    68    1
    34    84    85    1
    35    71    70    1
    36    87    82   am
    37    87    88    1
    38    91    88    1
    39    91    92    1
    40    82    83    2
    41    68    69    1
    42    88    89    1
    43   114   113    1
    44    70    69    1
    45    41    40    2
    46   113   111   ar
    47   113   112   ar
    48    89    90    2
    49    89    96   am
    50    36    35    2
    51   155   156    2
    52   155   154    1
    53    40    39    1
    54    43    42    1
    55    43    44    1
    56    38    39    1
    57    42    39    1
    58   111   109   ar
    59    45    44    1
    60    45    46    1
    61   112   110   ar
    62    96    97    1
    63   153   154    1
    64   153   147   am
    65    35    34    1
    66    33    34    1
    67   154   157    1
    68   147   146    1
    69   147   148    2
    70   146   145    1
    71   146   149    1
    72   109   108   ar
    73    34    37    1
    74   110   108   ar
    75   159   158   ar
    76    97    98    1
    77    97   100    1
    78   151   149    1
    79   149   150    1
    80    99    98    2
    81   157   158    1
    82   108   107    1
    83   101   100    1
    84    98   103   am
    85   158   160   ar
    86   100   102    1
    87   150   152    1
    88   103   104    1
    89    31    30    1
    90   107   104    1
    91   104   105    1
    92    32    30    1
    93    27    30    1
    94    27    28    1
    95    27    26    1
    96   140   139    2
    97   143   142    1
    98    28    29    2
    99    24    23    1
   100    24    25    2
   101    23    22    1
   102   141   142    1
   103   141   138    1
   104   105   106    2
   105   137   138    1
   106   142   144    1
   107   139   138    1
   108     7     6    1
   109    22    15   am
   110    15    16    2
   111    15    14    1
   112     6     5    1
   113     6     8    1
   114   131   130    2
   115   130   129    1
   116    12    11    2
   117     5     2    1
   118    14    17    1
   119    14    13    1
   120    11    13   am
   121    11    10    1
   122    20    21    1
   123    20    19    1
   124    17    18    1
   125     1     2    1
   126   118   117    2
   127     9    10    2
   128     9     3    1
   129   129   128    1
   130   129   132    1
   131     2     3    1
   132   115   116    1
   133   132   133    1
   134    18    19    1
   135     3     4    2
   136   117   116    1
   137   117   119   am
   138   120   119    1
   139   120   121    1
   140   120   123    1
   141   124   123    1
   142   124   125    1
   143   121   122    2
   144   127   125   ar
   145   135   134   ar
   146   125   126   ar
   147   133   134    1
   148   134   136   ar
