@<TRIPOS>MOLECULE
tmp/4yutB00.pdb
 151 141 0 0 0
SMALL
GASTEIGER

@<TRIPOS>ATOM
      1  N         10.9060  -17.1460   -2.6610 N.3     7  TYR7       -0.1241
      2  CA         9.7140  -17.7590   -3.2550 C.3     7  TYR7        0.1605
      3  C          8.4640  -17.7380   -2.3540 C.2     7  TYR7        0.2264
      4  O          8.5680  -17.4860   -1.1560 O.2     7  TYR7       -0.2867
      5  CB        10.0150  -19.2000   -3.7460 C.3     7  TYR7        0.0534
      6  CG        10.0140  -20.2610   -2.6640 C.ar    7  TYR7       -0.0201
      7  CD1       11.1930  -20.6380   -2.0290 C.ar    7  TYR7       -0.0009
      8  CD2        8.8380  -20.9130   -2.3000 C.ar    7  TYR7       -0.0009
      9  CE1       11.1980  -21.6170   -1.0370 C.ar    7  TYR7        0.0417
     10  CE2        8.8270  -21.8790   -1.2970 C.ar    7  TYR7        0.0417
     11  CZ        10.0100  -22.2280   -0.6670 C.ar    7  TYR7        0.1957
     12  OH         9.9970  -23.1920    0.3120 O.3     7  TYR7       -0.2866
     13  N          8.7550  -28.8860    9.8670 N.3    23  ILE23      -0.1245
     14  CA         9.3080  -28.2290    8.6780 C.3    23  ILE23       0.1561
     15  C         10.4350  -27.2640    9.0880 C.2    23  ILE23       0.2260
     16  O         11.4900  -27.2380    8.4490 O.2    23  ILE23      -0.2867
     17  CB         8.1630  -27.5540    7.8630 C.3    23  ILE23       0.0252
     18  CG1        7.2850  -28.6300    7.1790 C.3    23  ILE23       0.0019
     19  CG2        8.6900  -26.5410    6.8320 C.3    23  ILE23       0.0019
     20  CD1        5.8160  -28.2780    7.0340 C.3    23  ILE23       0.0001
     21  N         13.9870  -29.5520   10.4740 N.3    26  ILE26      -0.1231
     22  CA        14.8510  -30.1310    9.4250 C.3    26  ILE26       0.1692
     23  C         15.6760  -29.0540    8.6990 C.2    26  ILE26       0.2592
     24  O         16.8730  -29.2460    8.4720 O.2    26  ILE26      -0.2718
     25  CB        14.0410  -31.0050    8.4050 C.3    26  ILE26       0.0266
     26  CG1       12.9600  -31.8780    9.0890 C.3    26  ILE26       0.0019
     27  CG2       14.9750  -31.8610    7.5280 C.3    26  ILE26       0.0020
     28  CD1       11.7310  -32.1960    8.2120 C.3    26  ILE26       0.0001
     29  N         15.0130  -27.9310    8.3450 N.am   27  SER27      -0.1952
     30  CA        15.5510  -26.7740    7.6250 C.3    27  SER27       0.1924
     31  C         16.8420  -26.2060    8.2150 C.2    27  SER27       0.2314
     32  O         17.8310  -26.0780    7.4950 O.2    27  SER27      -0.2863
     33  CB        14.4890  -25.6860    7.5110 C.3    27  SER27       0.2116
     34  OG        14.0080  -25.3130    8.7920 O.3    27  SER27      -0.2180
     35  N         19.9330  -29.2920    8.2330 N.3    30  LYS30      -0.1231
     36  CA        20.5520  -29.6000    6.9390 C.3    30  LYS30       0.1693
     37  C         21.3900  -28.4610    6.3360 C.2    30  LYS30       0.2592
     38  O         22.3970  -28.7390    5.6810 O.2    30  LYS30      -0.2718
     39  CB        19.4950  -30.0780    5.9370 C.3    30  LYS30       0.0285
     40  CG        19.0270  -31.5120    6.1580 C.3    30  LYS30       0.0035
     41  CD        17.9370  -31.8960    5.1640 C.3    30  LYS30       0.0206
     42  CE        17.6650  -33.3800    5.1260 C.3    30  LYS30       0.1093
     43  NZ        18.6540  -34.1100    4.2850 N.3    30  LYS30      -0.1314
     44  N         20.9810  -27.1930    6.5640 N.am   31  ASN31      -0.1974
     45  CA        21.6610  -25.9870    6.0690 C.3    31  ASN31       0.1688
     46  C         23.0890  -25.8330    6.6120 C.2    31  ASN31       0.2292
     47  O         23.9300  -25.2280    5.9450 O.2    31  ASN31      -0.2864
     48  CB        20.8370  -24.7280    6.3950 C.3    31  ASN31       0.1181
     49  CG        19.6490  -24.4640    5.4910 C.2    31  ASN31       0.2629
     50  OD1       19.0890  -25.3630    4.8490 O.2    31  ASN31      -0.2716
     51  ND2       19.2020  -23.2190    5.4630 N.am   31  ASN31      -0.0877
     52  N         12.6000  -18.0980    6.9050 N.3    40  LEU40      -0.1245
     53  CA        11.2870  -18.7190    6.6500 C.3    40  LEU40       0.1561
     54  C         10.1810  -17.8910    7.3470 C.2    40  LEU40       0.2260
     55  O         10.4010  -17.4050    8.4560 O.2    40  LEU40      -0.2867
     56  CB        11.3160  -20.1650    7.2220 C.3    40  LEU40       0.0270
     57  CG        10.4630  -21.3210    6.6260 C.3    40  LEU40       0.0019
     58  CD1        9.0000  -21.2170    6.9820 C.3    40  LEU40       0.0001
     59  CD2       10.7120  -21.5450    5.1480 C.3    40  LEU40       0.0001
     60  N          3.5790  -19.8140    2.5690 N.3    47  PHE47      -0.1241
     61  CA         4.9980  -19.8970    2.9220 C.3    47  PHE47       0.1605
     62  C          5.7800  -18.7910    2.2050 C.2    47  PHE47       0.2264
     63  O          5.4640  -18.4620    1.0610 O.2    47  PHE47      -0.2867
     64  CB         5.5870  -21.2640    2.5330 C.3    47  PHE47       0.0534
     65  CG         5.5300  -22.3380    3.5970 C.ar   47  PHE47      -0.0203
     66  CD1        6.2500  -22.2080    4.7800 C.ar   47  PHE47      -0.0042
     67  CD2        4.8080  -23.5080    3.3890 C.ar   47  PHE47      -0.0042
     68  CE1        6.2010  -23.2030    5.7590 C.ar   47  PHE47      -0.0003
     69  CE2        4.7730  -24.5100    4.3610 C.ar   47  PHE47      -0.0003
     70  CZ         5.4660  -24.3500    5.5400 C.ar   47  PHE47      -0.0000
     71  N         10.0220  -17.6510    1.7490 N.3    49  GLN49      -0.1245
     72  CA        11.3840  -18.0780    2.0680 C.3    49  GLN49       0.1566
     73  C         12.4740  -17.3980    1.2530 C.2    49  GLN49       0.2260
     74  O         12.4470  -17.4240    0.0230 O.2    49  GLN49      -0.2867
     75  CB        11.5080  -19.6160    1.9570 C.3    49  GLN49       0.0367
     76  CG        12.8840  -20.2070    2.3190 C.3    49  GLN49       0.0905
     77  CD        12.9380  -21.7190    2.2480 C.2    49  GLN49       0.2608
     78  OE1       11.9310  -22.4050    2.0560 O.2    49  GLN49      -0.2717
     79  NE2       14.1160  -22.2820    2.4380 N.am   49  GLN49      -0.0878
     80  N         16.7370  -17.4370    0.7020 N.3    51  LEU51      -0.1245
     81  CA        17.8500  -18.3900    0.7790 C.3    51  LEU51       0.1561
     82  C         19.1210  -17.7750    0.2180 C.2    51  LEU51       0.2260
     83  O         19.0570  -17.0790   -0.7950 O.2    51  LEU51      -0.2867
     84  CB        17.5270  -19.6710   -0.0080 C.3    51  LEU51       0.0270
     85  CG        16.6970  -20.7300    0.6960 C.3    51  LEU51       0.0019
     86  CD1       15.9310  -21.5560   -0.3080 C.3    51  LEU51       0.0001
     87  CD2       17.5680  -21.6340    1.5500 C.3    51  LEU51       0.0001
     88  N         18.8480  -27.6940   -3.1900 N.3    61  ILE61      -0.1245
     89  CA        17.8800  -27.4940   -2.1060 C.3    61  ILE61       0.1561
     90  C         16.4830  -27.1950   -2.6550 C.2    61  ILE61       0.2260
     91  O         15.5300  -27.8620   -2.2580 O.2    61  ILE61      -0.2867
     92  CB        18.3760  -26.4270   -1.0830 C.3    61  ILE61       0.0252
     93  CG1       19.7400  -26.8310   -0.4810 C.3    61  ILE61       0.0019
     94  CG2       17.3420  -26.1820    0.0310 C.3    61  ILE61       0.0019
     95  CD1       20.6490  -25.6870   -0.1240 C.3    61  ILE61       0.0001
     96  N         14.4860  -30.1800   -4.0780 N.3    64  ARG64      -0.1231
     97  CA        13.9620  -31.0410   -3.0170 C.3    64  ARG64       0.1694
     98  C         12.6090  -30.5300   -2.5000 C.2    64  ARG64       0.2591
     99  O         11.6810  -31.3240   -2.3220 O.2    64  ARG64      -0.2718
    100  CB        14.9930  -31.1380   -1.8760 C.3    64  ARG64       0.0321
    101  CG        14.8850  -32.3950   -1.0270 C.3    64  ARG64       0.0489
    102  CD        16.0500  -32.5170   -0.0610 C.3    64  ARG64       0.2205
    103  NE        17.2470  -33.0680   -0.7020 N.pl3  64  ARG64      -0.0865
    104  CZ        18.4120  -32.4350   -0.7990 C.cat  64  ARG64       0.5346
    105  NH1       18.5610  -31.2180   -0.2860 N.pl3  64  ARG64       0.1354
    106  NH2       19.4420  -33.0180   -1.3990 N.pl3  64  ARG64       0.1354
    107  N         12.5020  -29.2000   -2.2860 N.am   65  ILE65      -0.1980
    108  CA        11.3040  -28.5070   -1.7890 C.3    65  ILE65       0.1595
    109  C         10.1060  -28.6870   -2.7500 C.2    65  ILE65       0.2287
    110  O          8.9610  -28.7910   -2.2980 O.2    65  ILE65      -0.2864
    111  CB        11.6110  -27.0080   -1.4630 C.3    65  ILE65       0.0276
    112  CG1       12.9030  -26.8610   -0.6210 C.3    65  ILE65       0.0022
    113  CG2       10.4350  -26.3450   -0.7420 C.3    65  ILE65       0.0022
    114  CD1       13.6190  -25.5110   -0.7230 C.3    65  ILE65       0.0001
    115  N          7.7000  -31.9700   -2.0660 N.3    68  ASP68      -0.1239
    116  CA         6.8440  -32.0380   -0.8720 C.3    68  ASP68       0.1674
    117  C          5.3540  -32.0530   -1.2100 C.2    68  ASP68       0.2266
    118  O          4.9140  -31.3050   -2.0840 O.2    68  ASP68      -0.2867
    119  CB         7.1800  -30.9020    0.1080 C.3    68  ASP68       0.1410
    120  CG         8.6060  -30.9370    0.6350 C.2    68  ASP68       0.3668
    121  OD1        9.5470  -31.0190   -0.1910 O.co2  68  ASP68      -0.2456
    122  OD2        8.7850  -30.8420    1.8670 O.co2  68  ASP68      -0.2456
    123  N          2.7200  -31.1770    0.7210 N.3    70  ARG70      -0.1231
    124  CA         2.0330  -30.0050    1.2920 C.3    70  ARG70       0.1694
    125  C          2.3180  -28.6940    0.5320 C.2    70  ARG70       0.2592
    126  O          1.8370  -27.6320    0.9370 O.2    70  ARG70      -0.2718
    127  CB         2.3770  -29.8520    2.7950 C.3    70  ARG70       0.0321
    128  CG         3.8770  -29.7100    3.1150 C.3    70  ARG70       0.0489
    129  CD         4.5010  -31.0300    3.5400 C.3    70  ARG70       0.2205
    130  NE         5.9540  -30.9340    3.6920 N.pl3  70  ARG70      -0.0865
    131  CZ         6.6230  -31.3070    4.7800 C.cat  70  ARG70       0.5346
    132  NH1        5.9770  -31.8060    5.8270 N.pl3  70  ARG70       0.1354
    133  NH2        7.9440  -31.1850    4.8290 N.pl3  70  ARG70       0.1354
    134  N          3.0930  -28.7800   -0.5660 N.am   71  HIS71      -0.1976
    135  CA         3.5050  -27.6480   -1.3840 C.3    71  HIS71       0.1656
    136  C          2.8750  -27.6180   -2.7700 C.2    71  HIS71       0.2291
    137  O          2.9610  -28.5930   -3.5180 O.2    71  HIS71      -0.2864
    138  CB         5.0340  -27.6170   -1.4910 C.3    71  HIS71       0.0771
    139  CG         5.6940  -26.7280   -0.4930 C.ar   71  HIS71       0.0820
    140  ND1        6.9740  -26.2550   -0.6930 N.ar   71  HIS71      -0.2267
    141  CD2        5.2220  -26.2320    0.6710 C.ar   71  HIS71       0.1154
    142  CE1        7.2380  -25.4860    0.3460 C.ar   71  HIS71       0.1986
    143  NE2        6.2180  -25.4470    1.1950 N.ar   71  HIS71      -0.2212
    144  N         17.8070  -20.5520    9.2300 N.3    93  MET93      -0.1245
    145  CA        16.4020  -20.5190    8.8050 C.3    93  MET93       0.1570
    146  C         15.4940  -20.2000   10.0010 C.2    93  MET93       0.2261
    147  O         14.7820  -21.0700   10.5150 O.2    93  MET93      -0.2867
    148  CB        15.9600  -21.7940    8.0600 C.3    93  MET93       0.0387
    149  CG        14.6770  -21.5960    7.2700 C.3    93  MET93       0.0595
    150  SD        14.7630  -22.0440    5.5230 S.3    93  MET93      -0.1393
    151  CE        15.8700  -20.7880    4.9150 C.3    93  MET93       0.0692
@<TRIPOS>BOND
     1    96    97    1
     2     5     2    1
     3     5     6    1
     4   137   136    2
     5     2     1    1
     6     2     3    1
     7    88    89    1
     8    97    98    1
     9    97   100    1
    10   136   135    1
    11   109   110    2
    12   109   108    1
    13     6     8   ar
    14     6     7   ar
    15    90    91    2
    16    90    89    1
    17    98    99    2
    18    98   107   am
    19     3     4    2
    20     8    10   ar
    21   107   108    1
    22    89    92    1
    23   118   117    2
    24   115   116    1
    25     7     9   ar
    26   100   101    1
    27   108   111    1
    28   138   135    1
    29   138   139    1
    30   111   113    1
    31   111   112    1
    32   106   104    1
    33   135   134    1
    34    10    11   ar
    35   117   116    1
    36    92    93    1
    37    92    94    1
    38     9    11   ar
    39   101   102    1
    40   116   119    1
    41   104   103    2
    42   104   105    1
    43    83    82    2
    44   114   112    1
    45   103   102    1
    46   140   139   ar
    47   140   142   ar
    48    11    12    1
    49   134   125   am
    50   139   141   ar
    51    93    95    1
    52    86    85    1
    53   121   120   ar
    54    84    85    1
    55    84    81    1
    56    74    73    2
    57   119   120    1
    58    82    81    1
    59   142   143   ar
    60   125   126    2
    61   125   124    1
    62   120   122   ar
    63   141   143   ar
    64    85    87    1
    65    80    81    1
    66   123   124    1
    67    63    62    2
    68    73    72    1
    69   124   127    1
    70    71    72    1
    71    75    72    1
    72    75    76    1
    73    78    77    2
    74    62    61    1
    75    77    76    1
    76    77    79   am
    77    64    61    1
    78    64    65    1
    79    60    61    1
    80   127   128    1
    81   128   129    1
    82    67    65   ar
    83    67    69   ar
    84   129   130    1
    85    65    66   ar
    86   130   131    2
    87    43    42    1
    88    69    70   ar
    89    66    68   ar
    90   131   133    1
    91   131   132    1
    92    50    49    2
    93   151   150    1
    94    42    41    1
    95    59    57    1
    96    41    40    1
    97    51    49   am
    98    49    48    1
    99   150   149    1
   100    70    68   ar
   101    38    37    2
   102    39    40    1
   103    39    36    1
   104    47    46    2
   105    45    48    1
   106    45    44    1
   107    45    46    1
   108    37    44   am
   109    37    36    1
   110    57    58    1
   111    57    56    1
   112    53    52    1
   113    53    56    1
   114    53    54    1
   115    19    17    1
   116    36    35    1
   117    20    18    1
   118    18    17    1
   119   149   148    1
   120    54    55    2
   121    32    31    2
   122    33    30    1
   123    33    34    1
   124    27    25    1
   125    30    31    1
   126    30    29    1
   127    17    14    1
   128   148   145    1
   129    28    26    1
   130    29    23   am
   131    25    26    1
   132    25    22    1
   133    16    15    2
   134    24    23    2
   135    14    15    1
   136    14    13    1
   137    23    22    1
   138   145   144    1
   139   145   146    1
   140    22    21    1
   141   146   147    2
