@<TRIPOS>MOLECULE
tmp/4yuuV25.pdb
 161 159 0 0 0
SMALL
GASTEIGER

@<TRIPOS>ATOM
      1  N        157.6900   91.3130   73.9560 N.3   183  ALA183     -0.1231
      2  CA       156.3790   91.0890   73.3540 C.3   183  ALA183      0.1694
      3  C        156.5290   90.8400   71.8570 C.2   183  ALA183      0.2592
      4  O        156.8140   91.7590   71.0900 O.2   183  ALA183     -0.2718
      5  CB       155.4610   92.2740   73.6130 C.3   183  ALA183      0.0304
      6  N        156.3350   89.5910   71.4470 N.am  184  TRP184     -0.1962
      7  CA       156.5990   89.1910   70.0700 C.3   184  TRP184      0.1771
      8  C        155.4060   89.4010   69.1420 C.2   184  TRP184      0.2620
      9  O        155.5690   89.4910   67.9240 O.2   184  TRP184     -0.2715
     10  CB       157.0350   87.7290   70.0300 C.3   184  TRP184      0.0590
     11  CG       158.2740   87.4720   70.8170 C.ar  184  TRP184      0.0006
     12  CD1      158.3600   86.8560   72.0280 C.ar  184  TRP184      0.0946
     13  CD2      159.6090   87.8390   70.4560 C.ar  184  TRP184      0.0152
     14  NE1      159.6690   86.8080   72.4430 N.ar  184  TRP184     -0.2442
     15  CE2      160.4560   87.4070   71.4920 C.ar  184  TRP184      0.0810
     16  CE3      160.1710   88.4890   69.3540 C.ar  184  TRP184      0.0012
     17  CZ2      161.8340   87.6020   71.4620 C.ar  184  TRP184      0.0191
     18  CZ3      161.5370   88.6820   69.3230 C.ar  184  TRP184      0.0001
     19  CH2      162.3540   88.2400   70.3700 C.ar  184  TRP184      0.0015
     20  N        154.2120   89.4790   69.7160 N.am  185  GLY185     -0.1954
     21  CA       153.0150   89.7000   68.9280 C.3   185  GLY185      0.1869
     22  C        152.9310   91.1150   68.3880 C.2   185  GLY185      0.2309
     23  O        153.8640   91.9020   68.5460 O.2   185  GLY185     -0.2863
     24  N        153.5800   94.3010   70.4510 N.3   188  GLY188     -0.1210
     25  CA       154.9380   94.7760   70.6300 C.3   188  GLY188      0.1956
     26  C        155.1970   96.0460   69.8410 C.2   188  GLY188      0.2612
     27  O        156.1660   96.7650   70.1010 O.2   188  GLY188     -0.2717
     28  N        154.3260   96.3260   68.8730 N.am  189  PHE189     -0.1962
     29  CA       154.4510   97.5320   68.0620 C.3   189  PHE189      0.1771
     30  C        153.6280   98.6710   68.6490 C.2   189  PHE189      0.2620
     31  O        153.4840   99.7300   68.0410 O.2   189  PHE189     -0.2715
     32  CB       154.0420   97.2500   66.6160 C.3   189  PHE189      0.0574
     33  CG       154.8730   96.1890   65.9600 C.ar  189  PHE189     -0.0200
     34  CD1      156.1800   96.4520   65.5830 C.ar  189  PHE189     -0.0042
     35  CD2      154.3570   94.9240   65.7380 C.ar  189  PHE189     -0.0042
     36  CE1      156.9550   95.4780   64.9900 C.ar  189  PHE189     -0.0003
     37  CE2      155.1280   93.9460   65.1440 C.ar  189  PHE189     -0.0003
     38  CZ       156.4300   94.2240   64.7710 C.ar  189  PHE189     -0.0000
     39  N        153.0880   98.4390   69.8410 N.am  190  ASN190     -0.1959
     40  CA       152.4750   99.5030   70.6200 C.3   190  ASN190      0.1804
     41  C        153.5770  100.3310   71.2670 C.2   190  ASN190      0.2463
     42  O        154.3460   99.8150   72.0750 O.2   190  ASN190     -0.2730
     43  CB       151.5380   98.9280   71.6830 C.3   190  ASN190      0.1195
     44  CG       150.6310   99.9790   72.3040 C.2   190  ASN190      0.2630
     45  OD1      150.9610  101.1650   72.3400 O.2   190  ASN190     -0.2716
     46  ND2      149.4790   99.5410   72.8020 N.am  190  ASN190     -0.0877
     47  N        153.6610  101.6200   70.9040 N.am  191  PRO191     -0.2727
     48  CA       154.7170  102.5070   71.4040 C.3   191  PRO191      0.1402
     49  C        154.7080  102.6580   72.9250 C.2   191  PRO191      0.2269
     50  O        155.7120  103.0850   73.4950 O.2   191  PRO191     -0.2865
     51  CB       154.4050  103.8450   70.7230 C.3   191  PRO191      0.0296
     52  CG       152.9690  103.7580   70.3300 C.3   191  PRO191      0.0237
     53  CD       152.7460  102.3180   69.9850 C.3   191  PRO191      0.0939
     54  N        157.7900   95.5640   73.8450 N.3   196  GLY196     -0.1210
     55  CA       158.2090   95.8860   72.4970 C.3   196  GLY196      0.1956
     56  C        159.6900   96.1880   72.4290 C.2   196  GLY196      0.2611
     57  O        160.4150   95.5090   71.6950 O.2   196  GLY196     -0.2717
     58  N        160.1400   97.1190   73.2760 N.am  197  ILE197     -0.1979
     59  CA       161.5460   97.5230   73.3280 C.3   197  ILE197      0.1595
     60  C        162.4230   96.2810   73.2450 C.2   197  ILE197      0.2287
     61  O        163.1090   96.0540   72.2260 O.2   197  ILE197     -0.2864
     62  CB       161.8760   98.3010   74.6090 C.3   197  ILE197      0.0276
     63  CG1      160.9160   99.4730   74.7840 C.3   197  ILE197      0.0022
     64  CG2      163.2960   98.7690   74.5950 C.3   197  ILE197      0.0022
     65  CD1      161.1740  100.3000   76.0350 C.3   197  ILE197      0.0001
     66  N        161.8650   93.0620   72.6110 N.3   199  SER199     -0.1202
     67  CA       161.6820   92.2320   71.4270 C.3   199  SER199      0.2020
     68  C        162.3840   92.9270   70.2720 C.2   199  SER199      0.2618
     69  O        163.2290   92.3110   69.6020 O.2   199  SER199     -0.2717
     70  CB       160.1970   91.9830   71.1350 C.3   199  SER199      0.2103
     71  OG       159.4450   93.1720   71.1660 O.3   199  SER199     -0.2182
     72  N        162.0850   94.2190   70.1020 N.am  200  HIS200     -0.1975
     73  CA       162.6240   94.9890   68.9920 C.3   200  HIS200      0.1656
     74  C        164.0860   94.6760   68.8630 C.2   200  HIS200      0.2291
     75  O        164.5210   94.0660   67.8740 O.2   200  HIS200     -0.2864
     76  CB       162.4650   96.4900   69.1980 C.3   200  HIS200      0.0771
     77  CG       163.4230   97.3060   68.3740 C.ar  200  HIS200      0.0820
     78  ND1      163.3400   97.3940   67.0050 N.ar  200  HIS200     -0.2267
     79  CD2      164.5010   98.0530   68.7290 C.ar  200  HIS200      0.1154
     80  CE1      164.3050   98.1690   66.5440 C.ar  200  HIS200      0.1986
     81  NE2      165.0290   98.5780   67.5700 N.ar  200  HIS200     -0.2212
     82  N        165.0350   91.1470   67.9600 N.3   203  ALA203     -0.1231
     83  CA       164.7130   90.8560   66.5720 C.3   203  ALA203      0.1694
     84  C        165.6550   91.6150   65.6560 C.2   203  ALA203      0.2591
     85  O        166.3780   90.9770   64.8230 O.2   203  ALA203     -0.2718
     86  CB       163.2530   91.1900   66.2690 C.3   203  ALA203      0.0304
     87  N        165.7080   92.9420   65.8730 N.am  204  ALA204     -0.1980
     88  CA       166.4890   93.8030   64.9890 C.3   204  ALA204      0.1597
     89  C        167.9120   93.2890   65.0030 C.2   204  ALA204      0.2287
     90  O        168.5020   93.0190   63.9380 O.2   204  ALA204     -0.2864
     91  CB       166.4240   95.2460   65.4140 C.3   204  ALA204      0.0319
     92  N        168.4340   90.2320   62.9050 N.3   207  VAL207     -0.1231
     93  CA       168.3990   90.5440   61.4850 C.3   207  VAL207      0.1692
     94  C        169.6850   91.2670   61.1020 C.2   207  VAL207      0.2592
     95  O        170.3400   90.8990   60.1130 O.2   207  VAL207     -0.2718
     96  CB       167.1560   91.3860   61.1090 C.3   207  VAL207      0.0266
     97  CG1      167.2770   91.8810   59.6840 C.3   207  VAL207      0.0020
     98  CG2      165.9060   90.5630   61.3020 C.3   207  VAL207      0.0020
     99  N        170.0790   92.2380   61.9260 N.am  208  GLY208     -0.1957
    100  CA       171.2960   92.9800   61.6740 C.3   208  GLY208      0.1869
    101  C        172.4520   92.0220   61.4890 C.2   208  GLY208      0.2309
    102  O        173.1910   92.1120   60.5080 O.2   208  GLY208     -0.2863
    103  N        169.2980  112.1010   61.0260 N.3   245  PHE245     -0.1227
    104  CA       168.1850  113.0420   61.1830 C.3   245  PHE245      0.1736
    105  C        166.8440  112.3000   61.1590 C.2   245  PHE245      0.2595
    106  O        165.8630  112.7600   61.7660 O.2   245  PHE245     -0.2718
    107  CB       168.2360  114.1750   60.1340 C.3   245  PHE245      0.0547
    108  CG       167.6330  113.8410   58.7850 C.ar  245  PHE245     -0.0202
    109  CD1      166.2580  113.8440   58.5910 C.ar  245  PHE245     -0.0042
    110  CD2      168.4490  113.6250   57.6870 C.ar  245  PHE245     -0.0042
    111  CE1      165.7130  113.5630   57.3470 C.ar  245  PHE245     -0.0003
    112  CE2      167.9070  113.3540   56.4390 C.ar  245  PHE245     -0.0003
    113  CZ       166.5410  113.3220   56.2720 C.ar  245  PHE245     -0.0000
    114  N        166.7980  111.1560   60.4780 N.am  246  PHE246     -0.1976
    115  CA       165.6170  110.2970   60.5700 C.3   246  PHE246      0.1639
    116  C        165.3750  109.8980   62.0300 C.2   246  PHE246      0.2290
    117  O        164.2830  110.1160   62.5940 O.2   246  PHE246     -0.2864
    118  CB       165.7850  109.0580   59.6850 C.3   246  PHE246      0.0560
    119  CG       164.7100  108.0220   59.8690 C.ar  246  PHE246     -0.0200
    120  CD1      163.3730  108.3620   59.7650 C.ar  246  PHE246     -0.0042
    121  CD2      165.0400  106.7020   60.1260 C.ar  246  PHE246     -0.0042
    122  CE1      162.3840  107.4080   59.9310 C.ar  246  PHE246     -0.0003
    123  CE2      164.0580  105.7450   60.2890 C.ar  246  PHE246     -0.0003
    124  CZ       162.7290  106.0980   60.1920 C.ar  246  PHE246     -0.0000
    125  N        164.2240  112.8470   64.1880 N.3   249  PHE249     -0.1227
    126  CA       162.7930  113.1140   64.0610 C.3   249  PHE249      0.1736
    127  C        161.9940  112.0920   64.8550 C.2   249  PHE249      0.2595
    128  O        161.0180  112.4420   65.5350 O.2   249  PHE249     -0.2718
    129  CB       162.3520  113.1040   62.5960 C.3   249  PHE249      0.0547
    130  CG       162.5480  114.4150   61.8960 C.ar  249  PHE249     -0.0202
    131  CD1      161.9650  115.5700   62.3900 C.ar  249  PHE249     -0.0042
    132  CD2      163.3060  114.4920   60.7370 C.ar  249  PHE249     -0.0042
    133  CE1      162.1410  116.7810   61.7460 C.ar  249  PHE249     -0.0003
    134  CE2      163.4830  115.6990   60.0870 C.ar  249  PHE249     -0.0003
    135  CZ       162.9010  116.8450   60.5920 C.ar  249  PHE249     -0.0000
    136  N        162.4170  110.8330   64.7820 N.am  250  VAL250     -0.1966
    137  CA       161.7280  109.7900   65.5340 C.3   250  VAL250      0.1727
    138  C        161.7340  110.0480   67.0470 C.2   250  VAL250      0.2616
    139  O        160.6740  110.0390   67.6830 O.2   250  VAL250     -0.2715
    140  CB       162.3320  108.4060   65.2590 C.3   250  VAL250      0.0290
    141  CG1      161.7800  107.3820   66.2410 C.3   250  VAL250      0.0023
    142  CG2      162.0370  107.9880   63.8320 C.3   250  VAL250      0.0023
    143  N        162.9100  110.2970   67.6240 N.am  251  VAL251     -0.1977
    144  CA       162.9920  110.5070   69.0730 C.3   251  VAL251      0.1596
    145  C        162.3050  111.8030   69.5080 C.2   251  VAL251      0.2287
    146  O        161.7800  111.8880   70.6250 O.2   251  VAL251     -0.2864
    147  CB       164.4570  110.5140   69.5830 C.3   251  VAL251      0.0276
    148  CG1      165.0950  109.1480   69.3850 C.3   251  VAL251      0.0022
    149  CG2      165.2750  111.5980   68.9030 C.3   251  VAL251      0.0022
    150  N        158.5580  110.6690   69.5810 N.3   254  THR254     -0.1218
    151  CA       158.2620  109.8390   70.7440 C.3   254  THR254      0.1862
    152  C        158.3610  110.6350   72.0390 C.2   254  THR254      0.2287
    153  O        157.6280  110.3710   72.9870 O.2   254  THR254     -0.2866
    154  CB       159.1990  108.6190   70.8380 C.3   254  THR254      0.1770
    155  OG1      160.5590  109.0580   70.9770 O.3   254  THR254     -0.2211
    156  CG2      159.0630  107.7540   69.5950 C.3   254  THR254      0.0375
    157  N        155.8990  107.8500   75.0230 N.3   259  ALA259     -0.1245
    158  CA       156.1870  106.4610   74.6910 C.3   259  ALA259      0.1562
    159  C        156.5790  105.6970   75.9480 C.2   259  ALA259      0.2260
    160  O        156.6920  106.2760   77.0300 O.2   259  ALA259     -0.2867
    161  CB       157.2960  106.3760   73.6460 C.3   259  ALA259      0.0290
@<TRIPOS>BOND
     1   113   112   ar
     2   113   111   ar
     3   112   110   ar
     4   111   109   ar
     5   110   108   ar
     6   109   108   ar
     7   108   107    1
     8    97    96    1
     9   118   119    1
    10   118   115    1
    11   120   119   ar
    12   120   122   ar
    13   119   121   ar
    14   122   124   ar
    15   134   135   ar
    16   134   132   ar
    17    95    94    2
    18   121   123   ar
    19   107   104    1
    20   124   123   ar
    21   114   115    1
    22   114   105   am
    23   102   101    2
    24   115   116    1
    25   135   133   ar
    26   132   130   ar
    27   103   104    1
    28    94    93    1
    29    94    99   am
    30    96    98    1
    31    96    93    1
    32   105   104    1
    33   105   106    2
    34    93    92    1
    35   101   100    1
    36   100    99    1
    37   133   131   ar
    38   130   131   ar
    39   130   129    1
    40   116   117    2
    41   129   126    1
    42   142   140    1
    43    90    89    2
    44   126   125    1
    45   126   127    1
    46    38    36   ar
    47    38    37   ar
    48   136   127   am
    49   136   137    1
    50    85    84    2
    51   127   128    2
    52    88    89    1
    53    88    91    1
    54    88    87    1
    55    36    34   ar
    56    37    35   ar
    57   140   137    1
    58   140   141    1
    59   137   138    1
    60    34    33   ar
    61    84    87   am
    62    84    83    1
    63    35    33   ar
    64    33    32    1
    65    86    83    1
    66    80    78   ar
    67    80    81   ar
    68    83    82    1
    69    32    29    1
    70    78    77   ar
    71   138   143   am
    72   138   139    2
    73    81    79   ar
    74   143   144    1
    75    75    74    2
    76     9     8    2
    77    31    30    2
    78    29    30    1
    79    29    28    1
    80    77    79   ar
    81    77    76    1
    82    22    23    2
    83    22    21    1
    84    30    39   am
    85    74    73    1
    86    28    26   am
    87   149   147    1
    88    21    20    1
    89    73    76    1
    90    73    72    1
    91   144   145    1
    92   144   147    1
    93     8    20   am
    94     8     7    1
    95    18    16   ar
    96    18    19   ar
    97    16    13   ar
    98   148   147    1
    99   145   146    2
   100   150   151    1
   101   156   154    1
   102    69    68    2
   103    26    27    2
   104    26    25    1
   105    39    40    1
   106    53    52    1
   107    53    47    1
   108    10     7    1
   109    10    11    1
   110     7     6    1
   111    72    68   am
   112    68    67    1
   113    52    51    1
   114    19    17   ar
   115    24    25    1
   116    13    11   ar
   117    13    15   ar
   118    40    41    1
   119    40    43    1
   120    51    48    1
   121   151   154    1
   122   151   152    1
   123    11    12   ar
   124   154   155    1
   125    47    41   am
   126    47    48    1
   127     4     3    2
   128    70    71    1
   129    70    67    1
   130    41    42    2
   131    48    49    1
   132    67    66    1
   133     6     3   am
   134    17    15   ar
   135    15    14   ar
   136    43    44    1
   137    57    56    2
   138     3     2    1
   139    12    14   ar
   140   152   153    2
   141    61    60    2
   142    44    45    2
   143    44    46   am
   144    56    55    1
   145    56    58   am
   146    55    54    1
   147    49    50    2
   148    60    59    1
   149    58    59    1
   150    59    62    1
   151     2     5    1
   152     2     1    1
   153   161   158    1
   154    64    62    1
   155    62    63    1
   156   158   157    1
   157   158   159    1
   158    63    65    1
   159   159   160    2
