@<TRIPOS>MOLECULE
tmp/4yuuV08.pdb
 106 103 0 0 0
SMALL
GASTEIGER

@<TRIPOS>ATOM
      1  N        190.4680  109.1500   62.1820 N.3    19  ILE19      -0.1245
      2  CA       190.2320  108.3830   63.3980 C.3    19  ILE19       0.1561
      3  C        190.5970  109.2040   64.6320 C.2    19  ILE19       0.2260
      4  O        189.8590  109.2140   65.6140 O.2    19  ILE19      -0.2867
      5  CB       191.0340  107.0660   63.3920 C.3    19  ILE19       0.0252
      6  CG1      190.4930  106.1240   62.3140 C.3    19  ILE19       0.0019
      7  CG2      190.9770  106.3880   64.7560 C.3    19  ILE19       0.0019
      8  CD1      191.2630  104.8290   62.1890 C.3    19  ILE19       0.0001
      9  N        188.1180  110.4430   67.5580 N.3    23  LEU23      -0.1245
     10  CA       188.4420  110.1450   68.9400 C.3    23  LEU23       0.1561
     11  C        188.3260  111.4050   69.7770 C.2    23  LEU23       0.2260
     12  O        187.8300  111.3650   70.9000 O.2    23  LEU23      -0.2867
     13  CB       189.8470  109.5570   69.0530 C.3    23  LEU23       0.0270
     14  CG       190.0020  108.0790   68.6940 C.3    23  LEU23       0.0019
     15  CD1      191.4660  107.7190   68.5360 C.3    23  LEU23       0.0001
     16  CD2      189.3540  107.2180   69.7620 C.3    23  LEU23       0.0001
     17  N        191.0340  108.8380   78.2950 N.3   105  LEU105     -0.1231
     18  CA       191.6460  107.7770   77.5010 C.3   105  LEU105      0.1693
     19  C        191.4720  108.0160   76.0010 C.2   105  LEU105      0.2591
     20  O        192.4270  107.8810   75.2250 O.2   105  LEU105     -0.2718
     21  CB       191.0640  106.4170   77.8910 C.3   105  LEU105      0.0284
     22  CG       191.4330  105.9520   79.3020 C.3   105  LEU105      0.0019
     23  CD1      190.7860  104.6160   79.6210 C.3   105  LEU105      0.0001
     24  CD2      192.9420  105.8660   79.4480 C.3   105  LEU105      0.0001
     25  N        190.2560  108.3860   75.6000 N.am  106  LEU106     -0.1980
     26  CA       189.9820  108.7020   74.1990 C.3   106  LEU106      0.1596
     27  C        190.8140  109.8980   73.7390 C.2   106  LEU106      0.2287
     28  O        191.2340  109.9670   72.5880 O.2   106  LEU106     -0.2864
     29  CB       188.4930  108.9790   73.9900 C.3   106  LEU106      0.0297
     30  CG       187.5340  107.8160   74.2530 C.3   106  LEU106      0.0022
     31  CD1      186.0970  108.3060   74.2670 C.3   106  LEU106      0.0001
     32  CD2      187.7130  106.7100   73.2270 C.3   106  LEU106      0.0001
     33  N        193.9120  110.8140   74.9450 N.3   108  LEU108     -0.1231
     34  CA       195.2700  110.3200   74.7150 C.3   108  LEU108      0.1693
     35  C        195.3660  109.5150   73.4140 C.2   108  LEU108      0.2591
     36  O        196.2990  109.7030   72.6150 O.2   108  LEU108     -0.2718
     37  CB       195.7390  109.4710   75.8980 C.3   108  LEU108      0.0284
     38  CG       195.9170  110.2050   77.2300 C.3   108  LEU108      0.0019
     39  CD1      196.3340  109.2440   78.3340 C.3   108  LEU108      0.0001
     40  CD2      196.9250  111.3390   77.0940 C.3   108  LEU108      0.0001
     41  N        194.3930  108.6300   73.1990 N.am  109  ALA109     -0.1980
     42  CA       194.3520  107.8220   71.9800 C.3   109  ALA109      0.1597
     43  C        194.2850  108.7050   70.7340 C.2   109  ALA109      0.2287
     44  O        194.9190  108.4150   69.7130 O.2   109  ALA109     -0.2864
     45  CB       193.1740  106.8690   72.0180 C.3   109  ALA109      0.0319
     46  N        197.6800  110.0380   70.0470 N.3   112  TRP112     -0.1227
     47  CA       198.5150  109.0090   69.4270 C.3   112  TRP112      0.1737
     48  C        198.2030  108.8410   67.9430 C.2   112  TRP112      0.2595
     49  O        199.1130  108.8130   67.1120 O.2   112  TRP112     -0.2718
     50  CB       198.3600  107.6630   70.1340 C.3   112  TRP112      0.0564
     51  CG       199.3770  106.6500   69.6760 C.ar  112  TRP112      0.0003
     52  CD1      200.5960  106.3990   70.2380 C.ar  112  TRP112      0.0946
     53  CD2      199.2680  105.7670   68.5470 C.ar  112  TRP112      0.0152
     54  NE1      201.2480  105.4140   69.5340 N.ar  112  TRP112     -0.2442
     55  CE2      200.4570  105.0090   68.4960 C.ar  112  TRP112      0.0810
     56  CE3      198.2810  105.5440   67.5830 C.ar  112  TRP112      0.0012
     57  CZ2      200.6840  104.0440   67.5140 C.ar  112  TRP112      0.0191
     58  CZ3      198.5080  104.5850   66.6100 C.ar  112  TRP112      0.0001
     59  CH2      199.7020  103.8490   66.5830 C.ar  112  TRP112      0.0015
     60  N        196.9210  108.7280   67.6090 N.am  113  HIS113     -0.1975
     61  CA       196.5320  108.5320   66.2160 C.3   113  HIS113      0.1656
     62  C        196.7860  109.7530   65.3530 C.2   113  HIS113      0.2291
     63  O        196.8850  109.6440   64.1320 O.2   113  HIS113     -0.2864
     64  CB       195.0680  108.1390   66.1180 C.3   113  HIS113      0.0771
     65  CG       194.8440  106.6690   66.2140 C.ar  113  HIS113      0.0820
     66  ND1      195.1250  105.8050   65.1790 N.ar  113  HIS113     -0.2267
     67  CD2      194.3800  105.9040   67.2300 C.ar  113  HIS113      0.1154
     68  CE1      194.8370  104.5690   65.5520 C.ar  113  HIS113      0.1986
     69  NE2      194.3830  104.6080   66.7910 N.ar  113  HIS113     -0.2212
     70  N        200.1210  104.7700   59.1790 N.3   119  LEU119     -0.1245
     71  CA       200.0700  103.3370   59.4250 C.3   119  LEU119      0.1561
     72  C        199.9280  102.5910   58.1020 C.2   119  LEU119      0.2260
     73  O        199.2690  103.0690   57.1760 O.2   119  LEU119     -0.2867
     74  CB       198.9170  102.9910   60.3690 C.3   119  LEU119      0.0270
     75  CG       198.9020  103.7370   61.7060 C.3   119  LEU119      0.0019
     76  CD1      197.7420  103.2730   62.5730 C.3   119  LEU119      0.0001
     77  CD2      200.2250  103.5760   62.4390 C.3   119  LEU119      0.0001
     78  N        198.3150  100.0040   57.5660 N.3   121  LEU121     -0.1231
     79  CA       196.9470   99.5020   57.4750 C.3   121  LEU121      0.1693
     80  C        196.0700  100.3580   56.5640 C.2   121  LEU121      0.2592
     81  O        195.0960   99.8750   55.9860 O.2   121  LEU121     -0.2718
     82  CB       196.3300   99.4300   58.8740 C.3   121  LEU121      0.0284
     83  CG       194.9030   98.9030   58.9990 C.3   121  LEU121      0.0019
     84  CD1      194.8040   97.4970   58.4360 C.3   121  LEU121      0.0001
     85  CD2      194.4500   98.9410   60.4510 C.3   121  LEU121      0.0001
     86  N        196.4280  101.6300   56.4300 N.am  122  PHE122     -0.1976
     87  CA       195.6230  102.5710   55.6620 C.3   122  PHE122      0.1639
     88  C        196.0580  102.6410   54.2010 C.2   122  PHE122      0.2290
     89  O        195.3660  103.2220   53.3680 O.2   122  PHE122     -0.2864
     90  CB       195.6940  103.9600   56.2990 C.3   122  PHE122      0.0560
     91  CG       195.3720  103.9680   57.7660 C.ar  122  PHE122     -0.0200
     92  CD1      194.3570  103.1740   58.2700 C.ar  122  PHE122     -0.0042
     93  CD2      196.0960  104.7590   58.6430 C.ar  122  PHE122     -0.0042
     94  CE1      194.0610  103.1750   59.6200 C.ar  122  PHE122     -0.0003
     95  CE2      195.8080  104.7620   59.9910 C.ar  122  PHE122     -0.0003
     96  CZ       194.7880  103.9710   60.4810 C.ar  122  PHE122     -0.0000
     97  N        181.4260   96.9410   61.2240 N.3   141  HIS141     -0.1241
     98  CA       180.7330   97.8520   62.1310 C.3   141  HIS141      0.1621
     99  C        179.2810   97.4560   62.3370 C.2   141  HIS141      0.2264
    100  O        178.7370   97.6150   63.4280 O.2   141  HIS141     -0.2867
    101  CB       180.8100   99.2840   61.6130 C.3   141  HIS141      0.0745
    102  CG       182.1780   99.8730   61.6870 C.ar  141  HIS141      0.0817
    103  ND1      182.4610  101.1610   61.2860 N.ar  141  HIS141     -0.2268
    104  CD2      183.3490   99.3470   62.1230 C.ar  141  HIS141      0.1154
    105  CE1      183.7460  101.4020   61.4700 C.ar  141  HIS141      0.1986
    106  NE2      184.3070  100.3200   61.9730 N.ar  141  HIS141     -0.2212
@<TRIPOS>BOND
     1    89    88    2
     2    88    87    1
     3    87    90    1
     4    87    86    1
     5    81    80    2
     6    90    91    1
     7    86    80   am
     8    80    79    1
     9    73    72    2
    10    79    78    1
    11    79    82    1
    12    91    92   ar
    13    91    93   ar
    14    72    71    1
    15    92    94   ar
    16    84    83    1
    17    93    95   ar
    18    82    83    1
    19    83    85    1
    20    70    71    1
    21    71    74    1
    22    94    96   ar
    23    95    96   ar
    24    74    75    1
    25    97    98    1
    26   103   105   ar
    27   103   102   ar
    28   105   106   ar
    29   101   102    1
    30   101    98    1
    31   102   104   ar
    32    75    77    1
    33    75    76    1
    34   106   104   ar
    35    98    99    1
    36     1     2    1
    37     8     6    1
    38     6     5    1
    39    99   100    2
    40     5     2    1
    41     5     7    1
    42     2     3    1
    43    63    62    2
    44     3     4    2
    45    66    68   ar
    46    66    65   ar
    47    62    61    1
    48    68    69   ar
    49    64    65    1
    50    64    61    1
    51    65    67   ar
    52    61    60    1
    53    59    58   ar
    54    59    57   ar
    55    58    56   ar
    56    69    67   ar
    57    49    48    2
    58    57    55   ar
    59     9    10    1
    60    56    53   ar
    61    60    48   am
    62    48    47    1
    63    55    53   ar
    64    55    54   ar
    65    15    14    1
    66    53    51   ar
    67    14    13    1
    68    14    16    1
    69    10    13    1
    70    10    11    1
    71    47    46    1
    72    47    50    1
    73    54    52   ar
    74    51    50    1
    75    51    52   ar
    76    44    43    2
    77    11    12    2
    78    43    42    1
    79    42    45    1
    80    42    41    1
    81    28    27    2
    82    36    35    2
    83    41    35   am
    84    32    30    1
    85    35    34    1
    86    27    26    1
    87    29    26    1
    88    29    30    1
    89    26    25    1
    90    30    31    1
    91    34    33    1
    92    34    37    1
    93    20    19    2
    94    25    19   am
    95    37    38    1
    96    19    18    1
    97    40    38    1
    98    38    39    1
    99    18    21    1
   100    18    17    1
   101    21    22    1
   102    22    24    1
   103    22    23    1
