@<TRIPOS>MOLECULE
tmp/4yuuV22.pdb
 95 92 0 0 0
SMALL
GASTEIGER

@<TRIPOS>ATOM
      1  N        185.2430  114.4770   73.7260 N.3    28  LEU28      -0.1245
      2  CA       184.5100  115.6750   74.1150 C.3    28  LEU28       0.1561
      3  C        183.0720  115.3620   74.5170 C.2    28  LEU28       0.2260
      4  O        182.5450  115.9410   75.4690 O.2    28  LEU28      -0.2867
      5  CB       184.5190  116.6950   72.9840 C.3    28  LEU28       0.0270
      6  CG       185.8550  117.3960   72.7620 C.3    28  LEU28       0.0019
      7  CD1      185.7650  118.2460   71.5300 C.3    28  LEU28       0.0001
      8  CD2      186.2220  118.2400   73.9730 C.3    28  LEU28       0.0001
      9  N        183.0530  113.3430   77.8260 N.3    31  GLY31      -0.1210
     10  CA       183.4480  114.3250   78.8190 C.3    31  GLY31       0.1956
     11  C        182.2870  115.2250   79.1910 C.2    31  GLY31       0.2611
     12  O        182.0510  115.4990   80.3720 O.2    31  GLY31      -0.2717
     13  N        181.5480  115.6730   78.1810 N.am   32  TRP32      -0.1976
     14  CA       180.3630  116.4820   78.4290 C.3    32  TRP32       0.1640
     15  C        179.3470  115.7130   79.2590 C.2    32  TRP32       0.2290
     16  O        178.7290  116.2780   80.1510 O.2    32  TRP32      -0.2864
     17  CB       179.7010  116.9420   77.1290 C.3    32  TRP32       0.0576
     18  CG       178.4120  117.6610   77.4030 C.ar   32  TRP32       0.0006
     19  CD1      178.2570  118.9900   77.6610 C.ar   32  TRP32       0.0946
     20  CD2      177.1010  117.0810   77.4880 C.ar   32  TRP32       0.0152
     21  NE1      176.9320  119.2760   77.8930 N.ar   32  TRP32      -0.2442
     22  CE2      176.2020  118.1220   77.7900 C.ar   32  TRP32       0.0810
     23  CE3      176.6020  115.7850   77.3340 C.ar   32  TRP32       0.0012
     24  CZ2      174.8320  117.9070   77.9390 C.ar   32  TRP32       0.0191
     25  CZ3      175.2420  115.5740   77.4820 C.ar   32  TRP32       0.0001
     26  CH2      174.3740  116.6280   77.7880 C.ar   32  TRP32       0.0015
     27  N        180.6390  115.6250   82.9290 N.3    35  SER35      -0.1217
     28  CA       180.5710  116.9580   83.5220 C.3    35  SER35       0.1889
     29  C        179.1320  117.3650   83.8320 C.2    35  SER35       0.2288
     30  O        178.8300  117.8460   84.9270 O.2    35  SER35      -0.2866
     31  CB       181.2110  117.9880   82.5920 C.3    35  SER35       0.2089
     32  OG       182.5550  117.6430   82.3150 O.3    35  SER35      -0.2183
     33  N        184.1950  110.4730   82.4920 N.3   100  ILE100     -0.1231
     34  CA       185.3530  111.3630   82.4990 C.3   100  ILE100      0.1692
     35  C        186.6450  110.6120   82.1640 C.2   100  ILE100      0.2591
     36  O        187.4370  111.0470   81.3130 O.2   100  ILE100     -0.2718
     37  CB       185.5210  112.0610   83.8590 C.3   100  ILE100      0.0266
     38  CG1      184.2810  112.8940   84.1850 C.3   100  ILE100      0.0019
     39  CG2      186.7590  112.9370   83.8570 C.3   100  ILE100      0.0020
     40  CD1      184.0030  113.9850   83.1800 C.3   100  ILE100      0.0001
     41  N        186.8540  109.4810   82.8330 N.am  101  VAL101     -0.1980
     42  CA       188.0390  108.6630   82.5840 C.3   101  VAL101      0.1595
     43  C        188.0800  108.2160   81.1210 C.2   101  VAL101      0.2287
     44  O        189.1230  108.2900   80.4550 O.2   101  VAL101     -0.2864
     45  CB       188.0810  107.4290   83.5120 C.3   101  VAL101      0.0276
     46  CG1      189.2750  106.5510   83.1860 C.3   101  VAL101      0.0022
     47  CG2      188.1360  107.8670   84.9600 C.3   101  VAL101      0.0022
     48  N        186.7260  109.7430   78.6470 N.3   103  SER103     -0.1202
     49  CA       187.0890  110.9480   77.9060 C.3   103  SER103      0.2020
     50  C        188.6060  111.1400   77.8590 C.2   103  SER103      0.2619
     51  O        189.1740  111.4160   76.7990 O.2   103  SER103     -0.2717
     52  CB       186.4230  112.1770   78.5270 C.3   103  SER103      0.2103
     53  OG       186.7950  113.3590   77.8410 O.3   103  SER103     -0.2182
     54  N        189.2600  110.9840   79.0070 N.am  104  GLY104     -0.1942
     55  CA       190.7100  111.1060   79.0640 C.3   104  GLY104      0.2014
     56  C        191.4480  110.0980   78.1930 C.2   104  GLY104      0.2638
     57  O        192.3760  110.4470   77.4400 O.2   104  GLY104     -0.2714
     58  N        191.0340  108.8380   78.2950 N.am  105  LEU105     -0.1977
     59  CA       191.6460  107.7770   77.5010 C.3   105  LEU105      0.1596
     60  C        191.4720  108.0160   76.0010 C.2   105  LEU105      0.2287
     61  O        192.4270  107.8810   75.2250 O.2   105  LEU105     -0.2864
     62  CB       191.0640  106.4170   77.8910 C.3   105  LEU105      0.0297
     63  CG       191.4330  105.9520   79.3020 C.3   105  LEU105      0.0022
     64  CD1      190.7860  104.6160   79.6210 C.3   105  LEU105      0.0001
     65  CD2      192.9420  105.8660   79.4480 C.3   105  LEU105      0.0001
     66  N        191.0440  110.8370   74.6500 N.3   107  PHE107     -0.1227
     67  CA       191.8730  112.0070   74.3780 C.3   107  PHE107      0.1736
     68  C        193.3090  111.5930   74.0460 C.2   107  PHE107      0.2595
     69  O        193.8570  111.9630   72.9880 O.2   107  PHE107     -0.2718
     70  CB       191.8310  112.9490   75.5860 C.3   107  PHE107      0.0547
     71  CG       192.7060  114.1620   75.4590 C.ar  107  PHE107     -0.0202
     72  CD1      192.2650  115.2820   74.7750 C.ar  107  PHE107     -0.0042
     73  CD2      193.9560  114.1980   76.0590 C.ar  107  PHE107     -0.0042
     74  CE1      193.0650  116.4060   74.6710 C.ar  107  PHE107     -0.0003
     75  CE2      194.7590  115.3200   75.9580 C.ar  107  PHE107     -0.0003
     76  CZ       194.3140  116.4250   75.2620 C.ar  107  PHE107     -0.0000
     77  N        193.9120  110.8140   74.9450 N.am  108  LEU108     -0.1980
     78  CA       195.2700  110.3200   74.7150 C.3   108  LEU108      0.1596
     79  C        195.3660  109.5150   73.4140 C.2   108  LEU108      0.2287
     80  O        196.2990  109.7030   72.6150 O.2   108  LEU108     -0.2864
     81  CB       195.7390  109.4710   75.8980 C.3   108  LEU108      0.0297
     82  CG       195.9170  110.2050   77.2300 C.3   108  LEU108      0.0022
     83  CD1      196.3340  109.2440   78.3340 C.3   108  LEU108      0.0001
     84  CD2      196.9250  111.3390   77.0940 C.3   108  LEU108      0.0001
     85  N        167.5950  120.2270   65.2110 N.3   457  PHE457     -0.1241
     86  CA       168.8120  119.5430   64.7840 C.3   457  PHE457      0.1605
     87  C        168.5170  118.6130   63.6120 C.2   457  PHE457      0.2264
     88  O        169.3040  118.5140   62.6800 O.2   457  PHE457     -0.2867
     89  CB       169.4360  118.7600   65.9460 C.3   457  PHE457      0.0534
     90  CG       170.1980  119.6170   66.9190 C.ar  457  PHE457     -0.0203
     91  CD1      170.7510  120.8190   66.5150 C.ar  457  PHE457     -0.0042
     92  CD2      170.3570  119.2210   68.2390 C.ar  457  PHE457     -0.0042
     93  CE1      171.4480  121.6100   67.4060 C.ar  457  PHE457     -0.0003
     94  CE2      171.0510  120.0100   69.1360 C.ar  457  PHE457     -0.0003
     95  CZ       171.5980  121.2040   68.7190 C.ar  457  PHE457     -0.0000
@<TRIPOS>BOND
     1    88    87    2
     2    87    86    1
     3    86    85    1
     4    86    89    1
     5    89    90    1
     6    91    90   ar
     7    91    93   ar
     8    90    92   ar
     9    93    95   ar
    10    92    94   ar
    11    95    94   ar
    12     7     6    1
    13    80    79    2
    14     6     5    1
    15     6     8    1
    16     5     2    1
    17    69    68    2
    18    79    78    1
    19     1     2    1
    20    68    67    1
    21    68    77   am
    22     2     3    1
    23    67    66    1
    24    67    70    1
    25     3     4    2
    26    74    72   ar
    27    74    76   ar
    28    78    77    1
    29    78    81    1
    30    72    71   ar
    31    61    60    2
    32    76    75   ar
    33    71    70    1
    34    71    73   ar
    35    81    82    1
    36    75    73   ar
    37    60    59    1
    38    51    50    2
    39    84    82    1
    40    17    18    1
    41    17    14    1
    42    82    83    1
    43    23    25   ar
    44    23    20   ar
    45    18    20   ar
    46    18    19   ar
    47    57    56    2
    48    25    26   ar
    49    20    22   ar
    50    59    62    1
    51    59    58    1
    52    19    21   ar
    53    26    24   ar
    54    22    21   ar
    55    22    24   ar
    56     9    10    1
    57    53    52    1
    58    50    49    1
    59    50    54   am
    60    62    63    1
    61    49    52    1
    62    49    48    1
    63    13    14    1
    64    13    11   am
    65    56    58   am
    66    56    55    1
    67    14    15    1
    68    10    11    1
    69    54    55    1
    70    11    12    2
    71    15    16    2
    72    63    65    1
    73    63    64    1
    74    44    43    2
    75    43    42    1
    76    36    35    2
    77    35    34    1
    78    35    41   am
    79    32    31    1
    80    33    34    1
    81    34    37    1
    82    42    41    1
    83    42    45    1
    84    31    28    1
    85    27    28    1
    86    40    38    1
    87    46    45    1
    88    45    47    1
    89    28    29    1
    90    29    30    2
    91    39    37    1
    92    37    38    1
