@<TRIPOS>MOLECULE
tmp/4yuuV04.pdb
 160 152 0 0 0
SMALL
GASTEIGER

@<TRIPOS>ATOM
      1  N        188.0770  121.8540   57.6800 N.3     8  HIS8       -0.1226
      2  CA       188.2310  120.4450   58.1740 C.3     8  HIS8        0.1752
      3  C        188.5210  119.3920   57.0840 C.2     8  HIS8        0.2596
      4  O        189.0620  118.2720   57.3910 O.2     8  HIS8       -0.2718
      5  CB       187.0600  120.0100   59.0330 C.3     8  HIS8        0.0759
      6  CG       187.1290  120.6060   60.3910 C.ar    8  HIS8        0.0818
      7  ND1      186.0210  120.9790   61.1170 N.ar    8  HIS8       -0.2268
      8  CD2      188.2040  120.9980   61.1120 C.ar    8  HIS8        0.1154
      9  CE1      186.4130  121.5140   62.2620 C.ar    8  HIS8        0.1986
     10  NE2      187.7290  121.5330   62.2820 N.ar    8  HIS8       -0.2212
     11  N        188.3110  119.7740   55.8200 N.am    9  THR9       -0.1953
     12  CA       188.6930  118.8600   54.7470 C.3     9  THR9        0.1897
     13  C        190.1110  118.3210   54.8190 C.2     9  THR9        0.2313
     14  O        190.3910  117.3260   54.1600 O.2     9  THR9       -0.2863
     15  CB       188.5650  119.4710   53.3690 C.3     9  THR9        0.1794
     16  OG1      188.7530  120.8810   53.4500 O.3     9  THR9       -0.2208
     17  CG2      187.2010  119.1570   52.7510 C.3     9  THR9        0.0378
     18  N        191.2720  116.3580   56.6170 N.3    11  VAL11      -0.1231
     19  CA       191.3340  114.9800   57.1370 C.3    11  VAL11       0.1692
     20  C        190.7200  113.9010   56.2010 C.2    11  VAL11       0.2591
     21  O        190.8640  112.6940   56.4470 O.2    11  VAL11      -0.2718
     22  CB       190.7080  114.9200   58.5720 C.3    11  VAL11       0.0266
     23  CG1      189.4750  114.0520   58.6400 C.3    11  VAL11       0.0020
     24  CG2      191.7590  114.4740   59.5660 C.3    11  VAL11       0.0020
     25  N        190.1240  114.3400   55.0930 N.am   12  LEU12      -0.1980
     26  CA       189.4130  113.4560   54.1590 C.3    12  LEU12       0.1596
     27  C        190.2020  112.2530   53.6160 C.2    12  LEU12       0.2287
     28  O        189.6660  111.1490   53.5240 O.2    12  LEU12      -0.2864
     29  CB       188.8950  114.2870   52.9820 C.3    12  LEU12       0.0297
     30  CG       187.9160  113.6400   51.9990 C.3    12  LEU12       0.0022
     31  CD1      186.8110  114.6200   51.6550 C.3    12  LEU12       0.0001
     32  CD2      188.6330  113.1970   50.7330 C.3    12  LEU12       0.0001
     33  N        191.7260  111.0470   60.6130 N.3    18  LEU18      -0.1245
     34  CA       190.2690  111.0060   60.6560 C.3    18  LEU18       0.1561
     35  C        189.8410  110.2960   61.9330 C.2    18  LEU18       0.2260
     36  O        188.9760  110.7780   62.6780 O.2    18  LEU18      -0.2867
     37  CB       189.6970  110.2960   59.4260 C.3    18  LEU18       0.0270
     38  CG       188.1910  110.0140   59.4290 C.3    18  LEU18       0.0019
     39  CD1      187.3800  111.2960   59.3140 C.3    18  LEU18       0.0001
     40  CD2      187.8170  109.0440   58.3220 C.3    18  LEU18       0.0001
     41  N        190.7000  112.5070   64.9500 N.3    21  VAL21      -0.1231
     42  CA       189.7170  113.5690   65.0760 C.3    21  VAL21       0.1692
     43  C        188.3820  113.0460   65.6410 C.2    21  VAL21       0.2592
     44  O        187.7390  113.7030   66.4820 O.2    21  VAL21      -0.2718
     45  CB       189.5140  114.2500   63.7060 C.3    21  VAL21       0.0266
     46  CG1      188.0580  114.3760   63.3710 C.3    21  VAL21       0.0020
     47  CG2      190.2150  115.6040   63.6730 C.3    21  VAL21       0.0020
     48  N        187.9820  111.8540   65.2060 N.am   22  HIS22      -0.1976
     49  CA       186.7650  111.2410   65.7260 C.3    22  HIS22       0.1656
     50  C        186.9190  110.8820   67.1970 C.2    22  HIS22       0.2291
     51  O        185.9730  110.9880   67.9810 O.2    22  HIS22      -0.2864
     52  CB       186.4010  109.9950   64.9250 C.3    22  HIS22       0.0771
     53  CG       185.8200  110.2910   63.5820 C.ar   22  HIS22       0.0820
     54  ND1      185.4090  109.3040   62.7160 N.ar   22  HIS22      -0.2267
     55  CD2      185.5770  111.4700   62.9590 C.ar   22  HIS22       0.1154
     56  CE1      184.9400  109.8610   61.6120 C.ar   22  HIS22       0.1986
     57  NE2      185.0380  111.1690   61.7330 N.ar   22  HIS22      -0.2212
     58  N        186.4320  114.0800   69.0990 N.3    25  HIS25      -0.1226
     59  CA       185.0080  114.3840   69.2130 C.3    25  HIS25       0.1752
     60  C        184.3270  113.5180   70.2760 C.2    25  HIS25       0.2596
     61  O        183.5800  114.0170   71.1270 O.2    25  HIS25      -0.2718
     62  CB       184.3120  114.1950   67.8670 C.3    25  HIS25       0.0759
     63  CG       182.8460  114.4770   67.9090 C.ar   25  HIS25       0.0818
     64  ND1      181.9060  113.4940   68.1380 N.ar   25  HIS25      -0.2268
     65  CD2      182.1560  115.6340   67.7690 C.ar   25  HIS25       0.1154
     66  CE1      180.7000  114.0340   68.1370 C.ar   25  HIS25       0.1986
     67  NE2      180.8260  115.3300   67.9090 N.ar   25  HIS25      -0.2212
     68  N        184.6070  112.2190   70.2250 N.am   26  THR26      -0.1953
     69  CA       184.0220  111.2610   71.1560 C.3    26  THR26       0.1897
     70  C        184.4210  111.5850   72.5960 C.2    26  THR26       0.2313
     71  O        183.5870  111.5600   73.5090 O.2    26  THR26      -0.2863
     72  CB       184.4470  109.8210   70.8050 C.3    26  THR26       0.1794
     73  OG1      184.1820  109.5720   69.4190 O.3    26  THR26      -0.2208
     74  CG2      183.6850  108.8150   71.6420 C.3    26  THR26       0.0378
     75  N        182.4370  114.4500   73.7900 N.3    29  VAL29      -0.1245
     76  CA       181.0450  114.1200   74.0720 C.3    29  VAL29       0.1561
     77  C        180.9030  113.3930   75.4090 C.2    29  VAL29       0.2260
     78  O        180.0820  113.7740   76.2560 O.2    29  VAL29      -0.2867
     79  CB       180.4340  113.2610   72.9510 C.3    29  VAL29       0.0252
     80  CG1      179.0440  112.7950   73.3380 C.3    29  VAL29       0.0019
     81  CG2      180.3910  114.0530   71.6540 C.3    29  VAL29       0.0019
     82  N        184.3220  108.6360   50.6810 N.3   233  ILE233     -0.1231
     83  CA       183.8370  108.4970   52.0530 C.3   233  ILE233      0.1692
     84  C        182.6960  109.4830   52.3650 C.2   233  ILE233      0.2591
     85  O        181.8840  109.2780   53.2880 O.2   233  ILE233     -0.2718
     86  CB       185.0080  108.6860   53.0510 C.3   233  ILE233      0.0266
     87  CG1      184.5960  108.2910   54.4700 C.3   233  ILE233      0.0019
     88  CG2      185.5580  110.1100   52.9850 C.3   233  ILE233      0.0020
     89  CD1      185.7570  108.2290   55.4290 C.3   233  ILE233      0.0001
     90  N        182.6160  110.5410   51.5640 N.am  234  GLU234     -0.1979
     91  CA       181.6050  111.5650   51.7680 C.3   234  GLU234      0.1602
     92  C        180.2050  111.0220   51.4870 C.2   234  GLU234      0.2287
     93  O        179.2130  111.5850   51.9530 O.2   234  GLU234     -0.2864
     94  CB       181.8940  112.7910   50.8980 C.3   234  GLU234      0.0415
     95  CG       181.1310  114.0390   51.3240 C.3   234  GLU234      0.1163
     96  CD       181.8040  115.3240   50.8770 C.2   234  GLU234      0.3649
     97  OE1      181.2770  116.4100   51.2000 O.co2 234  GLU234     -0.2457
     98  OE2      182.8610  115.2520   50.2110 O.co2 234  GLU234     -0.2457
     99  N        179.3360  108.0570   52.5320 N.3   236  VAL236     -0.1231
    100  CA       179.0640  107.4570   53.8250 C.3   236  VAL236      0.1692
    101  C        178.6090  108.5620   54.7500 C.2   236  VAL236      0.2591
    102  O        177.6680  108.3850   55.5290 O.2   236  VAL236     -0.2718
    103  CB       180.2950  106.7450   54.4180 C.3   236  VAL236      0.0266
    104  CG1      179.9290  106.0500   55.7220 C.3   236  VAL236      0.0020
    105  CG2      180.8720  105.7550   53.4250 C.3   236  VAL236      0.0020
    106  N        179.2690  109.7140   54.6470 N.am  237  LEU237     -0.1980
    107  CA       178.8510  110.8660   55.4490 C.3   237  LEU237      0.1596
    108  C        177.4000  111.2580   55.1600 C.2   237  LEU237      0.2287
    109  O        176.6120  111.4620   56.0840 O.2   237  LEU237     -0.2864
    110  CB       179.7790  112.0590   55.2090 C.3   237  LEU237      0.0297
    111  CG       179.4720  113.2960   56.0590 C.3   237  LEU237      0.0022
    112  CD1      179.4250  112.9360   57.5320 C.3   237  LEU237      0.0001
    113  CD2      180.4900  114.3960   55.8060 C.3   237  LEU237      0.0001
    114  N        174.8870  108.4840   56.3950 N.3   240  SER240     -0.1202
    115  CA       174.8830  108.5000   57.8520 C.3   240  SER240      0.2020
    116  C        174.1020  109.6920   58.3860 C.2   240  SER240      0.2618
    117  O        173.3090  109.5510   59.3180 O.2   240  SER240     -0.2717
    118  CB       176.3120  108.5260   58.3960 C.3   240  SER240      0.2103
    119  OG       177.0040  107.3350   58.0620 O.3   240  SER240     -0.2182
    120  N        174.3250  110.8620   57.7930 N.am  241  ILE241     -0.1979
    121  CA       173.5930  112.0590   58.1900 C.3   241  ILE241      0.1595
    122  C        172.0920  111.8590   57.9940 C.2   241  ILE241      0.2287
    123  O        171.2840  112.2160   58.8660 O.2   241  ILE241     -0.2864
    124  CB       174.0610  113.2940   57.3990 C.3   241  ILE241      0.0276
    125  CG1      175.4500  113.7270   57.8680 C.3   241  ILE241      0.0022
    126  CG2      173.0850  114.4430   57.5700 C.3   241  ILE241      0.0022
    127  CD1      176.0010  114.9220   57.1270 C.3   241  ILE241      0.0001
    128  N        170.7320  109.6420   60.6390 N.3   244  VAL244     -0.1245
    129  CA       170.7860  110.3530   61.9060 C.3   244  VAL244      0.1561
    130  C        169.6370  111.3470   62.0720 C.2   244  VAL244      0.2260
    131  O        169.0380  111.4180   63.1470 O.2   244  VAL244     -0.2867
    132  CB       172.1380  111.0820   62.0680 C.3   244  VAL244      0.0252
    133  CG1      172.0330  112.1940   63.0800 C.3   244  VAL244      0.0019
    134  CG2      173.2250  110.0950   62.4770 C.3   244  VAL244      0.0019
    135  N        166.4150  109.3380   62.6430 N.3   247  ALA247     -0.1245
    136  CA       166.3530  108.9270   64.0430 C.3   247  ALA247      0.1562
    137  C        166.0090  110.1020   64.9630 C.2   247  ALA247      0.2260
    138  O        165.2550  109.9480   65.9300 O.2   247  ALA247     -0.2867
    139  CB       167.6690  108.2950   64.4610 C.3   247  ALA247      0.0290
    140  N        166.0420  118.5880   69.3140 N.3   454  HIS454     -0.1241
    141  CA       166.2050  117.4810   68.3780 C.3   454  HIS454      0.1621
    142  C        165.4240  117.6520   67.0800 C.2   454  HIS454      0.2264
    143  O        165.8670  117.1950   66.0260 O.2   454  HIS454     -0.2867
    144  CB       165.8260  116.1710   69.0540 C.3   454  HIS454      0.0745
    145  CG       166.8840  115.6650   69.9750 C.ar  454  HIS454      0.0817
    146  ND1      167.2120  116.3050   71.1480 N.ar  454  HIS454     -0.2268
    147  CD2      167.7180  114.6040   69.8730 C.ar  454  HIS454      0.1154
    148  CE1      168.1990  115.6520   71.7400 C.ar  454  HIS454      0.1986
    149  NE2      168.5130  114.6110   70.9900 N.ar  454  HIS454     -0.2212
    150  N        170.0740  118.9310   59.9050 N.3   461  PHE461     -0.1241
    151  CA       170.7800  117.7680   59.3810 C.3   461  PHE461      0.1605
    152  C        170.1750  117.2880   58.0630 C.2   461  PHE461      0.2264
    153  O        170.8490  116.6240   57.2750 O.2   461  PHE461     -0.2867
    154  CB       170.8100  116.6400   60.4150 C.3   461  PHE461      0.0534
    155  CG       172.0280  116.6720   61.2980 C.ar  461  PHE461     -0.0203
    156  CD1      172.1850  117.6700   62.2460 C.ar  461  PHE461     -0.0042
    157  CD2      173.0190  115.7110   61.1750 C.ar  461  PHE461     -0.0042
    158  CE1      173.3040  117.7110   63.0540 C.ar  461  PHE461     -0.0003
    159  CE2      174.1430  115.7450   61.9850 C.ar  461  PHE461     -0.0003
    160  CZ       174.2850  116.7470   62.9250 C.ar  461  PHE461     -0.0000
@<TRIPOS>BOND
     1    98    96   ar
     2    82    83    1
     3    32    30    1
     4    96    97   ar
     5    96    95    1
     6    94    95    1
     7    94    91    1
     8    92    91    1
     9    92    93    2
    10    90    91    1
    11    90    84   am
    12    31    30    1
    13    30    29    1
    14    83    84    1
    15    83    86    1
    16    84    85    2
    17    99   100    1
    18    17    15    1
    19    29    26    1
    20    88    86    1
    21    86    87    1
    22    15    16    1
    23    15    12    1
    24   105   103    1
    25    28    27    2
    26    27    26    1
    27   100   103    1
    28   100   101    1
    29    26    25    1
    30    14    13    2
    31   103   104    1
    32    87    89    1
    33   106   101   am
    34   106   107    1
    35    12    13    1
    36    12    11    1
    37   101   102    2
    38    25    20   am
    39   108   107    1
    40   108   109    2
    41   110   107    1
    42   110   111    1
    43   113   111    1
    44    11     3   am
    45   111   112    1
    46    20    21    2
    47    20    19    1
    48   114   115    1
    49    18    19    1
    50     3     4    2
    51     3     2    1
    52   127   125    1
    53    19    22    1
    54   153   152    2
    55   124   126    1
    56   124   125    1
    57   124   121    1
    58     1     2    1
    59   120   121    1
    60   120   116   am
    61   115   116    1
    62   115   118    1
    63   122   121    1
    64   122   123    2
    65   119   118    1
    66   152   151    1
    67     2     5    1
    68    40    38    1
    69   116   117    2
    70    22    23    1
    71    22    24    1
    72     5     6    1
    73    39    38    1
    74   151   150    1
    75   151   154    1
    76    37    38    1
    77    37    34    1
    78     6     8   ar
    79     6     7   ar
    80   154   155    1
    81    33    34    1
    82   128   129    1
    83    34    35    1
    84     8    10   ar
    85     7     9   ar
    86   157   155   ar
    87   157   159   ar
    88   155   156   ar
    89    56    57   ar
    90    56    54   ar
    91    57    55   ar
    92   129   132    1
    93   129   130    1
    94    35    36    2
    95   159   160   ar
    96   132   134    1
    97   132   133    1
    98   130   131    2
    99   156   158   ar
   100     9    10   ar
   101   135   136    1
   102    54    53   ar
   103   160   158   ar
   104    55    53   ar
   105    46    45    1
   106    53    52    1
   107    47    45    1
   108    45    42    1
   109   136   139    1
   110   136   137    1
   111    52    49    1
   112    41    42    1
   113   137   138    2
   114    42    43    1
   115    48    43   am
   116    48    49    1
   117    43    44    2
   118    49    50    1
   119   143   142    2
   120   142   141    1
   121    50    51    2
   122    65    67   ar
   123    65    63   ar
   124    62    63    1
   125    62    59    1
   126    67    66   ar
   127    63    64   ar
   128    66    64   ar
   129   141   144    1
   130   141   140    1
   131   144   145    1
   132    58    59    1
   133    59    60    1
   134    73    72    1
   135   147   145   ar
   136   147   149   ar
   137   145   146   ar
   138    68    60   am
   139    68    69    1
   140    60    61    2
   141    72    69    1
   142    72    74    1
   143   149   148   ar
   144   146   148   ar
   145    69    70    1
   146    81    79    1
   147    70    71    2
   148    79    80    1
   149    79    76    1
   150    75    76    1
   151    76    77    1
   152    77    78    2
