@<TRIPOS>MOLECULE
tmp/4yuuV05.pdb
 96 95 0 0 0
SMALL
GASTEIGER

@<TRIPOS>ATOM
      1  N        188.0770  121.8540   57.6800 N.3     8  HIS8       -0.1241
      2  CA       188.2310  120.4450   58.1740 C.3     8  HIS8        0.1621
      3  C        188.5210  119.3920   57.0840 C.2     8  HIS8        0.2264
      4  O        189.0620  118.2720   57.3910 O.2     8  HIS8       -0.2867
      5  CB       187.0600  120.0100   59.0330 C.3     8  HIS8        0.0745
      6  CG       187.1290  120.6060   60.3910 C.ar    8  HIS8        0.0817
      7  ND1      186.0210  120.9790   61.1170 N.ar    8  HIS8       -0.2268
      8  CD2      188.2040  120.9980   61.1120 C.ar    8  HIS8        0.1154
      9  CE1      186.4130  121.5140   62.2620 C.ar    8  HIS8        0.1986
     10  NE2      187.7290  121.5330   62.2820 N.ar    8  HIS8       -0.2212
     11  N        186.4320  114.0800   69.0990 N.3    25  HIS25      -0.1241
     12  CA       185.0080  114.3840   69.2130 C.3    25  HIS25       0.1621
     13  C        184.3270  113.5180   70.2760 C.2    25  HIS25       0.2264
     14  O        183.5800  114.0170   71.1270 O.2    25  HIS25      -0.2867
     15  CB       184.3120  114.1950   67.8670 C.3    25  HIS25       0.0745
     16  CG       182.8460  114.4770   67.9090 C.ar   25  HIS25       0.0817
     17  ND1      181.9060  113.4940   68.1380 N.ar   25  HIS25      -0.2268
     18  CD2      182.1560  115.6340   67.7690 C.ar   25  HIS25       0.1154
     19  CE1      180.7000  114.0340   68.1370 C.ar   25  HIS25       0.1986
     20  NE2      180.8260  115.3300   67.9090 N.ar   25  HIS25      -0.2212
     21  N        185.2430  114.4770   73.7260 N.3    28  LEU28      -0.1231
     22  CA       184.5100  115.6750   74.1150 C.3    28  LEU28       0.1693
     23  C        183.0720  115.3620   74.5170 C.2    28  LEU28       0.2591
     24  O        182.5450  115.9410   75.4690 O.2    28  LEU28      -0.2718
     25  CB       184.5190  116.6950   72.9840 C.3    28  LEU28       0.0284
     26  CG       185.8550  117.3960   72.7620 C.3    28  LEU28       0.0019
     27  CD1      185.7650  118.2460   71.5300 C.3    28  LEU28       0.0001
     28  CD2      186.2220  118.2400   73.9730 C.3    28  LEU28       0.0001
     29  N        182.4370  114.4500   73.7900 N.am   29  VAL29      -0.1980
     30  CA       181.0450  114.1200   74.0720 C.3    29  VAL29       0.1595
     31  C        180.9030  113.3930   75.4090 C.2    29  VAL29       0.2287
     32  O        180.0820  113.7740   76.2560 O.2    29  VAL29      -0.2864
     33  CB       180.4340  113.2610   72.9510 C.3    29  VAL29       0.0276
     34  CG1      179.0440  112.7950   73.3380 C.3    29  VAL29       0.0022
     35  CG2      180.3910  114.0530   71.6540 C.3    29  VAL29       0.0022
     36  N        181.5480  115.6730   78.1810 N.3    32  TRP32      -0.1241
     37  CA       180.3630  116.4820   78.4290 C.3    32  TRP32       0.1605
     38  C        179.3470  115.7130   79.2590 C.2    32  TRP32       0.2264
     39  O        178.7290  116.2780   80.1510 O.2    32  TRP32      -0.2867
     40  CB       179.7010  116.9420   77.1290 C.3    32  TRP32       0.0550
     41  CG       178.4120  117.6610   77.4030 C.ar   32  TRP32       0.0003
     42  CD1      178.2570  118.9900   77.6610 C.ar   32  TRP32       0.0946
     43  CD2      177.1010  117.0810   77.4880 C.ar   32  TRP32       0.0152
     44  NE1      176.9320  119.2760   77.8930 N.ar   32  TRP32      -0.2442
     45  CE2      176.2020  118.1220   77.7900 C.ar   32  TRP32       0.0810
     46  CE3      176.6020  115.7850   77.3340 C.ar   32  TRP32       0.0012
     47  CZ2      174.8320  117.9070   77.9390 C.ar   32  TRP32       0.0191
     48  CZ3      175.2420  115.5740   77.4820 C.ar   32  TRP32       0.0001
     49  CH2      174.3740  116.6280   77.7880 C.ar   32  TRP32       0.0015
     50  N        170.7320  109.6420   60.6390 N.3   244  VAL244     -0.1245
     51  CA       170.7860  110.3530   61.9060 C.3   244  VAL244      0.1561
     52  C        169.6370  111.3470   62.0720 C.2   244  VAL244      0.2260
     53  O        169.0380  111.4180   63.1470 O.2   244  VAL244     -0.2867
     54  CB       172.1380  111.0820   62.0680 C.3   244  VAL244      0.0252
     55  CG1      172.0330  112.1940   63.0800 C.3   244  VAL244      0.0019
     56  CG2      173.2250  110.0950   62.4770 C.3   244  VAL244      0.0019
     57  N        167.5950  120.2270   65.2110 N.3   457  PHE457     -0.1241
     58  CA       168.8120  119.5430   64.7840 C.3   457  PHE457      0.1605
     59  C        168.5170  118.6130   63.6120 C.2   457  PHE457      0.2264
     60  O        169.3040  118.5140   62.6800 O.2   457  PHE457     -0.2867
     61  CB       169.4360  118.7600   65.9460 C.3   457  PHE457      0.0534
     62  CG       170.1980  119.6170   66.9190 C.ar  457  PHE457     -0.0203
     63  CD1      170.7510  120.8190   66.5150 C.ar  457  PHE457     -0.0042
     64  CD2      170.3570  119.2210   68.2390 C.ar  457  PHE457     -0.0042
     65  CE1      171.4480  121.6100   67.4060 C.ar  457  PHE457     -0.0003
     66  CE2      171.0510  120.0100   69.1360 C.ar  457  PHE457     -0.0003
     67  CZ       171.5980  121.2040   68.7190 C.ar  457  PHE457     -0.0000
     68  N        168.1060  120.8380   60.3760 N.3   460  LEU460     -0.1231
     69  CA       169.4310  121.2760   59.9450 C.3   460  LEU460      0.1693
     70  C        170.2230  120.1210   59.3290 C.2   460  LEU460      0.2592
     71  O        170.9410  120.2970   58.3340 O.2   460  LEU460     -0.2718
     72  CB       170.2010  121.8810   61.1190 C.3   460  LEU460      0.0284
     73  CG       169.6520  123.2060   61.6540 C.3   460  LEU460      0.0019
     74  CD1      170.3720  123.6200   62.9330 C.3   460  LEU460      0.0001
     75  CD2      169.7670  124.2990   60.6010 C.3   460  LEU460      0.0001
     76  N        170.0740  118.9310   59.9050 N.am  461  PHE461     -0.1976
     77  CA       170.7800  117.7680   59.3810 C.3   461  PHE461      0.1639
     78  C        170.1750  117.2880   58.0630 C.2   461  PHE461      0.2290
     79  O        170.8490  116.6240   57.2750 O.2   461  PHE461     -0.2864
     80  CB       170.8100  116.6400   60.4150 C.3   461  PHE461      0.0560
     81  CG       172.0280  116.6720   61.2980 C.ar  461  PHE461     -0.0200
     82  CD1      172.1850  117.6700   62.2460 C.ar  461  PHE461     -0.0042
     83  CD2      173.0190  115.7110   61.1750 C.ar  461  PHE461     -0.0042
     84  CE1      173.3040  117.7110   63.0540 C.ar  461  PHE461     -0.0003
     85  CE2      174.1430  115.7450   61.9850 C.ar  461  PHE461     -0.0003
     86  CZ       174.2850  116.7470   62.9250 C.ar  461  PHE461     -0.0000
     87  N        176.1270  117.3740   51.6020 N.3   468  HIS468     -0.1241
     88  CA       177.1830  116.3780   51.4350 C.3   468  HIS468      0.1621
     89  C        176.8660  115.3800   50.3330 C.2   468  HIS468      0.2264
     90  O        177.7760  114.8930   49.6510 O.2   468  HIS468     -0.2867
     91  CB       177.4390  115.6470   52.7410 C.3   468  HIS468      0.0745
     92  CG       178.1690  116.4750   53.7410 C.ar  468  HIS468      0.0817
     93  ND1      179.4770  116.8650   53.5680 N.ar  468  HIS468     -0.2268
     94  CD2      177.7640  117.0110   54.9160 C.ar  468  HIS468      0.1154
     95  CE1      179.8540  117.5980   54.6020 C.ar  468  HIS468      0.1986
     96  NE2      178.8310  117.6950   55.4320 N.ar  468  HIS468     -0.2212
@<TRIPOS>BOND
     1    90    89    2
     2    89    88    1
     3    88    87    1
     4    88    91    1
     5    91    92    1
     6    93    92   ar
     7    93    95   ar
     8    92    94   ar
     9    95    96   ar
    10    94    96   ar
    11     3     4    2
    12     3     2    1
    13    79    78    2
    14     1     2    1
    15    78    77    1
    16     2     5    1
    17    71    70    2
    18     5     6    1
    19    70    76   am
    20    70    69    1
    21    77    76    1
    22    77    80    1
    23    69    68    1
    24    69    72    1
    25     6     8   ar
    26     6     7   ar
    27    80    81    1
    28    75    73    1
    29    50    51    1
    30     8    10   ar
    31     7     9   ar
    32    72    73    1
    33    83    81   ar
    34    83    85   ar
    35    81    82   ar
    36    73    74    1
    37    51    54    1
    38    51    52    1
    39    85    86   ar
    40    54    56    1
    41    54    55    1
    42    52    53    2
    43    82    84   ar
    44     9    10   ar
    45    60    59    2
    46    86    84   ar
    47    59    58    1
    48    58    57    1
    49    58    61    1
    50    61    62    1
    51    63    62   ar
    52    63    65   ar
    53    62    64   ar
    54    65    67   ar
    55    18    16   ar
    56    18    20   ar
    57    15    16    1
    58    15    12    1
    59    16    17   ar
    60    20    19   ar
    61    19    17   ar
    62    64    66   ar
    63    67    66   ar
    64    11    12    1
    65    12    13    1
    66    13    14    2
    67    27    26    1
    68    35    33    1
    69    26    25    1
    70    26    28    1
    71    33    34    1
    72    33    30    1
    73    25    22    1
    74    21    22    1
    75    29    30    1
    76    29    23   am
    77    30    31    1
    78    22    23    1
    79    23    24    2
    80    31    32    2
    81    40    41    1
    82    40    37    1
    83    46    48   ar
    84    46    43   ar
    85    41    43   ar
    86    41    42   ar
    87    48    49   ar
    88    43    45   ar
    89    42    44   ar
    90    49    47   ar
    91    45    44   ar
    92    45    47   ar
    93    36    37    1
    94    37    38    1
    95    38    39    2
