@<TRIPOS>MOLECULE
tmp/4yuuB15.pdb
 78 75 0 0 0
SMALL
GASTEIGER

@<TRIPOS>ATOM
      1  N        172.2720  169.6710   83.7640 N.3    74  TRP74      -0.1241
      2  CA       171.1640  170.0310   82.8870 C.3    74  TRP74       0.1605
      3  C        169.8400  169.5700   83.4870 C.2    74  TRP74       0.2264
      4  O        168.7680  169.9910   83.0530 O.2    74  TRP74      -0.2867
      5  CB       171.3580  169.4280   81.4930 C.3    74  TRP74       0.0550
      6  CG       172.3510  170.1720   80.6520 C.ar   74  TRP74       0.0003
      7  CD1      172.8180  171.4370   80.8650 C.ar   74  TRP74       0.0946
      8  CD2      173.0060  169.6970   79.4710 C.ar   74  TRP74       0.0152
      9  NE1      173.7200  171.7790   79.8880 N.ar   74  TRP74      -0.2442
     10  CE2      173.8520  170.7280   79.0180 C.ar   74  TRP74       0.0810
     11  CE3      172.9550  168.5000   78.7480 C.ar   74  TRP74       0.0012
     12  CZ2      174.6410  170.5990   77.8790 C.ar   74  TRP74       0.0191
     13  CZ3      173.7400  168.3740   77.6160 C.ar   74  TRP74       0.0001
     14  CH2      174.5710  169.4160   77.1940 C.ar   74  TRP74       0.0015
     15  N        168.4430  176.7700   86.3280 N.3    85  SER85      -0.1202
     16  CA       167.5220  176.4900   85.2340 C.3    85  SER85       0.2020
     17  C        168.2680  176.3760   83.9110 C.2    85  SER85       0.2619
     18  O        167.7900  175.7410   82.9690 O.2    85  SER85      -0.2717
     19  CB       166.4490  177.5760   85.1410 C.3    85  SER85       0.2103
     20  OG       165.5360  177.2980   84.0930 O.3    85  SER85      -0.2182
     21  N        169.4420  176.9950   83.8460 N.am   86  ASN86      -0.1960
     22  CA       170.2610  176.9540   82.6440 C.3    86  ASN86       0.1804
     23  C        171.7380  177.1820   82.9530 C.2    86  ASN86       0.2463
     24  O        172.2000  178.3220   82.9880 O.2    86  ASN86      -0.2730
     25  CB       169.7700  177.9900   81.6320 C.3    86  ASN86       0.1195
     26  CG       170.3890  177.8040   80.2620 C.2    86  ASN86       0.2630
     27  OD1      170.9240  176.7390   79.9500 O.2    86  ASN86      -0.2716
     28  ND2      170.3180  178.8400   79.4340 N.am   86  ASN86      -0.0877
     29  N        172.4840  176.0900   83.1830 N.am   87  PRO87      -0.2716
     30  CA       173.9230  176.1570   83.4570 C.3    87  PRO87       0.1536
     31  C        174.7090  176.5590   82.2150 C.2    87  PRO87       0.2599
     32  O        175.8580  176.9910   82.3170 O.2    87  PRO87      -0.2715
     33  CB       174.2760  174.7240   83.8800 C.3    87  PRO87       0.0310
     34  CG       172.9690  174.0510   84.1560 C.3    87  PRO87       0.0237
     35  CD       171.9790  174.7090   83.2530 C.3    87  PRO87       0.0939
     36  N        174.0860  176.4130   81.0500 N.am   88  GLY88      -0.1941
     37  CA       174.7500  176.6980   79.7940 C.3    88  GLY88       0.2014
     38  C        175.4360  175.4630   79.2500 C.2    88  GLY88       0.2638
     39  O        174.9940  174.3380   79.4900 O.2    88  GLY88      -0.2714
     40  N        176.5250  175.6720   78.5210 N.am   89  LEU89      -0.1977
     41  CA       177.2650  174.5700   77.9250 C.3    89  LEU89       0.1596
     42  C        177.9900  173.7290   78.9690 C.2    89  LEU89       0.2287
     43  O        178.0120  172.5040   78.8820 O.2    89  LEU89      -0.2864
     44  CB       178.2700  175.0970   76.8980 C.3    89  LEU89       0.0297
     45  CG       179.1790  174.0550   76.2450 C.3    89  LEU89       0.0022
     46  CD1      178.3540  172.9900   75.5400 C.3    89  LEU89       0.0001
     47  CD2      180.1400  174.7210   75.2740 C.3    89  LEU89       0.0001
     48  N        180.1680  165.3230   77.1500 N.3    97  LEU97      -0.1245
     49  CA       179.9600  165.2850   75.7060 C.3    97  LEU97       0.1561
     50  C        181.0970  165.9630   74.9440 C.2    97  LEU97       0.2260
     51  O        181.5400  165.4640   73.9040 O.2    97  LEU97      -0.2867
     52  CB       178.6210  165.9320   75.3470 C.3    97  LEU97       0.0270
     53  CG       177.3860  165.1840   75.8610 C.3    97  LEU97       0.0019
     54  CD1      176.1030  165.9130   75.4870 C.3    97  LEU97       0.0001
     55  CD2      177.3650  163.7520   75.3420 C.3    97  LEU97       0.0001
     56  N        183.4930  164.3030   72.0530 N.3   101  VAL101     -0.1245
     57  CA       183.7540  164.8870   70.7410 C.3   101  VAL101      0.1561
     58  C        185.2540  165.0850   70.5350 C.2   101  VAL101      0.2260
     59  O        185.8000  164.7530   69.4740 O.2   101  VAL101     -0.2867
     60  CB       183.0250  166.2320   70.5660 C.3   101  VAL101      0.0252
     61  CG1      183.3780  166.8600   69.2280 C.3   101  VAL101      0.0019
     62  CG2      181.5210  166.0350   70.6850 C.3   101  VAL101      0.0019
     63  N        187.6960  163.5890   67.5500 N.3   105  LEU105     -0.1245
     64  CA       188.5780  164.4080   66.7230 C.3   105  LEU105      0.1561
     65  C        190.0340  163.9570   66.8370 C.2   105  LEU105      0.2260
     66  O        190.7310  163.8210   65.8290 O.2   105  LEU105     -0.2867
     67  CB       188.4450  165.8830   67.1030 C.3   105  LEU105      0.0270
     68  CG       187.0920  166.5080   66.7560 C.3   105  LEU105      0.0019
     69  CD1      187.0330  167.9630   67.1960 C.3   105  LEU105      0.0001
     70  CD2      186.8190  166.3830   65.2650 C.3   105  LEU105      0.0001
     71  N        190.4460  160.7070   64.8040 N.3   108  LEU108     -0.1245
     72  CA       190.6200  160.9450   63.3720 C.3   108  LEU108      0.1561
     73  C        192.0090  161.5100   63.0630 C.2   108  LEU108      0.2260
     74  O        192.6810  161.0620   62.1260 O.2   108  LEU108     -0.2867
     75  CB       189.5360  161.8930   62.8500 C.3   108  LEU108      0.0270
     76  CG       188.1000  161.3620   62.8780 C.3   108  LEU108      0.0019
     77  CD1      187.1200  162.4090   62.3700 C.3   108  LEU108      0.0001
     78  CD2      187.9780  160.0760   62.0710 C.3   108  LEU108      0.0001
@<TRIPOS>BOND
     1    78    76    1
     2    74    73    2
     3    77    76    1
     4    75    76    1
     5    75    72    1
     6    73    72    1
     7    72    71    1
     8    70    68    1
     9    66    65    2
    10    64    65    1
    11    64    67    1
    12    64    63    1
    13    68    67    1
    14    68    69    1
    15    61    60    1
    16    59    58    2
    17    58    57    1
    18    60    62    1
    19    60    57    1
    20    57    56    1
    21    51    50    2
    22    50    49    1
    23    47    45    1
    24    55    53    1
    25    52    49    1
    26    52    53    1
    27    54    53    1
    28    46    45    1
    29    49    48    1
    30    45    44    1
    31    44    41    1
    32    14    13   ar
    33    14    12   ar
    34    13    11   ar
    35    12    10   ar
    36    41    40    1
    37    41    42    1
    38    40    38   am
    39    11     8   ar
    40    43    42    2
    41    10     8   ar
    42    10     9   ar
    43    38    39    2
    44    38    37    1
    45    28    26   am
    46     8     6   ar
    47    37    36    1
    48     9     7   ar
    49    27    26    2
    50    26    25    1
    51     6     7   ar
    52     6     5    1
    53    36    31   am
    54     5     2    1
    55    25    22    1
    56    31    32    2
    57    31    30    1
    58    22    23    1
    59    22    21    1
    60     2     3    1
    61     2     1    1
    62    23    24    2
    63    23    29   am
    64    18    17    2
    65     4     3    2
    66    29    35    1
    67    29    30    1
    68    35    34    1
    69    30    33    1
    70    21    17   am
    71    33    34    1
    72    17    16    1
    73    20    19    1
    74    19    16    1
    75    16    15    1
