@<TRIPOS>MOLECULE
tmp/4yuuV09.pdb
 185 187 0 0 0
SMALL
GASTEIGER

@<TRIPOS>ATOM
      1  N        181.5480  115.6730   78.1810 N.3    32  TRP32      -0.1241
      2  CA       180.3630  116.4820   78.4290 C.3    32  TRP32       0.1605
      3  C        179.3470  115.7130   79.2590 C.2    32  TRP32       0.2264
      4  O        178.7290  116.2780   80.1510 O.2    32  TRP32      -0.2867
      5  CB       179.7010  116.9420   77.1290 C.3    32  TRP32       0.0550
      6  CG       178.4120  117.6610   77.4030 C.ar   32  TRP32       0.0003
      7  CD1      178.2570  118.9900   77.6610 C.ar   32  TRP32       0.0946
      8  CD2      177.1010  117.0810   77.4880 C.ar   32  TRP32       0.0152
      9  NE1      176.9320  119.2760   77.8930 N.ar   32  TRP32      -0.2442
     10  CE2      176.2020  118.1220   77.7900 C.ar   32  TRP32       0.0810
     11  CE3      176.6020  115.7850   77.3340 C.ar   32  TRP32       0.0012
     12  CZ2      174.8320  117.9070   77.9390 C.ar   32  TRP32       0.0191
     13  CZ3      175.2420  115.5740   77.4820 C.ar   32  TRP32       0.0001
     14  CH2      174.3740  116.6280   77.7880 C.ar   32  TRP32       0.0015
     15  N        178.2560  117.1610   82.8520 N.3    36  MET36      -0.1245
     16  CA       176.8440  117.4960   82.9740 C.3    36  MET36       0.1570
     17  C        176.2200  116.7320   84.1320 C.2    36  MET36       0.2261
     18  O        175.4680  117.3030   84.9390 O.2    36  MET36      -0.2867
     19  CB       176.1050  117.1840   81.6680 C.3    36  MET36       0.0387
     20  CG       174.7120  117.7810   81.5570 C.3    36  MET36       0.0595
     21  SD       174.7330  119.5690   81.3320 S.3    36  MET36      -0.1393
     22  CE       174.3380  120.1420   82.9820 C.3    36  MET36       0.0692
     23  N        177.3750  118.3090   87.3940 N.3    39  TYR39      -0.1227
     24  CA       176.6850  119.5740   87.6570 C.3    39  TYR39       0.1736
     25  C        175.2670  119.3280   88.1660 C.2    39  TYR39       0.2595
     26  O        174.8330  119.9100   89.1770 O.2    39  TYR39      -0.2718
     27  CB       176.6530  120.4370   86.3900 C.3    39  TYR39       0.0548
     28  CG       175.8410  121.7090   86.5120 C.ar   39  TYR39      -0.0200
     29  CD1      176.3940  122.8610   87.0510 C.ar   39  TYR39      -0.0009
     30  CD2      174.5210  121.7590   86.0710 C.ar   39  TYR39      -0.0009
     31  CE1      175.6540  124.0250   87.1610 C.ar   39  TYR39       0.0417
     32  CE2      173.7740  122.9140   86.1760 C.ar   39  TYR39       0.0417
     33  CZ       174.3450  124.0450   86.7200 C.ar   39  TYR39       0.1957
     34  OH       173.5990  125.1970   86.8210 O.3    39  TYR39      -0.2866
     35  N        174.5480  118.4590   87.4620 N.am   40  GLU40      -0.1979
     36  CA       173.1850  118.1280   87.8510 C.3    40  GLU40       0.1602
     37  C        173.1600  117.5530   89.2650 C.2    40  GLU40       0.2287
     38  O        172.3530  117.9630   90.0960 O.2    40  GLU40      -0.2864
     39  CB       172.5590  117.1470   86.8540 C.3    40  GLU40       0.0415
     40  CG       172.2290  117.7730   85.5100 C.3    40  GLU40       0.1163
     41  CD       171.3710  116.8800   84.6380 C.2    40  GLU40       0.3649
     42  OE1      171.0450  117.2940   83.5060 O.co2  40  GLU40      -0.2457
     43  OE2      171.0170  115.7680   85.0820 O.co2  40  GLU40      -0.2457
     44  N        173.5370  120.1710   91.8160 N.3    43  VAL43      -0.1245
     45  CA       172.4220  121.0930   92.0070 C.3    43  VAL43       0.1561
     46  C        171.1020  120.3810   92.3410 C.2    43  VAL43       0.2260
     47  O        170.1040  121.0280   92.6750 O.2    43  VAL43      -0.2867
     48  CB       172.2290  121.9840   90.7510 C.3    43  VAL43       0.0252
     49  CG1      171.3870  121.2700   89.7040 C.3    43  VAL43       0.0019
     50  CG2      171.6020  123.3190   91.1270 C.3    43  VAL43       0.0019
     51  N        163.2110  120.0900   88.1980 N.3    57  GLN57      -0.1231
     52  CA       164.4830  120.6880   88.6010 C.3    57  GLN57       0.1698
     53  C        165.4440  120.9280   87.4390 C.2    57  GLN57       0.2593
     54  O        166.5870  121.3310   87.6530 O.2    57  GLN57      -0.2718
     55  CB       165.1730  119.8060   89.6400 C.3    57  GLN57       0.0381
     56  CG       164.3550  119.5500   90.8860 C.3    57  GLN57       0.0905
     57  CD       165.1340  118.7860   91.9350 C.2    57  GLN57       0.2608
     58  OE1      166.3170  119.0530   92.1640 O.2    57  GLN57      -0.2717
     59  NE2      164.4800  117.8220   92.5730 N.am   57  GLN57      -0.0878
     60  N        164.9850  120.6830   86.2170 N.am   58  GLY58      -0.1942
     61  CA       165.7770  120.9760   85.0380 C.3    58  GLY58       0.2014
     62  C        166.7990  119.9180   84.6730 C.2    58  GLY58       0.2639
     63  O        167.6890  120.1690   83.8620 O.2    58  GLY58      -0.2714
     64  N        166.6780  118.7330   85.2630 N.am   59  MET59      -0.1963
     65  CA       167.6080  117.6440   84.9730 C.3    59  MET59       0.1736
     66  C        167.4340  117.1430   83.5430 C.2    59  MET59       0.2616
     67  O        166.3170  116.8670   83.1050 O.2    59  MET59      -0.2715
     68  CB       167.4130  116.4930   85.9670 C.3    59  MET59       0.0427
     69  CG       167.5450  116.8910   87.4330 C.3    59  MET59       0.0599
     70  SD       169.2100  117.4220   87.9040 S.3    59  MET59      -0.1393
     71  CE       169.0360  119.1990   87.8640 C.3    59  MET59       0.0692
     72  N        168.5410  117.0230   82.8170 N.am   60  PHE60      -0.1974
     73  CA       168.4810  116.6320   81.4120 C.3    60  PHE60       0.1639
     74  C        169.1430  115.2810   81.1320 C.2    60  PHE60       0.2290
     75  O        168.6890  114.5400   80.2640 O.2    60  PHE60      -0.2864
     76  CB       169.1180  117.7140   80.5380 C.3    60  PHE60       0.0560
     77  CG       169.0810  117.4050   79.0700 C.ar   60  PHE60      -0.0200
     78  CD1      167.8770  117.1880   78.4260 C.ar   60  PHE60      -0.0042
     79  CD2      170.2510  117.3340   78.3340 C.ar   60  PHE60      -0.0042
     80  CE1      167.8390  116.8990   77.0810 C.ar   60  PHE60      -0.0003
     81  CE2      170.2180  117.0490   76.9870 C.ar   60  PHE60      -0.0003
     82  CZ       169.0120  116.8320   76.3600 C.ar   60  PHE60      -0.0000
     83  N        160.9810  130.2770   75.0350 N.3   323  LEU323     -0.1231
     84  CA       162.2880  129.9630   74.4670 C.3   323  LEU323      0.1693
     85  C        163.4490  130.5600   75.2620 C.2   323  LEU323      0.2592
     86  O        164.5190  129.9610   75.3460 O.2   323  LEU323     -0.2718
     87  CB       162.3580  130.4430   73.0140 C.3   323  LEU323      0.0284
     88  CG       163.6330  130.1160   72.2330 C.3   323  LEU323      0.0019
     89  CD1      163.8960  128.6170   72.2300 C.3   323  LEU323      0.0001
     90  CD2      163.5380  130.6420   70.8160 C.3   323  LEU323      0.0001
     91  N        163.2410  131.7350   75.8430 N.am  324  PHE324     -0.1976
     92  CA       164.3120  132.4090   76.5710 C.3   324  PHE324      0.1639
     93  C        164.0180  132.5380   78.0630 C.2   324  PHE324      0.2290
     94  O        164.6520  133.3240   78.7650 O.2   324  PHE324     -0.2864
     95  CB       164.5770  133.7850   75.9590 C.3   324  PHE324      0.0560
     96  CG       165.0420  133.7230   74.5330 C.ar  324  PHE324     -0.0200
     97  CD1      166.3380  133.3350   74.2320 C.ar  324  PHE324     -0.0042
     98  CD2      164.1810  134.0410   73.4930 C.ar  324  PHE324     -0.0042
     99  CE1      166.7670  133.2700   72.9180 C.ar  324  PHE324     -0.0003
    100  CE2      164.6080  133.9790   72.1790 C.ar  324  PHE324     -0.0003
    101  CZ       165.9010  133.5920   71.8910 C.ar  324  PHE324     -0.0000
    102  N        164.9100  130.8960   80.9560 N.3   326  ALA326     -0.1231
    103  CA       165.9350  129.9250   81.3020 C.3   326  ALA326      0.1694
    104  C        165.6850  129.2680   82.6540 C.2   326  ALA326      0.2593
    105  O        165.0360  129.8440   83.5280 O.2   326  ALA326     -0.2718
    106  CB       167.2990  130.5870   81.2890 C.3   326  ALA326      0.0304
    107  N        166.2030  128.0550   82.8120 N.am  327  GLY327     -0.1943
    108  CA       166.1910  127.3850   84.0970 C.3   327  GLY327      0.1998
    109  C        165.2020  126.2470   84.2240 C.2   327  GLY327      0.2480
    110  O        164.5420  125.8710   83.2540 O.2   327  GLY327     -0.2729
    111  N        165.1010  125.6840   85.4350 N.am  328  PRO328     -0.2726
    112  CA       164.1480  124.6250   85.7730 C.3   328  PRO328      0.1402
    113  C        162.7400  125.1830   85.9250 C.2   328  PRO328      0.2269
    114  O        162.5800  126.4010   86.0120 O.2   328  PRO328     -0.2865
    115  CB       164.6740  124.1010   87.1100 C.3   328  PRO328      0.0296
    116  CG       165.3420  125.2760   87.7220 C.3   328  PRO328      0.0237
    117  CD       165.9540  126.0440   86.5820 C.3   328  PRO328      0.0939
    118  N        162.0640  119.1810   80.6040 N.3   446  PRO446     -0.2116
    119  CA       163.0720  118.4970   79.7870 C.3   446  PRO446      0.1372
    120  C        162.4860  117.8960   78.5090 C.2   446  PRO446      0.2244
    121  O        163.1780  117.8330   77.4910 O.2   446  PRO446     -0.2868
    122  CB       163.5820  117.4000   80.7180 C.3   446  PRO446      0.0268
    123  CG       163.4470  117.9890   82.0670 C.3   446  PRO446      0.0207
    124  CD       162.2170  118.8600   82.0350 C.3   446  PRO446      0.0892
    125  N        162.3200  120.8390   75.9460 N.3   449  TRP449     -0.1227
    126  CA       163.6510  121.2240   75.4870 C.3   449  TRP449      0.1737
    127  C        164.2500  120.1640   74.5710 C.2   449  TRP449      0.2595
    128  O        164.8190  120.4890   73.5220 O.2   449  TRP449     -0.2718
    129  CB       164.5780  121.4820   76.6770 C.3   449  TRP449      0.0564
    130  CG       164.3680  122.8250   77.3050 C.ar  449  TRP449      0.0003
    131  CD1      163.9360  123.0790   78.5730 C.ar  449  TRP449      0.0946
    132  CD2      164.5650  124.0990   76.6840 C.ar  449  TRP449      0.0152
    133  NE1      163.8590  124.4350   78.7850 N.ar  449  TRP449     -0.2442
    134  CE2      164.2400  125.0850   77.6370 C.ar  449  TRP449      0.0810
    135  CE3      164.9890  124.5040   75.4140 C.ar  449  TRP449      0.0012
    136  CZ2      164.3220  126.4470   77.3650 C.ar  449  TRP449      0.0191
    137  CZ3      165.0720  125.8570   75.1420 C.ar  449  TRP449      0.0001
    138  CH2      164.7410  126.8130   76.1150 C.ar  449  TRP449      0.0015
    139  N        164.1060  118.9000   74.9630 N.am  450  PHE450     -0.1976
    140  CA       164.5930  117.7950   74.1510 C.3   450  PHE450      0.1639
    141  C        163.9360  117.8190   72.7780 C.2   450  PHE450      0.2290
    142  O        164.6220  117.7710   71.7460 O.2   450  PHE450     -0.2864
    143  CB       164.3290  116.4510   74.8330 C.3   450  PHE450      0.0560
    144  CG       164.9180  115.2780   74.0980 C.ar  450  PHE450     -0.0200
    145  CD1      164.2370  114.6860   73.0440 C.ar  450  PHE450     -0.0042
    146  CD2      166.1590  114.7740   74.4510 C.ar  450  PHE450     -0.0042
    147  CE1      164.7830  113.6180   72.3590 C.ar  450  PHE450     -0.0003
    148  CE2      166.7040  113.6970   73.7730 C.ar  450  PHE450     -0.0003
    149  CZ       166.0160  113.1250   72.7220 C.ar  450  PHE450     -0.0000
    150  N        162.4290  120.2220   71.1810 N.3   452  PHE452     -0.1227
    151  CA       162.8520  121.4070   70.4380 C.3   452  PHE452      0.1736
    152  C        164.2270  121.2120   69.7970 C.2   452  PHE452      0.2596
    153  O        164.3840  121.2650   68.5520 O.2   452  PHE452     -0.2718
    154  CB       162.8550  122.6170   71.3760 C.3   452  PHE452      0.0547
    155  CG       163.4550  123.8590   70.7810 C.ar  452  PHE452     -0.0202
    156  CD1      162.7340  124.6360   69.8900 C.ar  452  PHE452     -0.0042
    157  CD2      164.7280  124.2690   71.1400 C.ar  452  PHE452     -0.0042
    158  CE1      163.2810  125.7870   69.3520 C.ar  452  PHE452     -0.0003
    159  CE2      165.2780  125.4200   70.6080 C.ar  452  PHE452     -0.0003
    160  CZ       164.5530  126.1810   69.7120 C.ar  452  PHE452     -0.0000
    161  N        165.2120  120.9660   70.6600 N.am  453  GLY453     -0.1942
    162  CA       166.5810  120.7610   70.2310 C.3   453  GLY453      0.2014
    163  C        166.7030  119.7270   69.1290 C.2   453  GLY453      0.2638
    164  O        167.3600  119.9630   68.1100 O.2   453  GLY453     -0.2714
    165  N        166.0420  118.5880   69.3140 N.am  454  HIS454     -0.1973
    166  CA       166.2050  117.4810   68.3780 C.3   454  HIS454      0.1656
    167  C        165.4240  117.6520   67.0800 C.2   454  HIS454      0.2291
    168  O        165.8670  117.1950   66.0260 O.2   454  HIS454     -0.2864
    169  CB       165.8260  116.1710   69.0540 C.3   454  HIS454      0.0771
    170  CG       166.8840  115.6650   69.9750 C.ar  454  HIS454      0.0820
    171  ND1      167.2120  116.3050   71.1480 N.ar  454  HIS454     -0.2267
    172  CD2      167.7180  114.6040   69.8730 C.ar  454  HIS454      0.1154
    173  CE1      168.1990  115.6520   71.7400 C.ar  454  HIS454      0.1986
    174  NE2      168.5130  114.6110   70.9900 N.ar  454  HIS454     -0.2212
    175  N        167.5950  120.2270   65.2110 N.3   457  PHE457     -0.1241
    176  CA       168.8120  119.5430   64.7840 C.3   457  PHE457      0.1605
    177  C        168.5170  118.6130   63.6120 C.2   457  PHE457      0.2264
    178  O        169.3040  118.5140   62.6800 O.2   457  PHE457     -0.2867
    179  CB       169.4360  118.7600   65.9460 C.3   457  PHE457      0.0534
    180  CG       170.1980  119.6170   66.9190 C.ar  457  PHE457     -0.0203
    181  CD1      170.7510  120.8190   66.5150 C.ar  457  PHE457     -0.0042
    182  CD2      170.3570  119.2210   68.2390 C.ar  457  PHE457     -0.0042
    183  CE1      171.4480  121.6100   67.4060 C.ar  457  PHE457     -0.0003
    184  CE2      171.0510  120.0100   69.1360 C.ar  457  PHE457     -0.0003
    185  CZ       171.5980  121.2040   68.7190 C.ar  457  PHE457     -0.0000
@<TRIPOS>BOND
     1   178   177    2
     2   177   176    1
     3   176   175    1
     4   176   179    1
     5   179   180    1
     6   168   167    2
     7   181   180   ar
     8   181   183   ar
     9   180   182   ar
    10   167   166    1
    11   183   185   ar
    12   164   163    2
    13   182   184   ar
    14   166   169    1
    15   166   165    1
    16   153   152    2
    17   185   184   ar
    18   169   170    1
    19   163   165   am
    20   163   162    1
    21   158   160   ar
    22   158   156   ar
    23   160   159   ar
    24   152   151    1
    25   152   161   am
    26   172   170   ar
    27   172   174   ar
    28   156   155   ar
    29   170   171   ar
    30   162   161    1
    31   151   150    1
    32   151   154    1
    33   159   157   ar
    34   155   157   ar
    35   155   154    1
    36    90    88    1
    37   174   173   ar
    38   171   173   ar
    39   142   141    2
    40   101   100   ar
    41   101    99   ar
    42   100    98   ar
    43    89    88    1
    44    88    87    1
    45   147   149   ar
    46   147   145   ar
    47   149   148   ar
    48   141   140    1
    49    99    97   ar
    50    87    84    1
    51   145   144   ar
    52    98    96   ar
    53   128   127    2
    54   148   146   ar
    55   144   146   ar
    56   144   143    1
    57   140   143    1
    58   140   139    1
    59    97    96   ar
    60    84    83    1
    61    84    85    1
    62    96    95    1
    63   127   139   am
    64   127   126    1
    65   137   135   ar
    66   137   138   ar
    67    85    86    2
    68    85    91   am
    69   135   132   ar
    70   126   125    1
    71   126   129    1
    72    91    92    1
    73    95    92    1
    74   138   136   ar
    75    82    81   ar
    76    82    80   ar
    77    92    93    1
    78   129   130    1
    79   132   130   ar
    80   132   134   ar
    81    81    79   ar
    82    80    78   ar
    83     5     6    1
    84     5     2    1
    85   130   131   ar
    86    11    13   ar
    87    11     8   ar
    88   136   134   ar
    89     6     8   ar
    90     6     7   ar
    91    13    14   ar
    92     8    10   ar
    93   121   120    2
    94   134   133   ar
    95     7     9   ar
    96    14    12   ar
    97    10     9   ar
    98    10    12   ar
    99    93    94    2
   100     1     2    1
   101    79    77   ar
   102    78    77   ar
   103     2     3    1
   104   120   119    1
   105   131   133   ar
   106    77    76    1
   107     3     4    2
   108   119   118    1
   109   119   122    1
   110    75    74    2
   111    76    73    1
   112   118   124    1
   113   122   123    1
   114   102   103    1
   115    74    73    1
   116   106   103    1
   117   103   104    1
   118    21    20    1
   119    21    22    1
   120    73    72    1
   121    20    19    1
   122    19    16    1
   123   124   123    1
   124   104   107   am
   125   104   105    2
   126   107   108    1
   127    72    66   am
   128    15    16    1
   129    16    17    1
   130    67    66    2
   131   110   109    2
   132    42    41   ar
   133    66    65    1
   134    63    62    2
   135   108   109    1
   136    17    18    2
   137   109   111   am
   138    41    43   ar
   139    41    40    1
   140    62    61    1
   141    62    64   am
   142    65    64    1
   143    65    68    1
   144    61    60    1
   145   111   112    1
   146   111   117    1
   147    40    39    1
   148   112   113    1
   149   112   115    1
   150   113   114    2
   151    68    69    1
   152    30    32   ar
   153    30    28   ar
   154    32    33   ar
   155    60    53   am
   156    27    28    1
   157    27    24    1
   158    28    29   ar
   159   117   116    1
   160    33    34    1
   161    33    31   ar
   162    39    36    1
   163    29    31   ar
   164   115   116    1
   165    23    24    1
   166    69    70    1
   167    53    54    2
   168    53    52    1
   169    35    36    1
   170    35    25   am
   171    24    25    1
   172    36    37    1
   173    71    70    1
   174    25    26    2
   175    51    52    1
   176    52    55    1
   177    37    38    2
   178    55    56    1
   179    49    48    1
   180    48    50    1
   181    48    45    1
   182    56    57    1
   183    44    45    1
   184    57    58    2
   185    57    59   am
   186    45    46    1
   187    46    47    2
