@<TRIPOS>MOLECULE
tmp/4yuuV29.pdb
 181 179 0 0 0
SMALL
GASTEIGER

@<TRIPOS>ATOM
      1  N        167.9470  109.9230   81.7810 N.3    64  PHE64      -0.1227
      2  CA       168.5200  108.9330   80.8790 C.3    64  PHE64       0.1736
      3  C        169.3330  107.8970   81.6440 C.2    64  PHE64       0.2595
      4  O        169.3860  106.7340   81.2510 O.2    64  PHE64      -0.2718
      5  CB       169.3710  109.6160   79.8090 C.3    64  PHE64       0.0547
      6  CG       168.5620  110.3920   78.8140 C.ar   64  PHE64      -0.0202
      7  CD1      168.0640  109.7780   77.6760 C.ar   64  PHE64      -0.0042
      8  CD2      168.2760  111.7300   79.0260 C.ar   64  PHE64      -0.0042
      9  CE1      167.3090  110.4870   76.7620 C.ar   64  PHE64      -0.0003
     10  CE2      167.5180  112.4440   78.1140 C.ar   64  PHE64      -0.0003
     11  CZ       167.0370  111.8220   76.9810 C.ar   64  PHE64      -0.0000
     12  N        169.9580  108.3160   82.7390 N.am   65  MET65      -0.1979
     13  CA       170.6300  107.3750   83.6280 C.3    65  MET65       0.1605
     14  C        169.5880  106.5460   84.3700 C.2    65  MET65       0.2287
     15  O        169.7790  105.3540   84.6100 O.2    65  MET65      -0.2864
     16  CB       171.5430  108.1020   84.6220 C.3    65  MET65       0.0413
     17  CG       172.8660  108.5490   84.0350 C.3    65  MET65       0.0598
     18  SD       173.8760  109.4900   85.1930 S.3    65  MET65      -0.1393
     19  CE       172.8940  110.9770   85.3620 C.3    65  MET65       0.0692
     20  N        167.6070  103.4430   82.3440 N.3    68  LEU68      -0.1231
     21  CA       168.2330  102.1590   82.0520 C.3    68  LEU68       0.1693
     22  C        168.7760  101.4370   83.2840 C.2    68  LEU68       0.2593
     23  O        169.4010  100.3840   83.1550 O.2    68  LEU68      -0.2718
     24  CB       169.3610  102.3420   81.0310 C.3    68  LEU68       0.0284
     25  CG       168.9890  102.6690   79.5780 C.3    68  LEU68       0.0019
     26  CD1      168.6590  104.1460   79.3930 C.3    68  LEU68       0.0001
     27  CD2      170.1110  102.2520   78.6420 C.3    68  LEU68       0.0001
     28  N        168.5440  101.9900   84.4730 N.am   69  GLY69      -0.1942
     29  CA       168.9220  101.2940   85.6920 C.3    69  GLY69       0.2014
     30  C        169.5830  102.1190   86.7810 C.2    69  GLY69       0.2638
     31  O        169.3390  101.8940   87.9660 O.2    69  GLY69      -0.2714
     32  N        170.4290  103.0660   86.3910 N.am   70  VAL70      -0.1977
     33  CA       171.1040  103.9170   87.3630 C.3    70  VAL70       0.1596
     34  C        170.1100  104.8620   88.0310 C.2    70  VAL70       0.2287
     35  O        169.7600  105.9050   87.4840 O.2    70  VAL70      -0.2864
     36  CB       172.2350  104.7340   86.7110 C.3    70  VAL70       0.0276
     37  CG1      172.9170  105.6210   87.7430 C.3    70  VAL70       0.0022
     38  CG2      173.2420  103.8050   86.0590 C.3    70  VAL70       0.0022
     39  N        179.4230  100.4550   91.9320 N.3    89  LEU89      -0.1231
     40  CA       180.1090  101.3260   90.9900 C.3    89  LEU89       0.1693
     41  C        179.1410  102.2070   90.2070 C.2    89  LEU89       0.2592
     42  O        179.4060  103.3870   89.9850 O.2    89  LEU89      -0.2718
     43  CB       180.9540  100.4980   90.0160 C.3    89  LEU89       0.0284
     44  CG       181.6700  101.2760   88.9130 C.3    89  LEU89       0.0019
     45  CD1      182.5910  102.3260   89.5080 C.3    89  LEU89       0.0001
     46  CD2      182.4450  100.3290   88.0100 C.3    89  LEU89       0.0001
     47  N        178.0120  101.6380   89.8020 N.am   90  TRP90      -0.1976
     48  CA       177.1300  102.3220   88.8630 C.3    90  TRP90       0.1640
     49  C        176.0530  103.1580   89.5370 C.2    90  TRP90       0.2290
     50  O        174.8610  102.9220   89.3560 O.2    90  TRP90      -0.2864
     51  CB       176.4950  101.3080   87.9090 C.3    90  TRP90       0.0576
     52  CG       177.5220  100.5130   87.1690 C.ar   90  TRP90       0.0006
     53  CD1      177.6870   99.1660   87.1990 C.ar   90  TRP90       0.0946
     54  CD2      178.5530  101.0250   86.3120 C.ar   90  TRP90       0.0152
     55  NE1      178.7460   98.7960   86.4040 N.ar   90  TRP90      -0.2442
     56  CE2      179.2930   99.9180   85.8490 C.ar   90  TRP90       0.0810
     57  CE3      178.9110  102.3050   85.8870 C.ar   90  TRP90       0.0012
     58  CZ2      180.3770  100.0570   84.9800 C.ar   90  TRP90       0.0191
     59  CZ3      179.9880  102.4390   85.0240 C.ar   90  TRP90       0.0001
     60  CH2      180.7080  101.3220   84.5810 C.ar   90  TRP90       0.0015
     61  N        178.7850  106.7550   87.0670 N.3    95  VAL95      -0.1245
     62  CA       178.5850  106.9610   85.6350 C.3    95  VAL95       0.1561
     63  C        179.3510  108.1920   85.1570 C.2    95  VAL95       0.2260
     64  O        180.0740  108.1440   84.1490 O.2    95  VAL95      -0.2867
     65  CB       177.0890  107.1180   85.3000 C.3    95  VAL95       0.0252
     66  CG1      176.9060  107.6170   83.8780 C.3    95  VAL95       0.0019
     67  CG2      176.3590  105.8000   85.5100 C.3    95  VAL95       0.0019
     68  N        181.9880  109.8020   86.6050 N.3    97  LEU97      -0.1231
     69  CA       183.4350  109.6330   86.7070 C.3    97  LEU97       0.1693
     70  C        183.9840  108.6800   85.6460 C.2    97  LEU97       0.2593
     71  O        185.0430  108.9360   85.0640 O.2    97  LEU97      -0.2718
     72  CB       183.8120  109.1440   88.1060 C.3    97  LEU97       0.0284
     73  CG       183.5240  110.1360   89.2380 C.3    97  LEU97       0.0019
     74  CD1      183.8970  109.5460   90.5900 C.3    97  LEU97       0.0001
     75  CD2      184.2510  111.4530   89.0040 C.3    97  LEU97       0.0001
     76  N        183.2620  107.5920   85.3840 N.am   98  THR98      -0.1939
     77  CA       183.6790  106.6510   84.3470 C.3    98  THR98       0.2028
     78  C        183.6610  107.3230   82.9820 C.2    98  THR98       0.2642
     79  O        184.5500  107.0910   82.1570 O.2    98  THR98      -0.2714
     80  CB       182.7870  105.3920   84.3000 C.3    98  THR98       0.1808
     81  OG1      181.4070  105.7750   84.2490 O.3    98  THR98      -0.2208
     82  CG2      183.0290  104.5250   85.5230 C.3    98  THR98       0.0379
     83  N        182.6570  108.1640   82.7450 N.am   99  HIS99      -0.1973
     84  CA       182.6160  108.9190   81.4970 C.3    99  HIS99       0.1656
     85  C        183.7960  109.8770   81.3710 C.2    99  HIS99       0.2291
     86  O        184.3390  110.0660   80.2780 O.2    99  HIS99      -0.2864
     87  CB       181.3030  109.6810   81.3790 C.3    99  HIS99       0.0771
     88  CG       180.2040  108.8700   80.7810 C.ar   99  HIS99       0.0820
     89  ND1      179.3960  108.0410   81.5300 N.ar   99  HIS99      -0.2267
     90  CD2      179.7900  108.7360   79.4990 C.ar   99  HIS99       0.1154
     91  CE1      178.5240  107.4440   80.7380 C.ar   99  HIS99       0.1986
     92  NE2      178.7470  107.8520   79.4990 N.ar   99  HIS99      -0.2212
     93  N        186.8540  109.4810   82.8330 N.3   101  VAL101     -0.1231
     94  CA       188.0390  108.6630   82.5840 C.3   101  VAL101      0.1692
     95  C        188.0800  108.2160   81.1210 C.2   101  VAL101      0.2591
     96  O        189.1230  108.2900   80.4550 O.2   101  VAL101     -0.2718
     97  CB       188.0810  107.4290   83.5120 C.3   101  VAL101      0.0266
     98  CG1      189.2750  106.5510   83.1860 C.3   101  VAL101      0.0020
     99  CG2      188.1360  107.8670   84.9600 C.3   101  VAL101      0.0020
    100  N        186.9300  107.7660   80.6280 N.am  102  LEU102     -0.1980
    101  CA       186.7870  107.3910   79.2280 C.3   102  LEU102      0.1596
    102  C        187.1930  108.5420   78.3140 C.2   102  LEU102      0.2287
    103  O        187.9220  108.3440   77.3390 O.2   102  LEU102     -0.2864
    104  CB       185.3500  106.9630   78.9290 C.3   102  LEU102      0.0297
    105  CG       185.0540  106.5730   77.4810 C.3   102  LEU102      0.0022
    106  CD1      185.9390  105.4190   77.0410 C.3   102  LEU102      0.0001
    107  CD2      183.5840  106.2160   77.3200 C.3   102  LEU102      0.0001
    108  N        191.0340  108.8380   78.2950 N.3   105  LEU105     -0.1245
    109  CA       191.6460  107.7770   77.5010 C.3   105  LEU105      0.1561
    110  C        191.4720  108.0160   76.0010 C.2   105  LEU105      0.2260
    111  O        192.4270  107.8810   75.2250 O.2   105  LEU105     -0.2867
    112  CB       191.0640  106.4170   77.8910 C.3   105  LEU105      0.0270
    113  CG       191.4330  105.9520   79.3020 C.3   105  LEU105      0.0019
    114  CD1      190.7860  104.6160   79.6210 C.3   105  LEU105      0.0001
    115  CD2      192.9420  105.8660   79.4480 C.3   105  LEU105      0.0001
    116  N        175.7640   94.1410   69.6010 N.3   148  LEU148     -0.1245
    117  CA       175.5240   94.9500   70.7900 C.3   148  LEU148      0.1561
    118  C        174.0320   95.2000   70.9960 C.2   148  LEU148      0.2260
    119  O        173.5560   95.2690   72.1300 O.2   148  LEU148     -0.2867
    120  CB       176.2760   96.2770   70.6870 C.3   148  LEU148      0.0270
    121  CG       176.2960   97.1600   71.9340 C.3   148  LEU148      0.0019
    122  CD1      176.8470   96.3900   73.1240 C.3   148  LEU148      0.0001
    123  CD2      177.1190   98.4120   71.6820 C.3   148  LEU148      0.0001
    124  N        172.4910   91.9390   72.2310 N.3   151  GLY151     -0.1210
    125  CA       172.9150   91.7980   73.6110 C.3   151  GLY151      0.1956
    126  C        172.1330   92.6950   74.5510 C.2   151  GLY151      0.2611
    127  O        171.7150   92.2660   75.6270 O.2   151  GLY151     -0.2717
    128  N        171.9390   93.9450   74.1440 N.am  152  PHE152     -0.1976
    129  CA       171.2080   94.9070   74.9590 C.3   152  PHE152      0.1639
    130  C        169.7440   94.5130   75.1100 C.2   152  PHE152      0.2290
    131  O        169.1420   94.7100   76.1650 O.2   152  PHE152     -0.2864
    132  CB       171.3110   96.3080   74.3560 C.3   152  PHE152      0.0560
    133  CG       170.4370   97.3240   75.0330 C.ar  152  PHE152     -0.0200
    134  CD1      170.7780   97.8290   76.2780 C.ar  152  PHE152     -0.0042
    135  CD2      169.2760   97.7770   74.4260 C.ar  152  PHE152     -0.0042
    136  CE1      169.9780   98.7640   76.9070 C.ar  152  PHE152     -0.0003
    137  CE2      168.4700   98.7130   75.0480 C.ar  152  PHE152     -0.0003
    138  CZ       168.8230   99.2070   76.2910 C.ar  152  PHE152     -0.0000
    139  N        169.5700   90.8300   77.2990 N.3   155  PHE155     -0.1227
    140  CA       170.1080   90.7330   78.6520 C.3   155  PHE155      0.1736
    141  C        169.7850   91.9450   79.5210 C.2   155  PHE155      0.2595
    142  O        169.2730   91.7950   80.6320 O.2   155  PHE155     -0.2718
    143  CB       171.6210   90.5220   78.5970 C.3   155  PHE155      0.0547
    144  CG       172.0280   89.2830   77.8610 C.ar  155  PHE155     -0.0202
    145  CD1      171.8400   88.0330   78.4260 C.ar  155  PHE155     -0.0042
    146  CD2      172.5980   89.3650   76.6030 C.ar  155  PHE155     -0.0042
    147  CE1      172.2120   86.8870   77.7480 C.ar  155  PHE155     -0.0003
    148  CE2      172.9740   88.2210   75.9220 C.ar  155  PHE155     -0.0003
    149  CZ       172.7790   86.9810   76.4950 C.ar  155  PHE155     -0.0000
    150  N        170.0870   93.1400   79.0230 N.am  156  HIS156     -0.1975
    151  CA       169.8700   94.3530   79.8040 C.3   156  HIS156      0.1656
    152  C        168.3890   94.6330   80.0320 C.2   156  HIS156      0.2291
    153  O        167.9730   94.9760   81.1390 O.2   156  HIS156     -0.2864
    154  CB       170.5070   95.5610   79.1230 C.3   156  HIS156      0.0771
    155  CG       170.4440   96.8110   79.9440 C.ar  156  HIS156      0.0820
    156  ND1      171.5190   97.2810   80.6570 N.ar  156  HIS156     -0.2267
    157  CD2      169.4260   97.6760   80.1820 C.ar  156  HIS156      0.1154
    158  CE1      171.1800   98.3930   81.2890 C.ar  156  HIS156      0.1986
    159  NE2      169.9130   98.6500   81.0210 N.ar  156  HIS156     -0.2212
    160  N        170.3130   89.1770   82.2810 N.3   161  PHE161     -0.1227
    161  CA       171.5770   89.5870   82.8810 C.3   161  PHE161      0.1736
    162  C        171.7080   91.1030   82.7800 C.2   161  PHE161      0.2596
    163  O        172.5280   91.6220   82.0230 O.2   161  PHE161     -0.2718
    164  CB       172.7620   88.8930   82.2100 C.3   161  PHE161      0.0547
    165  CG       174.0570   89.0690   82.9470 C.ar  161  PHE161     -0.0202
    166  CD1      174.2450   88.4830   84.1870 C.ar  161  PHE161     -0.0042
    167  CD2      175.0870   89.8160   82.4020 C.ar  161  PHE161     -0.0042
    168  CE1      175.4360   88.6420   84.8720 C.ar  161  PHE161     -0.0003
    169  CE2      176.2810   89.9770   83.0810 C.ar  161  PHE161     -0.0003
    170  CZ       176.4550   89.3890   84.3180 C.ar  161  PHE161     -0.0000
    171  N        170.8770   91.8030   83.5450 N.am  162  GLY162     -0.1943
    172  CA       170.8360   93.2520   83.5210 C.3   162  GLY162      0.1998
    173  C        169.7470   93.7810   84.4360 C.2   162  GLY162      0.2480
    174  O        168.9410   93.0100   84.9560 O.2   162  GLY162     -0.2729
    175  N        169.7160   95.1060   84.6370 N.am  163  PRO163     -0.2726
    176  CA       168.7660   95.7450   85.5530 C.3   163  PRO163      0.1402
    177  C        167.3350   95.7720   85.0230 C.2   163  PRO163      0.2269
    178  O        166.4020   95.4780   85.7660 O.2   163  PRO163     -0.2865
    179  CB       169.3150   97.1650   85.6880 C.3   163  PRO163      0.0296
    180  CG       170.0480   97.4030   84.4100 C.3   163  PRO163      0.0237
    181  CD       170.6380   96.0780   84.0240 C.3   163  PRO163      0.0939
@<TRIPOS>BOND
     1   116   117    1
     2   120   117    1
     3   120   121    1
     4   117   118    1
     5   118   119    2
     6   123   121    1
     7   121   122    1
     8   124   125    1
     9   125   126    1
    10   128   126   am
    11   128   129    1
    12   132   129    1
    13   132   133    1
    14   135   133   ar
    15   135   137   ar
    16   126   127    2
    17   129   130    1
    18   133   134   ar
    19   137   138   ar
    20   130   131    2
    21   111   110    2
    22   148   149   ar
    23   148   146   ar
    24   110   109    1
    25   134   136   ar
    26   138   136   ar
    27   149   147   ar
    28   146   144   ar
    29     9    11   ar
    30     9     7   ar
    31    11    10   ar
    32   106   105    1
    33   139   140    1
    34   107   105    1
    35   103   102    2
    36   105   104    1
    37   109   112    1
    38   109   108    1
    39     7     6   ar
    40   147   145   ar
    41   144   145   ar
    42   144   143    1
    43   112   113    1
    44    10     8   ar
    45   102   101    1
    46   143   140    1
    47    27    25    1
    48   140   141    1
    49     6     8   ar
    50     6     5    1
    51   104   101    1
    52   150   141   am
    53   150   151    1
    54   154   151    1
    55   154   155    1
    56   101   100    1
    57   113   115    1
    58   113   114    1
    59    26    25    1
    60    92    90   ar
    61    92    91   ar
    62    90    88   ar
    63   141   142    2
    64    25    24    1
    65   151   152    1
    66     5     2    1
    67   155   157   ar
    68   155   156   ar
    69   152   153    2
    70   157   159   ar
    71    86    85    2
    72    96    95    2
    73   100    95   am
    74   156   158   ar
    75    91    89   ar
    76    88    87    1
    77    88    89   ar
    78     2     3    1
    79     2     1    1
    80   159   158   ar
    81    24    21    1
    82    95    94    1
    83     4     3    2
    84    85    84    1
    85    87    84    1
    86    84    83    1
    87     3    12   am
    88   163   162    2
    89    21    20    1
    90    21    22    1
    91    79    78    2
    92   164   161    1
    93   164   165    1
    94   160   161    1
    95   167   165   ar
    96   167   169   ar
    97    94    93    1
    98    94    97    1
    99    12    13    1
   100    83    78   am
   101   162   161    1
   102   162   171   am
   103   165   166   ar
   104    78    77    1
   105   169   170   ar
   106    23    22    2
   107    98    97    1
   108    22    28   am
   109    97    99    1
   110   172   171    1
   111   172   173    1
   112    13    14    1
   113    13    16    1
   114    66    65    1
   115   181   180    1
   116   181   175    1
   117    17    16    1
   118    17    18    1
   119    64    63    2
   120   166   168   ar
   121    81    80    1
   122    80    77    1
   123    80    82    1
   124   170   168   ar
   125    77    76    1
   126    14    15    2
   127   180   179    1
   128   173   175   am
   129   173   174    2
   130    28    29    1
   131    60    58   ar
   132    60    59   ar
   133   175   176    1
   134    58    56   ar
   135   177   176    1
   136   177   178    2
   137    59    57   ar
   138    71    70    2
   139    63    62    1
   140    18    19    1
   141    65    67    1
   142    65    62    1
   143    76    70   am
   144   176   179    1
   145    62    61    1
   146    70    69    1
   147    29    30    1
   148    56    54   ar
   149    56    55   ar
   150    57    54   ar
   151    38    36    1
   152    54    52   ar
   153    32    30   am
   154    32    33    1
   155    55    53   ar
   156    68    69    1
   157    69    72    1
   158    36    33    1
   159    36    37    1
   160    30    31    2
   161    52    53   ar
   162    52    51    1
   163    33    34    1
   164    35    34    2
   165    51    48    1
   166    46    44    1
   167    72    73    1
   168    48    49    1
   169    48    47    1
   170    44    45    1
   171    44    43    1
   172    75    73    1
   173    73    74    1
   174    50    49    2
   175    47    41   am
   176    42    41    2
   177    43    40    1
   178    41    40    1
   179    40    39    1
