@<TRIPOS>MOLECULE
tmp/4yuuA08.pdb
 81 78 0 0 0
SMALL
GASTEIGER

@<TRIPOS>ATOM
      1  N        215.9040  134.5940  102.2390 N.3   206  PHE206     -0.1241
      2  CA       216.2450  135.9730  101.9050 C.3   206  PHE206      0.1605
      3  C        217.5700  135.9880  101.1650 C.2   206  PHE206      0.2264
      4  O        217.7040  136.6300  100.1250 O.2   206  PHE206     -0.2867
      5  CB       216.3380  136.8500  103.1570 C.3   206  PHE206      0.0534
      6  CG       215.0170  137.3850  103.6370 C.ar  206  PHE206     -0.0203
      7  CD1      213.8440  137.1090  102.9530 C.ar  206  PHE206     -0.0042
      8  CD2      214.9530  138.1800  104.7720 C.ar  206  PHE206     -0.0042
      9  CE1      212.6290  137.6050  103.3990 C.ar  206  PHE206     -0.0003
     10  CE2      213.7420  138.6810  105.2180 C.ar  206  PHE206     -0.0003
     11  CZ       212.5810  138.3920  104.5310 C.ar  206  PHE206     -0.0000
     12  N        217.2280  134.3550   97.6580 N.3   209  ALA209     -0.1231
     13  CA       216.6590  135.2890   96.6940 C.3   209  ALA209      0.1694
     14  C        217.6690  136.3730   96.3260 C.2   209  ALA209      0.2592
     15  O        217.7530  136.7930   95.1680 O.2   209  ALA209     -0.2718
     16  CB       215.3850  135.9150   97.2480 C.3   209  ALA209      0.0304
     17  N        218.4360  136.8120   97.3210 N.am  210  LEU210     -0.1966
     18  CA       219.4570  137.8340   97.1190 C.3   210  LEU210      0.1728
     19  C        220.4940  137.3520   96.1200 C.2   210  LEU210      0.2616
     20  O        220.8040  138.0450   95.1570 O.2   210  LEU210     -0.2715
     21  CB       220.1320  138.2030   98.4460 C.3   210  LEU210      0.0311
     22  CG       220.9570  139.4950   98.5570 C.3   210  LEU210      0.0022
     23  CD1      221.2090  139.8390  100.0180 C.3   210  LEU210      0.0001
     24  CD2      222.2860  139.4290   97.8150 C.3   210  LEU210      0.0001
     25  N        221.0270  136.1610   96.3610 N.am  211  PHE211     -0.1974
     26  CA       222.0890  135.6090   95.5330 C.3   211  PHE211      0.1639
     27  C        221.5660  135.2150   94.1550 C.2   211  PHE211      0.2290
     28  O        222.2990  135.2570   93.1700 O.2   211  PHE211     -0.2864
     29  CB       222.7300  134.4080   96.2310 C.3   211  PHE211      0.0560
     30  CG       223.3350  134.7380   97.5680 C.ar  211  PHE211     -0.0200
     31  CD1      223.8940  135.9840   97.8000 C.ar  211  PHE211     -0.0042
     32  CD2      223.3360  133.8080   98.5950 C.ar  211  PHE211     -0.0042
     33  CE1      224.4470  136.2950   99.0290 C.ar  211  PHE211     -0.0003
     34  CE2      223.8860  134.1160   99.8320 C.ar  211  PHE211     -0.0003
     35  CZ       224.4440  135.3600  100.0460 C.ar  211  PHE211     -0.0000
     36  N        219.0870  136.8970   92.5620 N.3   213  ALA213     -0.1231
     37  CA       219.0030  138.1790   91.8730 C.3   213  ALA213      0.1694
     38  C        220.3820  138.7160   91.5090 C.2   213  ALA213      0.2591
     39  O        220.5580  139.3310   90.4600 O.2   213  ALA213     -0.2718
     40  CB       218.2590  139.1870   92.7290 C.3   213  ALA213      0.0304
     41  N        221.3540  138.4730   92.3840 N.am  214  MET214     -0.1979
     42  CA       222.7110  138.9830   92.2150 C.3   214  MET214      0.1605
     43  C        223.4160  138.2790   91.0630 C.2   214  MET214      0.2287
     44  O        223.9100  138.9240   90.1420 O.2   214  MET214     -0.2864
     45  CB       223.5140  138.8080   93.5060 C.3   214  MET214      0.0413
     46  CG       224.8190  139.5930   93.5430 C.3   214  MET214      0.0598
     47  SD       224.5520  141.3610   93.7900 S.3   214  MET214     -0.1393
     48  CE       226.1940  142.0000   93.4760 C.3   214  MET214      0.0692
     49  N        221.6600  139.1340   87.7840 N.3   217  SER217     -0.1217
     50  CA       221.9570  140.4810   87.3170 C.3   217  SER217      0.1889
     51  C        223.3810  140.5840   86.7870 C.2   217  SER217      0.2288
     52  O        223.6220  141.2490   85.7830 O.2   217  SER217     -0.2866
     53  CB       221.7320  141.5010   88.4340 C.3   217  SER217      0.2089
     54  OG       222.5530  141.2260   89.5540 O.3   217  SER217     -0.2183
     55  N        231.8110  143.1850   90.3090 N.3   255  PHE255     -0.1241
     56  CA       231.5490  142.7910   91.6890 C.3   255  PHE255      0.1605
     57  C        232.7070  143.2180   92.5850 C.2   255  PHE255      0.2264
     58  O        232.5050  143.6420   93.7240 O.2   255  PHE255     -0.2867
     59  CB       231.3320  141.2790   91.7830 C.3   255  PHE255      0.0534
     60  CG       230.6220  140.8390   93.0350 C.ar  255  PHE255     -0.0203
     61  CD1      230.0230  141.7640   93.8760 C.ar  255  PHE255     -0.0042
     62  CD2      230.5590  139.4970   93.3740 C.ar  255  PHE255     -0.0042
     63  CE1      229.3730  141.3590   95.0290 C.ar  255  PHE255     -0.0003
     64  CE2      229.9110  139.0860   94.5260 C.ar  255  PHE255     -0.0003
     65  CZ       229.3170  140.0190   95.3530 C.ar  255  PHE255     -0.0000
     66  N        232.4010  146.8530   93.2330 N.3   258  LEU258     -0.1231
     67  CA       231.1760  147.1860   93.9530 C.3   258  LEU258      0.1693
     68  C        231.3970  147.1630   95.4630 C.2   258  LEU258      0.2591
     69  O        230.9300  148.0440   96.1820 O.2   258  LEU258     -0.2718
     70  CB       230.0500  146.2230   93.5680 C.3   258  LEU258      0.0284
     71  CG       228.6720  146.5240   94.1620 C.3   258  LEU258      0.0019
     72  CD1      228.1810  147.8860   93.7010 C.3   258  LEU258      0.0001
     73  CD2      227.6790  145.4380   93.7960 C.3   258  LEU258      0.0001
     74  N        232.1120  146.1480   95.9330 N.am  259  ILE259     -0.1980
     75  CA       232.4320  146.0240   97.3490 C.3   259  ILE259      0.1595
     76  C        233.9410  146.1930   97.5390 C.2   259  ILE259      0.2287
     77  O        234.4220  147.3010   97.7760 O.2   259  ILE259     -0.2864
     78  CB       231.9530  144.6750   97.9110 C.3   259  ILE259      0.0276
     79  CG1      230.4930  144.4380   97.5130 C.3   259  ILE259      0.0022
     80  CG2      232.1100  144.6330   99.4230 C.3   259  ILE259      0.0022
     81  CD1      229.8890  143.1710   98.0790 C.3   259  ILE259      0.0001
@<TRIPOS>BOND
     1    52    51    2
     2    51    50    1
     3    50    49    1
     4    50    53    1
     5    53    54    1
     6    44    43    2
     7    55    56    1
     8    39    38    2
     9    43    42    1
    10    38    37    1
    11    38    41   am
    12    56    59    1
    13    56    57    1
    14    59    60    1
    15    37    36    1
    16    37    40    1
    17    42    41    1
    18    42    45    1
    19    57    58    2
    20    60    62   ar
    21    60    61   ar
    22    28    27    2
    23    66    67    1
    24    62    64   ar
    25    48    47    1
    26    45    46    1
    27    46    47    1
    28    70    67    1
    29    70    71    1
    30    72    71    1
    31    73    71    1
    32    61    63   ar
    33    67    68    1
    34    27    26    1
    35    64    65   ar
    36    63    65   ar
    37    20    19    2
    38    15    14    2
    39    68    74   am
    40    68    69    2
    41    26    29    1
    42    26    25    1
    43    74    75    1
    44    19    25   am
    45    19    18    1
    46    29    30    1
    47    14    13    1
    48    14    17   am
    49    13    16    1
    50    13    12    1
    51    18    17    1
    52    18    21    1
    53    75    76    1
    54    75    78    1
    55    79    78    1
    56    79    81    1
    57    76    77    2
    58    30    31   ar
    59    30    32   ar
    60    31    33   ar
    61    24    22    1
    62    78    80    1
    63    21    22    1
    64    22    23    1
    65    32    34   ar
    66    33    35   ar
    67    34    35   ar
    68     4     3    2
    69     3     2    1
    70     2     1    1
    71     2     5    1
    72     7     9   ar
    73     7     6   ar
    74     5     6    1
    75     9    11   ar
    76     6     8   ar
    77    11    10   ar
    78     8    10   ar
