@<TRIPOS>MOLECULE
tmp/4yuuW05.pdb
 130 128 0 0 0
SMALL
GASTEIGER

@<TRIPOS>ATOM
      1  N        119.0490  162.9850   47.5540 N.3    55  LYS55      -0.1245
      2  CA       120.2250  162.4830   48.2590 C.3    55  LYS55       0.1561
      3  C        121.4030  163.4290   48.0840 C.2    55  LYS55       0.2260
      4  O        121.5410  164.0650   47.0380 O.2    55  LYS55      -0.2867
      5  CB       120.6030  161.0850   47.7680 C.3    55  LYS55       0.0271
      6  CG       119.6120  159.9990   48.1470 C.3    55  LYS55       0.0035
      7  CD       120.1550  158.6230   47.7990 C.3    55  LYS55       0.0206
      8  CE       121.4670  158.3540   48.5210 C.3    55  LYS55       0.1093
      9  NZ       121.9870  156.9850   48.2550 N.3    55  LYS55      -0.1314
     10  N        127.6390  163.4400   47.8740 N.3    58  TYR58      -0.1227
     11  CA       128.7140  162.5750   48.3460 C.3    58  TYR58       0.1736
     12  C        128.2530  161.1560   48.6850 C.2    58  TYR58       0.2595
     13  O        129.0770  160.2780   48.9450 O.2    58  TYR58      -0.2718
     14  CB       129.4080  163.2050   49.5580 C.3    58  TYR58       0.0548
     15  CG       128.5010  163.6340   50.6920 C.ar   58  TYR58      -0.0200
     16  CD1      128.0040  162.7090   51.6030 C.ar   58  TYR58      -0.0009
     17  CD2      128.1710  164.9720   50.8730 C.ar   58  TYR58      -0.0009
     18  CE1      127.1880  163.1010   52.6500 C.ar   58  TYR58       0.0417
     19  CE2      127.3590  165.3730   51.9200 C.ar   58  TYR58       0.0417
     20  CZ       126.8710  164.4340   52.8040 C.ar   58  TYR58       0.1957
     21  OH       126.0590  164.8320   53.8420 O.3    58  TYR58      -0.2866
     22  N        126.9440  160.9280   48.6750 N.am   59  GLU59      -0.1965
     23  CA       126.4150  159.5870   48.8950 C.3    59  GLU59       0.1733
     24  C        126.2490  158.8330   47.5790 C.2    59  GLU59       0.2616
     25  O        125.9490  157.6390   47.5760 O.2    59  GLU59      -0.2715
     26  CB       125.0720  159.6420   49.6240 C.3    59  GLU59       0.0429
     27  CG       125.1400  160.0900   51.0740 C.3    59  GLU59       0.1163
     28  CD       123.8220  159.8810   51.8070 C.2    59  GLU59       0.3649
     29  OE1      122.8910  159.3020   51.2040 O.co2  59  GLU59      -0.2457
     30  OE2      123.7170  160.2910   52.9840 O.co2  59  GLU59      -0.2457
     31  N        126.4470  159.5300   46.4630 N.am   60  GLN60      -0.1963
     32  CA       126.1430  158.9620   45.1530 C.3    60  GLN60       0.1733
     33  C        127.3740  158.7720   44.2730 C.2    60  GLN60       0.2616
     34  O        127.2550  158.4180   43.1010 O.2    60  GLN60      -0.2715
     35  CB       125.1260  159.8420   44.4270 C.3    60  GLN60       0.0408
     36  CG       123.8670  160.1250   45.2300 C.3    60  GLN60       0.0908
     37  CD       122.8200  160.8560   44.4230 C.2    60  GLN60       0.2608
     38  OE1      122.4790  160.4480   43.3110 O.2    60  GLN60      -0.2717
     39  NE2      122.3050  161.9500   44.9740 N.am   60  GLN60      -0.0878
     40  N        128.5520  159.0040   44.8390 N.am   61  GLY61      -0.1955
     41  CA       129.7960  158.7890   44.1240 C.3    61  GLY61       0.1869
     42  C        130.0370  159.7960   43.0170 C.2    61  GLY61       0.2309
     43  O        130.4340  159.4320   41.9100 O.2    61  GLY61      -0.2863
     44  N        137.8960  149.3680   49.7440 N.3   380  LEU380     -0.1231
     45  CA       138.1120  149.4990   48.3110 C.3   380  LEU380      0.1693
     46  C        136.8540  149.1190   47.5370 C.2   380  LEU380      0.2592
     47  O        136.5830  149.6700   46.4710 O.2   380  LEU380     -0.2718
     48  CB       139.2940  148.6320   47.8720 C.3   380  LEU380      0.0284
     49  CG       139.8180  148.8400   46.4510 C.3   380  LEU380      0.0019
     50  CD1      140.3810  150.2440   46.2920 C.3   380  LEU380      0.0001
     51  CD2      140.8680  147.7950   46.1170 C.3   380  LEU380      0.0001
     52  N        136.0860  148.1780   48.0790 N.am  381  ASN381     -0.1960
     53  CA       134.8240  147.7840   47.4600 C.3   381  ASN381      0.1819
     54  C        133.6580  148.5930   48.0180 C.2   381  ASN381      0.2622
     55  O        132.5120  148.1410   48.0160 O.2   381  ASN381     -0.2715
     56  CB       134.5710  146.2860   47.6410 C.3   381  ASN381      0.1195
     57  CG       134.5600  145.8640   49.0930 C.2   381  ASN381      0.2630
     58  OD1      135.1710  146.5090   49.9460 O.2   381  ASN381     -0.2716
     59  ND2      133.8680  144.7680   49.3820 N.am  381  ASN381     -0.0877
     60  N        133.9740  149.7920   48.5010 N.am  382  SER382     -0.1950
     61  CA       132.9800  150.7840   48.9100 C.3   382  SER382      0.1924
     62  C        132.0660  150.3300   50.0460 C.2   382  SER382      0.2314
     63  O        130.8890  150.6870   50.0820 O.2   382  SER382     -0.2863
     64  CB       132.1340  151.2070   47.7070 C.3   382  SER382      0.2116
     65  OG       132.9090  151.9440   46.7740 O.3   382  SER382     -0.2180
     66  N        126.8860  151.2070   51.5430 N.3   394  ASN394     -0.1225
     67  CA       127.6840  151.3670   50.3410 C.3   394  ASN394      0.1785
     68  C        128.1700  152.8070   50.2270 C.2   394  ASN394      0.2597
     69  O        127.4360  153.6750   49.7550 O.2   394  ASN394     -0.2718
     70  CB       126.8620  150.9680   49.1150 C.3   394  ASN394      0.1169
     71  CG       127.6890  150.8960   47.8480 C.2   394  ASN394      0.2627
     72  OD1      128.9080  150.7300   47.8920 O.2   394  ASN394     -0.2716
     73  ND2      127.0230  151.0120   46.7030 N.am  394  ASN394     -0.0877
     74  N        129.4000  153.0670   50.6690 N.am  395  TYR395     -0.1962
     75  CA       129.8900  154.4420   50.7470 C.3   395  TYR395      0.1771
     76  C        131.4080  154.5890   50.8720 C.2   395  TYR395      0.2619
     77  O        132.0370  153.9960   51.7490 O.2   395  TYR395     -0.2715
     78  CB       129.2260  155.1500   51.9280 C.3   395  TYR395      0.0574
     79  CG       129.7650  156.5340   52.2220 C.ar  395  TYR395     -0.0198
     80  CD1      129.4750  157.6060   51.3890 C.ar  395  TYR395     -0.0009
     81  CD2      130.5400  156.7720   53.3480 C.ar  395  TYR395     -0.0009
     82  CE1      129.9560  158.8740   51.6620 C.ar  395  TYR395      0.0417
     83  CE2      131.0240  158.0350   53.6300 C.ar  395  TYR395      0.0417
     84  CZ       130.7290  159.0810   52.7820 C.ar  395  TYR395      0.1957
     85  OH       131.2070  160.3420   53.0560 O.3   395  TYR395     -0.2866
     86  N        131.9830  155.3900   49.9790 N.am  396  VAL396     -0.1977
     87  CA       133.3380  155.9100   50.1420 C.3   396  VAL396      0.1596
     88  C        133.3300  157.3780   49.7440 C.2   396  VAL396      0.2287
     89  O        132.9960  157.7130   48.6090 O.2   396  VAL396     -0.2864
     90  CB       134.3820  155.1500   49.2970 C.3   396  VAL396      0.0276
     91  CG1      135.6800  155.9460   49.2230 C.3   396  VAL396      0.0022
     92  CG2      134.6490  153.7790   49.8840 C.3   396  VAL396      0.0022
     93  N        138.4470  159.2990   47.3820 N.3   401  TRP401     -0.1241
     94  CA       138.7110  158.9680   45.9840 C.3   401  TRP401      0.1605
     95  C        139.6640  159.9750   45.3450 C.2   401  TRP401      0.2264
     96  O        140.6950  159.6000   44.7780 O.2   401  TRP401     -0.2867
     97  CB       137.4090  158.9100   45.1770 C.3   401  TRP401      0.0550
     98  CG       136.5220  157.7470   45.5030 C.ar  401  TRP401      0.0003
     99  CD1      135.2390  157.8020   45.9700 C.ar  401  TRP401      0.0946
    100  CD2      136.8430  156.3560   45.3830 C.ar  401  TRP401      0.0152
    101  NE1      134.7430  156.5350   46.1450 N.ar  401  TRP401     -0.2442
    102  CE2      135.7100  155.6250   45.7920 C.ar  401  TRP401      0.0810
    103  CE3      137.9810  155.6520   44.9710 C.ar  401  TRP401      0.0012
    104  CZ2      135.6770  154.2340   45.8050 C.ar  401  TRP401      0.0191
    105  CZ3      137.9480  154.2680   44.9810 C.ar  401  TRP401      0.0001
    106  CH2      136.8060  153.5750   45.3980 C.ar  401  TRP401      0.0015
    107  N        143.2950  160.0720   47.1990 N.3   404  THR404     -0.1203
    108  CA       144.0790  158.8650   46.9400 C.3   404  THR404      0.1994
    109  C        144.4970  158.7690   45.4760 C.2   404  THR404      0.2618
    110  O        145.6700  158.5350   45.1720 O.2   404  THR404     -0.2717
    111  CB       143.3120  157.5820   47.3180 C.3   404  THR404      0.1784
    112  OG1      142.0500  157.5560   46.6400 O.3   404  THR404     -0.2211
    113  CG2      143.0930  157.5100   48.8270 C.3   404  THR404      0.0376
    114  N        143.5360  158.9500   44.5750 N.am  405  SER405     -0.1951
    115  CA       143.8210  158.8730   43.1460 C.3   405  SER405      0.1924
    116  C        144.9120  159.8630   42.7570 C.2   405  SER405      0.2314
    117  O        145.8410  159.5240   42.0170 O.2   405  SER405     -0.2863
    118  CB       142.5580  159.1390   42.3240 C.3   405  SER405      0.2116
    119  OG       142.0770  160.4580   42.5280 O.3   405  SER405     -0.2180
    120  N        148.3130  158.8510   43.9770 N.3   408  PHE408     -0.1241
    121  CA       148.7850  157.8220   43.0540 C.3   408  PHE408      0.1605
    122  C        149.4270  158.4750   41.8250 C.2   408  PHE408      0.2264
    123  O        150.6150  158.2450   41.4930 O.2   408  PHE408     -0.2867
    124  CB       147.6050  156.9210   42.6600 C.3   408  PHE408      0.0534
    125  CG       147.9370  155.8580   41.6480 C.ar  408  PHE408     -0.0203
    126  CD1      148.3670  154.6070   42.0530 C.ar  408  PHE408     -0.0042
    127  CD2      147.7760  156.0970   40.2950 C.ar  408  PHE408     -0.0042
    128  CE1      148.6580  153.6220   41.1270 C.ar  408  PHE408     -0.0003
    129  CE2      148.0660  155.1180   39.3610 C.ar  408  PHE408     -0.0003
    130  CZ       148.5070  153.8780   39.7780 C.ar  408  PHE408     -0.0000
@<TRIPOS>BOND
     1   129   130   ar
     2   129   127   ar
     3   130   128   ar
     4   127   125   ar
     5   128   126   ar
     6   123   122    2
     7   125   126   ar
     8   125   124    1
     9   122   121    1
    10    43    42    2
    11   117   116    2
    12   118   119    1
    13   118   115    1
    14   124   121    1
    15   116   115    1
    16    42    41    1
    17   121   120    1
    18    34    33    2
    19   115   114    1
    20    38    37    2
    21    41    40    1
    22    33    40   am
    23    33    32    1
    24    37    39   am
    25    37    36    1
    26    35    32    1
    27    35    36    1
    28   114   109   am
    29    96    95    2
    30   103   105   ar
    31   103   100   ar
    32   105   106   ar
    33    32    31    1
    34   110   109    2
    35    97    98    1
    36    97    94    1
    37    95    94    1
    38   100    98   ar
    39   100   102   ar
    40   106   104   ar
    41   109   108    1
    42    98    99   ar
    43   102   104   ar
    44   102   101   ar
    45    99   101   ar
    46    94    93    1
    47    51    49    1
    48    50    49    1
    49    49    48    1
    50    31    24   am
    51    47    46    2
    52   112   111    1
    53    73    71   am
    54    65    64    1
    55   108   107    1
    56   108   111    1
    57     4     3    2
    58   111   113    1
    59    53    56    1
    60    53    54    1
    61    53    52    1
    62    46    52   am
    63    46    45    1
    64     1     2    1
    65    25    24    2
    66    24    23    1
    67    56    57    1
    68    64    61    1
    69     5     6    1
    70     5     2    1
    71     7     6    1
    72     7     8    1
    73    71    72    2
    74    71    70    1
    75    48    45    1
    76    10    11    1
    77    55    54    2
    78    54    60   am
    79     3     2    1
    80     9     8    1
    81    45    44    1
    82    11    12    1
    83    11    14    1
    84    60    61    1
    85    89    88    2
    86    22    12   am
    87    22    23    1
    88    12    13    2
    89    23    26    1
    90    61    62    1
    91    57    59   am
    92    57    58    2
    93    70    67    1
    94    91    90    1
    95    90    92    1
    96    90    87    1
    97    14    15    1
    98    26    27    1
    99    88    87    1
   100    69    68    2
   101    86    87    1
   102    86    76   am
   103    62    63    2
   104    68    67    1
   105    68    74   am
   106    67    66    1
   107    74    75    1
   108    15    17   ar
   109    15    16   ar
   110    75    76    1
   111    75    78    1
   112    76    77    2
   113    17    19   ar
   114    27    28    1
   115    29    28   ar
   116    80    82   ar
   117    80    79   ar
   118    16    18   ar
   119    82    84   ar
   120    28    30   ar
   121    19    20   ar
   122    78    79    1
   123    79    81   ar
   124    18    20   ar
   125    84    85    1
   126    84    83   ar
   127    20    21    1
   128    81    83   ar
