@<TRIPOS>MOLECULE
tmp/4yuuA06.pdb
 113 114 0 0 0
SMALL
GASTEIGER

@<TRIPOS>ATOM
      1  N        227.1390  113.6840   88.5010 N.3   140  ARG140     -0.1245
      2  CA       227.4080  113.7320   89.9290 C.3   140  ARG140      0.1563
      3  C        226.0600  113.7050   90.6550 C.2   140  ARG140      0.2260
      4  O        225.0740  114.2510   90.1570 O.2   140  ARG140     -0.2867
      5  CB       228.2360  114.9670   90.2780 C.3   140  ARG140      0.0307
      6  CG       229.7180  114.7890   89.9680 C.3   140  ARG140      0.0489
      7  CD       230.3960  116.0910   89.5750 C.3   140  ARG140      0.2205
      8  NE       230.3240  117.0980   90.6270 N.pl3 140  ARG140     -0.0865
      9  CZ       231.1520  117.1540   91.6630 C.cat 140  ARG140      0.5346
     10  NH1      232.1170  116.2510   91.7960 N.pl3 140  ARG140      0.1354
     11  NH2      231.0110  118.1100   92.5710 N.pl3 140  ARG140      0.1354
     12  N        224.4920  114.7180   93.6070 N.3   142  TRP142     -0.1241
     13  CA       224.1010  115.4920   94.7860 C.3   142  TRP142      0.1605
     14  C        223.0040  116.5240   94.5370 C.2   142  TRP142      0.2264
     15  O        222.9160  117.5250   95.2450 O.2   142  TRP142     -0.2867
     16  CB       225.3340  116.1780   95.3740 C.3   142  TRP142      0.0550
     17  CG       226.3400  115.2040   95.8910 C.ar  142  TRP142      0.0003
     18  CD1      226.0860  114.0610   96.5930 C.ar  142  TRP142      0.0946
     19  CD2      227.7590  115.2660   95.7230 C.ar  142  TRP142      0.0152
     20  NE1      227.2620  113.4160   96.8860 N.ar  142  TRP142     -0.2442
     21  CE2      228.3060  114.1370   96.3620 C.ar  142  TRP142      0.0810
     22  CE3      228.6240  116.1720   95.1020 C.ar  142  TRP142      0.0012
     23  CZ2      229.6770  113.8870   96.3990 C.ar  142  TRP142      0.0191
     24  CZ3      229.9870  115.9230   95.1390 C.ar  142  TRP142      0.0001
     25  CH2      230.4990  114.7890   95.7820 C.ar  142  TRP142      0.0015
     26  N        220.2520  115.8220   97.3140 N.3   145  VAL145     -0.1231
     27  CA       220.5610  116.3900   98.6230 C.3   145  VAL145      0.1692
     28  C        219.9230  117.7820   98.7520 C.2   145  VAL145      0.2591
     29  O        219.1360  118.0920   99.6980 O.2   145  VAL145     -0.2718
     30  CB       222.1080  116.4640   98.8070 C.3   145  VAL145      0.0266
     31  CG1      222.4970  117.1390  100.0870 C.3   145  VAL145      0.0020
     32  CG2      222.7360  115.0700   98.7280 C.3   145  VAL145      0.0020
     33  N        220.2550  118.6070   97.7600 N.am  146  ALA146     -0.1980
     34  CA       219.5900  119.8840   97.5440 C.3   146  ALA146      0.1597
     35  C        218.0720  119.7350   97.6690 C.2   146  ALA146      0.2287
     36  O        217.4210  120.5030   98.3860 O.2   146  ALA146     -0.2864
     37  CB       219.9430  120.4310   96.2040 C.3   146  ALA146      0.0319
     38  N        228.5610  126.3760   93.7700 N.3   273  PHE273     -0.1227
     39  CA       228.4730  125.5580   94.9740 C.3   273  PHE273      0.1736
     40  C        227.8500  126.3580   96.1100 C.2   273  PHE273      0.2595
     41  O        226.9790  125.8640   96.8180 O.2   273  PHE273     -0.2718
     42  CB       229.8350  125.0330   95.4220 C.3   273  PHE273      0.0547
     43  CG       229.8360  124.5430   96.8440 C.ar  273  PHE273     -0.0202
     44  CD1      229.2120  123.3510   97.1770 C.ar  273  PHE273     -0.0042
     45  CD2      230.4240  125.2910   97.8510 C.ar  273  PHE273     -0.0042
     46  CE1      229.1920  122.9060   98.4840 C.ar  273  PHE273     -0.0003
     47  CE2      230.4050  124.8510   99.1580 C.ar  273  PHE273     -0.0003
     48  CZ       229.7880  123.6560   99.4750 C.ar  273  PHE273     -0.0000
     49  N        228.3150  127.5930   96.2790 N.am  274  PHE274     -0.1976
     50  CA       227.7920  128.4800   97.3090 C.3   274  PHE274      0.1639
     51  C        226.3000  128.7370   97.1040 C.2   274  PHE274      0.2290
     52  O        225.5070  128.6900   98.0590 O.2   274  PHE274     -0.2864
     53  CB       228.5660  129.7990   97.3070 C.3   274  PHE274      0.0560
     54  CG       228.0420  130.8090   98.2810 C.ar  274  PHE274     -0.0200
     55  CD1      228.2940  130.6780   99.6350 C.ar  274  PHE274     -0.0042
     56  CD2      227.3010  131.8930   97.8410 C.ar  274  PHE274     -0.0042
     57  CE1      227.8150  131.6080  100.5380 C.ar  274  PHE274     -0.0003
     58  CE2      226.8200  132.8280   98.7350 C.ar  274  PHE274     -0.0003
     59  CZ       227.0750  132.6850  100.0870 C.ar  274  PHE274     -0.0000
     60  N        224.1890  126.8400   95.6760 N.3   276  GLY276     -0.1210
     61  CA       223.4360  125.6600   96.0540 C.3   276  GLY276      0.1956
     62  C        223.3970  125.4560   97.5590 C.2   276  GLY276      0.2612
     63  O        222.4030  124.9890   98.1100 O.2   276  GLY276     -0.2717
     64  N        224.4820  125.8330   98.2260 N.am  277  LEU277     -0.1965
     65  CA       224.6960  125.4840   99.6250 C.3   277  LEU277      0.1728
     66  C        223.9250  126.3630  100.6000 C.2   277  LEU277      0.2616
     67  O        223.3130  125.8540  101.5350 O.2   277  LEU277     -0.2715
     68  CB       226.1890  125.5450   99.9600 C.3   277  LEU277      0.0311
     69  CG       226.6260  125.1220  101.3550 C.3   277  LEU277      0.0022
     70  CD1      226.5030  123.6140  101.5330 C.3   277  LEU277      0.0001
     71  CD2      228.0620  125.5680  101.6250 C.3   277  LEU277      0.0001
     72  N        223.9690  127.6750  100.3910 N.am  278  TRP278     -0.1974
     73  CA       223.3510  128.6100  101.3310 C.3   278  TRP278      0.1640
     74  C        221.8590  128.2970  101.6300 C.2   278  TRP278      0.2290
     75  O        221.4990  128.0270  102.7950 O.2   278  TRP278     -0.2864
     76  CB       223.5160  130.0430  100.8130 C.3   278  TRP278      0.0576
     77  CG       223.0410  131.0980  101.7480 C.ar  278  TRP278      0.0006
     78  CD1      221.7840  131.6180  101.8270 C.ar  278  TRP278      0.0946
     79  CD2      223.8270  131.7910  102.7240 C.ar  278  TRP278      0.0152
     80  NE1      221.7360  132.5850  102.8010 N.ar  278  TRP278     -0.2442
     81  CE2      222.9730  132.7100  103.3650 C.ar  278  TRP278      0.0810
     82  CE3      225.1640  131.7170  103.1200 C.ar  278  TRP278      0.0012
     83  CZ2      223.4190  133.5490  104.3850 C.ar  278  TRP278      0.0191
     84  CZ3      225.6020  132.5530  104.1310 C.ar  278  TRP278      0.0001
     85  CH2      224.7330  133.4560  104.7520 C.ar  278  TRP278      0.0015
     86  N        220.0090  125.6660  100.8940 N.3   280  VAL280     -0.1231
     87  CA       219.7840  124.2820  101.2990 C.3   280  VAL280      0.1692
     88  C        220.0950  124.0940  102.7840 C.2   280  VAL280      0.2591
     89  O        219.3570  123.4170  103.5050 O.2   280  VAL280     -0.2718
     90  CB       220.6280  123.3010  100.4560 C.3   280  VAL280      0.0266
     91  CG1      220.7160  121.9380  101.1290 C.3   280  VAL280      0.0020
     92  CG2      220.0390  123.1700   99.0620 C.3   280  VAL280      0.0020
     93  N        221.1780  124.7080  103.2450 N.am  281  VAL281     -0.1980
     94  CA       221.5230  124.6350  104.6550 C.3   281  VAL281      0.1595
     95  C        220.4830  125.3790  105.4780 C.2   281  VAL281      0.2287
     96  O        219.9990  124.8570  106.4880 O.2   281  VAL281     -0.2864
     97  CB       222.9340  125.2010  104.9300 C.3   281  VAL281      0.0276
     98  CG1      223.1900  125.3060  106.4280 C.3   281  VAL281      0.0022
     99  CG2      223.9830  124.3210  104.2740 C.3   281  VAL281      0.0022
    100  N        217.4290  123.2770  105.6640 N.3   284  TRP284     -0.1241
    101  CA       217.7480  122.1360  106.5210 C.3   284  TRP284      0.1605
    102  C        217.5290  122.4990  107.9840 C.2   284  TRP284      0.2264
    103  O        216.8030  121.8170  108.7230 O.2   284  TRP284     -0.2867
    104  CB       219.1930  121.6840  106.2970 C.3   284  TRP284      0.0550
    105  CG       219.3580  120.6580  105.2120 C.ar  284  TRP284      0.0003
    106  CD1      218.3820  119.8730  104.6710 C.ar  284  TRP284      0.0946
    107  CD2      220.5720  120.3050  104.5410 C.ar  284  TRP284      0.0152
    108  NE1      218.9130  119.0520  103.7090 N.ar  284  TRP284     -0.2442
    109  CE2      220.2620  119.3010  103.6070 C.ar  284  TRP284      0.0810
    110  CE3      221.8990  120.7410  104.6380 C.ar  284  TRP284      0.0012
    111  CZ2      221.2150  118.7210  102.7830 C.ar  284  TRP284      0.0191
    112  CZ3      222.8490  120.1660  103.8140 C.ar  284  TRP284      0.0001
    113  CH2      222.5020  119.1680  102.9000 C.ar  284  TRP284      0.0015
@<TRIPOS>BOND
     1     1     2    1
     2     7     6    1
     3     7     8    1
     4     2     5    1
     5     2     3    1
     6     6     5    1
     7     4     3    2
     8     8     9    2
     9     9    10    1
    10     9    11    1
    11    12    13    1
    12    38    39    1
    13    14    13    1
    14    14    15    2
    15    13    16    1
    16    39    42    1
    17    39    40    1
    18    22    24   ar
    19    22    19   ar
    20    24    25   ar
    21    16    17    1
    22    42    43    1
    23    60    61    1
    24    19    17   ar
    25    19    21   ar
    26    25    23   ar
    27    17    18   ar
    28    61    62    1
    29    40    49   am
    30    40    41    2
    31    37    34    1
    32    49    50    1
    33    21    23   ar
    34    21    20   ar
    35    18    20   ar
    36    43    44   ar
    37    43    45   ar
    38    51    50    1
    39    51    52    2
    40    44    46   ar
    41    53    50    1
    42    53    54    1
    43    26    27    1
    44    34    35    1
    45    34    33    1
    46    62    63    2
    47    62    64   am
    48    35    36    2
    49    33    28   am
    50    56    54   ar
    51    56    58   ar
    52    45    47   ar
    53    64    65    1
    54    54    55   ar
    55    46    48   ar
    56    27    28    1
    57    27    30    1
    58    32    30    1
    59    58    59   ar
    60    28    29    2
    61    30    31    1
    62    92    90    1
    63    47    48   ar
    64    65    68    1
    65    65    66    1
    66    55    57   ar
    67    68    69    1
    68    59    57   ar
    69    72    66   am
    70    72    73    1
    71    90    91    1
    72    90    87    1
    73    66    67    2
    74    76    73    1
    75    76    77    1
    76    86    87    1
    77    87    88    1
    78    73    74    1
    79    69    70    1
    80    69    71    1
    81    74    75    2
    82    77    78   ar
    83    77    79   ar
    84    78    80   ar
    85    79    82   ar
    86    79    81   ar
    87   111   113   ar
    88   111   109   ar
    89    88    93   am
    90    88    89    2
    91    80    81   ar
    92   113   112   ar
    93    82    84   ar
    94    93    94    1
    95    81    83   ar
    96   109   108   ar
    97   109   107   ar
    98   108   106   ar
    99   112   110   ar
   100    84    85   ar
   101    99    97    1
   102    83    85   ar
   103   107   110   ar
   104   107   105   ar
   105    94    97    1
   106    94    95    1
   107   106   105   ar
   108    97    98    1
   109   105   104    1
   110    95    96    2
   111   100   101    1
   112   104   101    1
   113   101   102    1
   114   102   103    2
