@<TRIPOS>MOLECULE
tmp/4yuuA17.pdb
 188 177 0 0 0
SMALL
GASTEIGER

@<TRIPOS>ATOM
      1  N        201.9800  109.1170   94.3130 N.3    41  LEU41      -0.1245
      2  CA       201.6160  110.4730   93.9220 C.3    41  LEU41       0.1561
      3  C        200.2920  110.5150   93.1620 C.2    41  LEU41       0.2260
      4  O        199.5520  111.4920   93.2660 O.2    41  LEU41      -0.2867
      5  CB       202.7260  111.1080   93.0840 C.3    41  LEU41       0.0270
      6  CG       204.0370  111.4010   93.8290 C.3    41  LEU41       0.0019
      7  CD1      204.9740  112.2120   92.9610 C.3    41  LEU41       0.0001
      8  CD2      203.7710  112.1200   95.1330 C.3    41  LEU41       0.0001
      9  N        197.4950  110.0120   95.8780 N.3    44  ALA44      -0.1231
     10  CA       197.4930  111.2570   96.6380 C.3    44  ALA44       0.1694
     11  C        196.8350  112.4010   95.8670 C.2    44  ALA44       0.2592
     12  O        196.0100  113.1370   96.4140 O.2    44  ALA44      -0.2718
     13  CB       198.9070  111.6330   97.0220 C.3    44  ALA44       0.0304
     14  N        197.1990  112.5430   94.5950 N.am   45  THR45      -0.1953
     15  CA       196.6750  113.6170   93.7580 C.3    45  THR45       0.1897
     16  C        195.1770  113.4760   93.5140 C.2    45  THR45       0.2313
     17  O        194.4290  114.4530   93.6170 O.2    45  THR45      -0.2863
     18  CB       197.3990  113.6710   92.4020 C.3    45  THR45       0.1794
     19  OG1      198.7920  113.9200   92.6160 O.3    45  THR45      -0.2208
     20  CG2      196.8290  114.7780   91.5300 C.3    45  THR45       0.0378
     21  N        193.3090  114.1640   96.6780 N.3    48  PHE48      -0.1241
     22  CA       193.4260  115.5900   96.9790 C.3    48  PHE48       0.1605
     23  C        192.4830  116.4410   96.1440 C.2    48  PHE48       0.2264
     24  O        191.8010  117.3000   96.6860 O.2    48  PHE48      -0.2867
     25  CB       194.8550  116.0980   96.7730 C.3    48  PHE48       0.0534
     26  CG       194.9800  117.5980   96.8860 C.ar   48  PHE48      -0.0203
     27  CD1      195.0100  118.2130   98.1280 C.ar   48  PHE48      -0.0042
     28  CD2      195.0530  118.3940   95.7530 C.ar   48  PHE48      -0.0042
     29  CE1      195.1190  119.5890   98.2370 C.ar   48  PHE48      -0.0003
     30  CE2      195.1610  119.7720   95.8580 C.ar   48  PHE48      -0.0003
     31  CZ       195.1950  120.3680   97.1020 C.ar   48  PHE48      -0.0000
     32  N        196.4100  111.2410  102.0370 N.3   115  VAL115     -0.1245
     33  CA       197.1510  112.1450  101.1700 C.3   115  VAL115      0.1561
     34  C        198.5380  112.4340  101.7260 C.2   115  VAL115      0.2260
     35  O        199.5190  112.3910  100.9980 O.2   115  VAL115     -0.2867
     36  CB       196.4000  113.4810  100.9630 C.3   115  VAL115      0.0252
     37  CG1      197.2670  114.4640  100.1970 C.3   115  VAL115      0.0019
     38  CG2      195.0750  113.2540  100.2290 C.3   115  VAL115      0.0019
     39  N        201.8430  111.1630   99.8770 N.3   119  PHE119     -0.1241
     40  CA       202.6450  112.2660   99.3740 C.3   119  PHE119      0.1605
     41  C        204.0720  112.1910   99.8870 C.2   119  PHE119      0.2264
     42  O        205.0140  112.3440   99.1150 O.2   119  PHE119     -0.2867
     43  CB       202.0230  113.6070   99.7600 C.3   119  PHE119      0.0534
     44  CG       202.9200  114.7810   99.5160 C.ar  119  PHE119     -0.0203
     45  CD1      203.0870  115.2860   98.2390 C.ar  119  PHE119     -0.0042
     46  CD2      203.5910  115.3860  100.5640 C.ar  119  PHE119     -0.0042
     47  CE1      203.9110  116.3700   98.0110 C.ar  119  PHE119     -0.0003
     48  CE2      204.4150  116.4710  100.3420 C.ar  119  PHE119     -0.0003
     49  CZ       204.5750  116.9630   99.0650 C.ar  119  PHE119     -0.0000
     50  N        207.2780  111.5670   97.5000 N.3   123  VAL123     -0.1245
     51  CA       208.2550  112.6460   97.4190 C.3   123  VAL123      0.1561
     52  C        209.6470  112.1520   97.8320 C.2   123  VAL123      0.2260
     53  O        210.6620  112.5520   97.2460 O.2   123  VAL123     -0.2867
     54  CB       207.8060  113.8520   98.2830 C.3   123  VAL123      0.0252
     55  CG1      208.9700  114.4810   99.0150 C.3   123  VAL123      0.0019
     56  CG2      207.0980  114.8780   97.4150 C.3   123  VAL123      0.0019
     57  N        210.6910  110.5230   94.9780 N.3   126  TYR126     -0.1241
     58  CA       211.0570  111.5380   93.9910 C.3   126  TYR126      0.1605
     59  C        212.5280  111.9170   94.1670 C.2   126  TYR126      0.2264
     60  O        213.2760  112.0500   93.1950 O.2   126  TYR126     -0.2867
     61  CB       210.1500  112.7630   94.1390 C.3   126  TYR126      0.0534
     62  CG       210.2390  113.7930   93.0310 C.ar  126  TYR126     -0.0201
     63  CD1      211.1760  114.8150   93.0830 C.ar  126  TYR126     -0.0009
     64  CD2      209.3600  113.7630   91.9520 C.ar  126  TYR126     -0.0009
     65  CE1      211.2540  115.7670   92.0830 C.ar  126  TYR126      0.0417
     66  CE2      209.4270  114.7110   90.9470 C.ar  126  TYR126      0.0417
     67  CZ       210.3770  115.7120   91.0170 C.ar  126  TYR126      0.1957
     68  OH       210.4550  116.6600   90.0220 O.3   126  TYR126     -0.2866
     69  N        215.6330  111.3530   91.6190 N.3   130  GLU130     -0.1245
     70  CA       216.6010  112.3340   91.1470 C.3   130  GLU130      0.1567
     71  C        217.9950  111.7220   91.1940 C.2   130  GLU130      0.2260
     72  O        218.7370  111.7590   90.1870 O.2   130  GLU130     -0.2867
     73  CB       216.5250  113.6310   91.9630 C.3   130  GLU130      0.0388
     74  CG       215.2580  114.4360   91.6910 C.3   130  GLU130      0.1160
     75  CD       215.3200  115.8710   92.1890 C.2   130  GLU130      0.3649
     76  OE1      216.1730  116.1950   93.0390 O.co2 130  GLU130     -0.2457
     77  OE2      214.4950  116.6810   91.7240 O.co2 130  GLU130     -0.2457
     78  N        222.1590  116.2730   93.5460 N.3   143  ILE143     -0.1245
     79  CA       220.9920  117.1150   93.3360 C.3   143  ILE143      0.1561
     80  C        219.9050  116.7270   94.3420 C.2   143  ILE143      0.2260
     81  O        219.1840  117.5830   94.8680 O.2   143  ILE143     -0.2867
     82  CB       220.4670  116.9940   91.8900 C.3   143  ILE143      0.0252
     83  CG1      221.4800  117.5940   90.9120 C.3   143  ILE143      0.0019
     84  CG2      219.1130  117.6750   91.7380 C.3   143  ILE143      0.0019
     85  CD1      221.0050  117.6400   89.4780 C.3   143  ILE143      0.0001
     86  N        220.2550  118.6070   97.7600 N.3   146  ALA146     -0.1231
     87  CA       219.5900  119.8840   97.5440 C.3   146  ALA146      0.1694
     88  C        218.0720  119.7350   97.6690 C.2   146  ALA146      0.2592
     89  O        217.4210  120.5030   98.3860 O.2   146  ALA146     -0.2718
     90  CB       219.9430  120.4310   96.2040 C.3   146  ALA146      0.0304
     91  N        217.5100  118.7380   96.9870 N.am  147  PHE147     -0.1976
     92  CA       216.0730  118.5050   97.0710 C.3   147  PHE147      0.1639
     93  C        215.7000  117.8780   98.4100 C.2   147  PHE147      0.2290
     94  O        214.5230  117.8670   98.7870 O.2   147  PHE147     -0.2864
     95  CB       215.5960  117.6200   95.9160 C.3   147  PHE147      0.0560
     96  CG       214.1280  117.2920   95.9660 C.ar  147  PHE147     -0.0200
     97  CD1      213.1820  118.3000   95.9240 C.ar  147  PHE147     -0.0042
     98  CD2      213.6970  115.9780   96.0690 C.ar  147  PHE147     -0.0042
     99  CE1      211.8370  118.0120   95.9810 C.ar  147  PHE147     -0.0003
    100  CE2      212.3500  115.6830   96.1210 C.ar  147  PHE147     -0.0003
    101  CZ       211.4180  116.7020   96.0790 C.ar  147  PHE147     -0.0000
    102  N        216.4660  119.0300  101.1800 N.3   149  ALA149     -0.1231
    103  CA       215.9860  120.1120  102.0800 C.3   149  ALA149      0.1679
    104  C        214.4240  120.3120  102.0700 C.2   149  ALA149      0.2434
    105  O        213.7680  120.1940  103.1270 O.2   149  ALA149     -0.2733
    106  CB       216.7020  121.4210  101.7750 C.3   149  ALA149      0.0304
    107  N        213.8150  120.5600  100.8870 N.am  150  PRO150     -0.2729
    108  CA       212.3510  120.7190  100.8880 C.3   150  PRO150      0.1401
    109  C        211.5720  119.5000  101.3920 C.2   150  PRO150      0.2269
    110  O        210.5380  119.6600  102.0580 O.2   150  PRO150     -0.2865
    111  CB       212.0330  120.9680   99.4160 C.3   150  PRO150      0.0296
    112  CG       213.2650  121.5730   98.8710 C.3   150  PRO150      0.0237
    113  CD       214.3800  120.8570   99.5530 C.3   150  PRO150      0.0939
    114  N        204.2230  117.7100  108.0810 N.3   158  PHE158     -0.1241
    115  CA       203.1560  116.7410  107.8160 C.3   158  PHE158      0.1605
    116  C        203.2510  115.4690  108.6470 C.2   158  PHE158      0.2264
    117  O        202.2790  114.7270  108.7460 O.2   158  PHE158     -0.2867
    118  CB       203.1350  116.3650  106.3320 C.3   158  PHE158      0.0534
    119  CG       202.6990  117.4800  105.4320 C.ar  158  PHE158     -0.0203
    120  CD1      201.7560  118.4000  105.8550 C.ar  158  PHE158     -0.0042
    121  CD2      203.2360  117.6120  104.1660 C.ar  158  PHE158     -0.0042
    122  CE1      201.3550  119.4290  105.0310 C.ar  158  PHE158     -0.0003
    123  CE2      202.8380  118.6350  103.3350 C.ar  158  PHE158     -0.0003
    124  CZ       201.8990  119.5480  103.7660 C.ar  158  PHE158     -0.0000
    125  N        200.0850  120.3480  109.2830 N.3   172  MET172     -0.1245
    126  CA       199.7150  121.5240  108.5050 C.3   172  MET172      0.1570
    127  C        198.5740  121.1950  107.5530 C.2   172  MET172      0.2261
    128  O        198.6430  120.2170  106.8090 O.2   172  MET172     -0.2867
    129  CB       200.9120  122.0700  107.7200 C.3   172  MET172      0.0387
    130  CG       200.6850  123.4840  107.2040 C.3   172  MET172      0.0595
    131  SD       201.9430  124.1030  106.0690 S.3   172  MET172     -0.1393
    132  CE       201.6880  123.0310  104.6600 C.3   172  MET172      0.0692
    133  N        196.2410  121.1380  104.3500 N.3   174  LEU174     -0.1231
    134  CA       196.5440  121.2280  102.9270 C.3   174  LEU174      0.1693
    135  C        195.7220  122.3440  102.3040 C.2   174  LEU174      0.2593
    136  O        194.7160  122.0940  101.6400 O.2   174  LEU174     -0.2718
    137  CB       196.2640  119.9010  102.2300 C.3   174  LEU174      0.0284
    138  CG       196.8610  118.6750  102.9160 C.3   174  LEU174      0.0019
    139  CD1      196.5860  117.4250  102.1080 C.3   174  LEU174      0.0001
    140  CD2      198.3540  118.8590  103.1380 C.3   174  LEU174      0.0001
    141  N        196.1550  123.5780  102.5390 N.am  175  GLY175     -0.1942
    142  CA       195.4580  124.7460  102.0440 C.3   175  GLY175      0.2014
    143  C        196.1280  126.0320  102.4780 C.2   175  GLY175      0.2638
    144  O        196.9050  126.0500  103.4270 O.2   175  GLY175     -0.2714
    145  N        195.8090  127.1130  101.7800 N.am  176  ILE176     -0.1977
    146  CA       196.4230  128.4150  102.0140 C.3   176  ILE176      0.1596
    147  C        196.1260  128.9770  103.4140 C.2   176  ILE176      0.2287
    148  O        197.0330  129.1400  104.2540 O.2   176  ILE176     -0.2864
    149  CB       195.9520  129.4100  100.9310 C.3   176  ILE176      0.0276
    150  CG1      196.3160  128.8720   99.5470 C.3   176  ILE176      0.0022
    151  CG2      196.5560  130.7780  101.1420 C.3   176  ILE176      0.0022
    152  CD1      195.7990  129.7040   98.4040 C.3   176  ILE176      0.0001
    153  N        197.2950  126.9080  106.1560 N.3   179  THR179     -0.1218
    154  CA       198.7260  127.0920  106.3490 C.3   179  THR179      0.1862
    155  C        198.9700  128.2840  107.2630 C.2   179  THR179      0.2287
    156  O        199.7210  128.1820  108.2370 O.2   179  THR179     -0.2866
    157  CB       199.4610  127.3020  105.0100 C.3   179  THR179      0.1770
    158  OG1      199.2570  126.1590  104.1660 O.3   179  THR179     -0.2211
    159  CG2      200.9530  127.5000  105.2400 C.3   179  THR179      0.0375
    160  N        216.3400  131.8470  102.8280 N.3   205  VAL205     -0.1245
    161  CA       215.4390  132.2410  101.7500 C.3   205  VAL205      0.1561
    162  C        215.6800  133.6840  101.2930 C.2   205  VAL205      0.2260
    163  O        215.6760  133.9640  100.0950 O.2   205  VAL205     -0.2867
    164  CB       213.9530  132.0500  102.1580 C.3   205  VAL205      0.0252
    165  CG1      213.6550  130.5700  102.3380 C.3   205  VAL205      0.0019
    166  CG2      213.6210  132.8150  103.4300 C.3   205  VAL205      0.0019
    167  N        220.9920  128.2890  100.5940 N.3   279  PRO279     -0.2102
    168  CA       219.5780  128.0740  100.9150 C.3   279  PRO279      0.1504
    169  C        219.2860  126.6570  101.4030 C.2   279  PRO279      0.2575
    170  O        218.4020  126.4820  102.2390 O.2   279  PRO279     -0.2718
    171  CB       218.8740  128.3440   99.5850 C.3   279  PRO279      0.0282
    172  CG       219.8770  127.9690   98.5640 C.3   279  PRO279      0.0208
    173  CD       221.2120  128.3490   99.1380 C.3   279  PRO279      0.0893
    174  N        220.0090  125.6660  100.8940 N.am  280  VAL280     -0.1980
    175  CA       219.7840  124.2820  101.2990 C.3   280  VAL280      0.1595
    176  C        220.0950  124.0940  102.7840 C.2   280  VAL280      0.2287
    177  O        219.3570  123.4170  103.5050 O.2   280  VAL280     -0.2864
    178  CB       220.6280  123.3010  100.4560 C.3   280  VAL280      0.0276
    179  CG1      220.7160  121.9380  101.1290 C.3   280  VAL280      0.0022
    180  CG2      220.0390  123.1700   99.0620 C.3   280  VAL280      0.0022
    181  N        217.2940  125.9540  104.8550 N.3   283  ILE283     -0.1245
    182  CA       216.0780  125.1570  104.8940 C.3   283  ILE283      0.1561
    183  C        216.2610  123.9090  105.7540 C.2   283  ILE283      0.2260
    184  O        215.3480  123.5240  106.4840 O.2   283  ILE283     -0.2867
    185  CB       215.6270  124.7560  103.4680 C.3   283  ILE283      0.0252
    186  CG1      215.2550  126.0040  102.6660 C.3   283  ILE283      0.0019
    187  CG2      214.4500  123.7940  103.5160 C.3   283  ILE283      0.0019
    188  CD1      214.1950  126.8570  103.3240 C.3   283  ILE283      0.0001
@<TRIPOS>BOND
     1    85    83    1
     2    68    67    1
     3    72    71    2
     4    83    82    1
     5    66    67   ar
     6    66    64   ar
     7    67    65   ar
     8    70    71    1
     9    70    69    1
    10    70    73    1
    11    20    18    1
    12    74    73    1
    13    74    75    1
    14    77    75   ar
    15    84    82    1
    16    82    79    1
    17    64    62   ar
    18    65    63   ar
    19    75    76   ar
    20    18    19    1
    21    18    15    1
    22     7     6    1
    23    62    63   ar
    24    62    61    1
    25     5     6    1
    26     5     2    1
    27     3     4    2
    28     3     2    1
    29    60    59    2
    30    79    78    1
    31    79    80    1
    32    16    17    2
    33    16    15    1
    34    15    14    1
    35     6     8    1
    36     2     1    1
    37    58    61    1
    38    58    59    1
    39    58    57    1
    40    80    81    2
    41    14    11   am
    42    28    30   ar
    43    28    26   ar
    44    30    31   ar
    45    11    12    2
    46    11    10    1
    47     9    10    1
    48    95    96    1
    49    95    92    1
    50    97    96   ar
    51    97    99   ar
    52    96    98   ar
    53    99   101   ar
    54    98   100   ar
    55   101   100   ar
    56    23    24    2
    57    23    22    1
    58    90    87    1
    59    10    13    1
    60    21    22    1
    61    25    26    1
    62    25    22    1
    63    26    27   ar
    64    91    92    1
    65    91    88   am
    66    92    93    1
    67    31    29   ar
    68    53    52    2
    69    56    54    1
    70    51    50    1
    71    51    52    1
    72    51    54    1
    73    87    88    1
    74    87    86    1
    75    88    89    2
    76    47    45   ar
    77    47    49   ar
    78    27    29   ar
    79    45    44   ar
    80    54    55    1
    81   152   150    1
    82    93    94    2
    83   172   173    1
    84   172   171    1
    85   112   111    1
    86   112   113    1
    87   180   178    1
    88    49    48   ar
    89    42    41    2
    90   173   167    1
    91    40    43    1
    92    40    39    1
    93    40    41    1
    94   111   108    1
    95    44    43    1
    96    44    46   ar
    97   150   149    1
    98   113   107    1
    99   171   168    1
   100   163   162    2
   101    37    36    1
   102    38    36    1
   103    48    46   ar
   104   178   179    1
   105   178   175    1
   106   167   168    1
   107   107   108    1
   108   107   104   am
   109   108   109    1
   110   174   175    1
   111   174   169   am
   112   168   169    1
   113   149   151    1
   114   149   146    1
   115    36    33    1
   116    35    34    2
   117    33    34    1
   118    33    32    1
   119   102   103    1
   120   162   161    1
   121   175   176    1
   122   109   110    2
   123   169   170    2
   124   136   135    2
   125   161   164    1
   126   161   160    1
   127   106   103    1
   128   145   146    1
   129   145   143   am
   130   146   147    1
   131   142   143    1
   132   142   141    1
   133   104   103    1
   134   104   105    2
   135   139   138    1
   136   164   165    1
   137   164   166    1
   138   137   138    1
   139   137   134    1
   140   135   141   am
   141   135   134    1
   142   143   144    2
   143   186   188    1
   144   186   185    1
   145   176   177    2
   146   138   140    1
   147   134   133    1
   148   123   124   ar
   149   123   121   ar
   150   147   148    2
   151   185   187    1
   152   185   182    1
   153   124   122   ar
   154   121   119   ar
   155   158   157    1
   156   132   131    1
   157   181   182    1
   158   182   183    1
   159   157   159    1
   160   157   154    1
   161   122   120   ar
   162   119   120   ar
   163   119   118    1
   164   183   184    2
   165   131   130    1
   166   153   154    1
   167   118   115    1
   168   154   155    1
   169   128   127    2
   170   130   129    1
   171   155   156    2
   172   127   126    1
   173   129   126    1
   174   115   114    1
   175   115   116    1
   176   126   125    1
   177   116   117    2
