@<TRIPOS>MOLECULE
tmp/4yuuA12.pdb
 179 173 0 0 0
SMALL
GASTEIGER

@<TRIPOS>ATOM
      1  N        212.1980   93.7780   81.5400 N.3    17  PHE17      -0.1241
      2  CA       211.4120   94.6460   82.4090 C.3    17  PHE17       0.1605
      3  C        212.3070   95.6490   83.1310 C.2    17  PHE17       0.2264
      4  O        212.0200   96.8450   83.1530 O.2    17  PHE17      -0.2867
      5  CB       210.6170   93.8130   83.4160 C.3    17  PHE17       0.0534
      6  CG       209.8640   94.6350   84.4240 C.ar   17  PHE17      -0.0203
      7  CD1      208.7700   95.3920   84.0430 C.ar   17  PHE17      -0.0042
      8  CD2      210.2460   94.6410   85.7550 C.ar   17  PHE17      -0.0042
      9  CE1      208.0770   96.1460   84.9680 C.ar   17  PHE17      -0.0003
     10  CE2      209.5560   95.3920   86.6830 C.ar   17  PHE17      -0.0003
     11  CZ       208.4710   96.1460   86.2900 C.ar   17  PHE17      -0.0000
     12  N        213.4560   98.3030   80.6690 N.3    20  TRP20      -0.1227
     13  CA       212.4440   99.3040   80.3450 C.3    20  TRP20       0.1737
     14  C        212.2190  100.2620   81.5060 C.2    20  TRP20       0.2595
     15  O        212.0650  101.4680   81.3050 O.2    20  TRP20      -0.2718
     16  CB       211.1200   98.6430   79.9600 C.3    20  TRP20       0.0564
     17  CG       210.0150   99.6370   79.7640 C.ar   20  TRP20       0.0003
     18  CD1      209.8390  100.4680   78.6940 C.ar   20  TRP20       0.0946
     19  CD2      208.9350   99.9080   80.6640 C.ar   20  TRP20       0.0152
     20  NE1      208.7150  101.2380   78.8730 N.ar   20  TRP20      -0.2442
     21  CE2      208.1430  100.9150   80.0740 C.ar   20  TRP20       0.0810
     22  CE3      208.5590   99.3980   81.9110 C.ar   20  TRP20       0.0012
     23  CZ2      207.0000  101.4200   80.6900 C.ar   20  TRP20       0.0191
     24  CZ3      207.4240   99.9010   82.5190 C.ar   20  TRP20       0.0001
     25  CH2      206.6590  100.9020   81.9080 C.ar   20  TRP20       0.0015
     26  N        212.1940   99.7180   82.7200 N.am   21  ILE21      -0.1980
     27  CA       212.0450  100.5320   83.9180 C.3    21  ILE21       0.1595
     28  C        213.1860  101.5360   84.0130 C.2    21  ILE21       0.2287
     29  O        212.9640  102.7260   84.2290 O.2    21  ILE21      -0.2864
     30  CB       212.0050   99.6620   85.1920 C.3    21  ILE21       0.0276
     31  CG1      210.6930   98.8800   85.2640 C.3    21  ILE21       0.0022
     32  CG2      212.1620  100.5160   86.4370 C.3    21  ILE21       0.0022
     33  CD1      209.4680   99.7550   85.4060 C.3    21  ILE21       0.0001
     34  N        211.3460  106.5840   84.5970 N.3    30  ILE30      -0.1245
     35  CA       210.5740  105.7930   85.5550 C.3    30  ILE30       0.1561
     36  C        211.4100  104.7400   86.2740 C.2    30  ILE30       0.2260
     37  O        211.1860  103.5460   86.0900 O.2    30  ILE30      -0.2867
     38  CB       209.4090  105.0520   84.8680 C.3    30  ILE30       0.0252
     39  CG1      208.8580  105.8630   83.6960 C.3    30  ILE30       0.0019
     40  CG2      208.3180  104.7090   85.8810 C.3    30  ILE30       0.0019
     41  CD1      207.8380  105.1060   82.8730 C.3    30  ILE30       0.0001
     42  N        210.6700  105.3480   90.9580 N.3    34  GLY34      -0.1210
     43  CA       209.4630  105.7450   90.2570 C.3    34  GLY34       0.1956
     44  C        208.3840  104.6830   90.3490 C.2    34  GLY34       0.2611
     45  O        207.1890  104.9930   90.3180 O.2    34  GLY34      -0.2717
     46  N        208.8020  103.4230   90.4610 N.am   35  VAL35      -0.1979
     47  CA       207.8630  102.3310   90.6860 C.3    35  VAL35       0.1595
     48  C        207.1660  102.5670   92.0200 C.2    35  VAL35       0.2287
     49  O        206.0020  102.2050   92.1970 O.2    35  VAL35      -0.2864
     50  CB       208.5560  100.9450   90.6780 C.3    35  VAL35       0.0276
     51  CG1      207.5490   99.8320   90.9220 C.3    35  VAL35       0.0022
     52  CG2      209.2890  100.7230   89.3650 C.3    35  VAL35       0.0022
     53  N        205.1900  106.8670   91.3250 N.3    38  ILE38      -0.1231
     54  CA       204.0450  107.1050   90.4510 C.3    38  ILE38       0.1678
     55  C        202.7000  106.6900   91.0810 C.2    38  ILE38       0.2434
     56  O        201.7710  107.5030   91.1210 O.2    38  ILE38      -0.2733
     57  CB       204.2490  106.4020   89.0870 C.3    38  ILE38       0.0265
     58  CG1      205.4230  107.0560   88.3500 C.3    38  ILE38       0.0019
     59  CG2      202.9830  106.4500   88.2490 C.3    38  ILE38       0.0020
     60  CD1      205.4950  106.7330   86.8770 C.3    38  ILE38       0.0001
     61  N        202.5910  105.4510   91.6080 N.am   39  PRO39      -0.2729
     62  CA       201.2950  105.1110   92.2120 C.3    39  PRO39       0.1401
     63  C        200.9490  105.9730   93.4300 C.2    39  PRO39       0.2269
     64  O        199.7990  106.4020   93.5680 O.2    39  PRO39      -0.2865
     65  CB       201.4690  103.6430   92.6240 C.3    39  PRO39       0.0296
     66  CG       202.6280  103.1460   91.8340 C.3    39  PRO39       0.0237
     67  CD       203.5330  104.3200   91.6860 C.3    39  PRO39       0.0939
     68  N        199.9810  109.4620   92.4100 N.3    42  LEU42      -0.1231
     69  CA       198.7080  109.4450   91.6960 C.3    42  LEU42       0.1693
     70  C        197.5270  109.2970   92.6610 C.2    42  LEU42       0.2592
     71  O        196.5460  110.0460   92.5620 O.2    42  LEU42      -0.2718
     72  CB       198.6890  108.3390   90.6400 C.3    42  LEU42       0.0284
     73  CG       199.4080  108.7100   89.3330 C.3    42  LEU42       0.0019
     74  CD1      199.3570  107.5710   88.3230 C.3    42  LEU42       0.0001
     75  CD2      198.8270  109.9860   88.7350 C.3    42  LEU42       0.0001
     76  N        197.6240  108.3510   93.5950 N.am   43  THR43      -0.1953
     77  CA       196.5730  108.1790   94.5970 C.3    43  THR43       0.1897
     78  C        196.3790  109.4720   95.3950 C.2    43  THR43       0.2313
     79  O        195.2480  109.9740   95.5460 O.2    43  THR43      -0.2863
     80  CB       196.8840  107.0220   95.5740 C.3    43  THR43       0.1794
     81  OG1      198.1300  107.2760   96.2240 O.3    43  THR43      -0.2208
     82  CG2      196.9770  105.6910   94.8330 C.3    43  THR43       0.0378
     83  N        194.7410  112.2620   93.1930 N.3    46  THR46      -0.1203
     84  CA       193.3280  112.0250   92.9230 C.3    46  THR46       0.1994
     85  C        192.4950  112.3640   94.1570 C.2    46  THR46       0.2617
     86  O        191.5560  113.1800   94.0870 O.2    46  THR46      -0.2717
     87  CB       193.0640  110.5610   92.4880 C.3    46  THR46       0.1784
     88  OG1      193.7080  110.3070   91.2300 O.3    46  THR46      -0.2211
     89  CG2      191.5790  110.3140   92.3310 C.3    46  THR46       0.0376
     90  N        192.8610  111.7700   95.2930 N.am   47  VAL47      -0.1979
     91  CA       192.1310  112.0280   96.5320 C.3    47  VAL47       0.1595
     92  C        192.1640  113.5180   96.8880 C.2    47  VAL47       0.2287
     93  O        191.1550  114.0800   97.3180 O.2    47  VAL47      -0.2864
     94  CB       192.6880  111.1970   97.7060 C.3    47  VAL47       0.0276
     95  CG1      191.9560  111.5400   98.9970 C.3    47  VAL47       0.0022
     96  CG2      192.5650  109.7150   97.4050 C.3    47  VAL47       0.0022
     97  N        189.7340  115.5480   94.3190 N.3    50  ILE50      -0.1231
     98  CA       188.3400  115.2220   94.6190 C.3    50  ILE50       0.1692
     99  C        187.8940  115.8090   95.9660 C.2    50  ILE50       0.2591
    100  O        186.8030  116.3760   96.0680 O.2    50  ILE50      -0.2718
    101  CB       188.1040  113.7020   94.6240 C.3    50  ILE50       0.0266
    102  CG1      188.4390  113.1240   93.2520 C.3    50  ILE50       0.0019
    103  CG2      186.6700  113.3850   94.9950 C.3    50  ILE50       0.0020
    104  CD1      188.2280  111.6280   93.1470 C.3    50  ILE50       0.0001
    105  N        188.7430  115.6980   96.9890 N.am   51  ALA51      -0.1980
    106  CA       188.3960  116.2060   98.3180 C.3    51  ALA51       0.1597
    107  C        188.3840  117.7330   98.3650 C.2    51  ALA51       0.2287
    108  O        187.5110  118.3320   98.9890 O.2    51  ALA51      -0.2864
    109  CB       189.3510  115.6610   99.3630 C.3    51  ALA51       0.0319
    110  N        184.9820  118.5710   96.6440 N.3    54  ALA54      -0.1231
    111  CA       183.6620  118.1210   97.0890 C.3    54  ALA54       0.1694
    112  C        183.5740  117.4570   98.4740 C.2    54  ALA54       0.2592
    113  O        182.5400  116.8800   98.8100 O.2    54  ALA54      -0.2718
    114  CB       183.0920  117.1750   96.0520 C.3    54  ALA54       0.0304
    115  N        184.6240  117.5400   99.2840 N.am   55  ALA55      -0.1966
    116  CA       184.6070  116.8520  100.5770 C.3    55  ALA55       0.1713
    117  C        183.7700  117.5860  101.6240 C.2    55  ALA55       0.2458
    118  O        183.8570  118.8060  101.7530 O.2    55  ALA55      -0.2730
    119  CB       186.0220  116.6530  101.0880 C.3    55  ALA55       0.0333
    120  N        182.9560  116.8340  102.3830 N.am   56  PRO56      -0.2727
    121  CA       182.1400  117.3850  103.4720 C.3    56  PRO56       0.1402
    122  C        183.0160  117.8690  104.6320 C.2    56  PRO56       0.2269
    123  O        184.1960  117.4980  104.7000 O.2    56  PRO56      -0.2865
    124  CB       181.2700  116.1970  103.8900 C.3    56  PRO56       0.0296
    125  CG       182.0620  115.0030  103.5120 C.3    56  PRO56       0.0237
    126  CD       182.7840  115.3760  102.2520 C.3    56  PRO56       0.0939
    127  N        190.6390  103.7400  104.9850 N.3    96  ILE96      -0.1245
    128  CA       189.2220  103.6530  104.6560 C.3    96  ILE96       0.1561
    129  C        188.6050  102.3680  105.1970 C.2    96  ILE96       0.2260
    130  O        187.4700  102.3700  105.6720 O.2    96  ILE96      -0.2867
    131  CB       188.9910  103.7210  103.1310 C.3    96  ILE96       0.0252
    132  CG1      189.5810  105.0110  102.5590 C.3    96  ILE96       0.0019
    133  CG2      187.5030  103.6230  102.8010 C.3    96  ILE96       0.0019
    134  CD1      189.3160  105.2040  101.0900 C.3    96  ILE96       0.0001
    135  N        182.4550  105.2400  104.0990 N.3   102  LEU102     -0.1245
    136  CA       183.2000  106.3510  103.5190 C.3   102  LEU102      0.1561
    137  C        182.7720  107.6700  104.1490 C.2   102  LEU102      0.2260
    138  O        183.5680  108.5980  104.2620 O.2   102  LEU102     -0.2867
    139  CB       183.0010  106.4110  102.0040 C.3   102  LEU102      0.0270
    140  CG       183.9730  105.6370  101.1200 C.3   102  LEU102      0.0019
    141  CD1      185.3770  106.1810  101.2990 C.3   102  LEU102      0.0001
    142  CD2      183.9250  104.1500  101.4270 C.3   102  LEU102      0.0001
    143  N        184.5650  108.0990  107.3870 N.3   105  TRP105     -0.1227
    144  CA       185.9350  108.3880  106.9780 C.3   105  TRP105      0.1737
    145  C        186.1080  109.8640  106.6310 C.2   105  TRP105      0.2595
    146  O        187.0590  110.5100  107.0720 O.2   105  TRP105     -0.2718
    147  CB       186.3100  107.5020  105.7860 C.3   105  TRP105      0.0564
    148  CG       187.7240  107.6300  105.3020 C.ar  105  TRP105      0.0003
    149  CD1      188.8500  107.2070  105.9420 C.ar  105  TRP105      0.0946
    150  CD2      188.1570  108.1860  104.0520 C.ar  105  TRP105      0.0152
    151  NE1      189.9580  107.4770  105.1780 N.ar  105  TRP105     -0.2442
    152  CE2      189.5620  108.0800  104.0180 C.ar  105  TRP105      0.0810
    153  CE3      187.4940  108.7690  102.9690 C.ar  105  TRP105      0.0012
    154  CZ2      190.3140  108.5340  102.9360 C.ar  105  TRP105      0.0191
    155  CZ3      188.2430  109.2200  101.8990 C.ar  105  TRP105      0.0001
    156  CH2      189.6390  109.1000  101.8900 C.ar  105  TRP105      0.0015
    157  N        185.1710  110.3920  105.8510 N.am  106  LEU106     -0.1980
    158  CA       185.1960  111.7940  105.4520 C.3   106  LEU106      0.1596
    159  C        184.9730  112.7100  106.6470 C.2   106  LEU106      0.2287
    160  O        185.5420  113.7990  106.7160 O.2   106  LEU106     -0.2864
    161  CB       184.1410  112.0680  104.3790 C.3   106  LEU106      0.0297
    162  CG       184.3530  111.4200  103.0090 C.3   106  LEU106      0.0022
    163  CD1      183.1440  111.6480  102.1230 C.3   106  LEU106      0.0001
    164  CD2      185.6200  111.9470  102.3420 C.3   106  LEU106      0.0001
    165  N        190.8900  111.4120  104.4720 N.3   111  PRO111     -0.2116
    166  CA       191.5850  111.9660  103.3050 C.3   111  PRO111      0.1372
    167  C        192.9260  112.6040  103.6390 C.2   111  PRO111      0.2244
    168  O        193.9000  112.3360  102.9460 O.2   111  PRO111     -0.2868
    169  CB       190.6010  113.0160  102.7900 C.3   111  PRO111      0.0268
    170  CG       189.2700  112.4380  103.1050 C.3   111  PRO111      0.0207
    171  CD       189.4350  111.6530  104.3890 C.3   111  PRO111      0.0892
    172  N        195.5860  109.8990  104.4810 N.3   114  LEU114     -0.1245
    173  CA       195.9080  109.2000  103.2350 C.3   114  LEU114      0.1561
    174  C        196.8500  110.0260  102.3540 C.2   114  LEU114      0.2260
    175  O        197.9480  109.5750  101.9860 O.2   114  LEU114     -0.2867
    176  CB       194.6230  108.8660  102.4690 C.3   114  LEU114      0.0270
    177  CG       194.7100  107.9780  101.2240 C.3   114  LEU114      0.0019
    178  CD1      193.4600  107.1300  101.0870 C.3   114  LEU114      0.0001
    179  CD2      194.9190  108.8060   99.9650 C.3   114  LEU114      0.0001
@<TRIPOS>BOND
     1    18    20   ar
     2    18    17   ar
     3    20    21   ar
     4    17    16    1
     5    17    19   ar
     6    16    13    1
     7    21    19   ar
     8    21    23   ar
     9    13    12    1
    10    13    14    1
    11    19    22   ar
    12    23    25   ar
    13    15    14    2
    14    14    26   am
    15     1     2    1
    16    25    24   ar
    17    22    24   ar
    18     2     3    1
    19     2     5    1
    20    26    27    1
    21    41    39    1
    22     3     4    2
    23     5     6    1
    24    39    38    1
    25    27    28    1
    26    27    30    1
    27    28    29    2
    28     7     6   ar
    29     7     9   ar
    30     6     8   ar
    31    34    35    1
    32    38    35    1
    33    38    40    1
    34     9    11   ar
    35    30    31    1
    36    30    32    1
    37    31    33    1
    38    35    36    1
    39     8    10   ar
    40    37    36    2
    41    11    10   ar
    42    60    58    1
    43    59    57    1
    44    74    73    1
    45    58    57    1
    46    75    73    1
    47    57    54    1
    48    73    72    1
    49    52    50    1
    50    43    44    1
    51    43    42    1
    52    45    44    2
    53    44    46   am
    54    54    55    1
    55    54    53    1
    56    46    47    1
    57    72    69    1
    58    50    47    1
    59    50    51    1
    60    47    48    1
    61    55    56    2
    62    55    61   am
    63    88    87    1
    64    61    67    1
    65    61    62    1
    66    67    66    1
    67    69    68    1
    68    69    70    1
    69    66    65    1
    70    48    49    2
    71    62    65    1
    72    62    63    1
    73    89    87    1
    74    87    84    1
    75    71    70    2
    76    70    76   am
    77    84    83    1
    78    84    85    1
    79   104   102    1
    80   102   101    1
    81    63    64    2
    82    76    77    1
    83    86    85    2
    84    85    90   am
    85    97    98    1
    86    77    78    1
    87    77    80    1
    88    98   101    1
    89    98    99    1
    90   101   103    1
    91    82    80    1
    92    90    91    1
    93    78    79    2
    94    80    81    1
    95    99   100    2
    96    99   105   am
    97   114   111    1
    98    91    92    1
    99    91    94    1
   100   110   111    1
   101    92    93    2
   102   105   106    1
   103   111   112    1
   104    96    94    1
   105    94    95    1
   106   106   107    1
   107   106   109    1
   108   107   108    2
   109   112   113    2
   110   112   115   am
   111   115   116    1
   112   179   177    1
   113   116   119    1
   114   116   117    1
   115   178   177    1
   116   134   132    1
   117   140   141    1
   118   140   142    1
   119   140   139    1
   120   177   176    1
   121   117   118    2
   122   117   120   am
   123   156   155   ar
   124   156   154   ar
   125   155   153   ar
   126   175   174    2
   127   139   136    1
   128   163   162    1
   129   126   120    1
   130   126   125    1
   131   164   162    1
   132   174   173    1
   133   120   121    1
   134   176   173    1
   135   132   131    1
   136   169   170    1
   137   169   166    1
   138   133   131    1
   139   154   152   ar
   140   168   167    2
   141   153   150   ar
   142   162   161    1
   143   170   171    1
   144   131   128    1
   145   173   172    1
   146   166   167    1
   147   166   165    1
   148   121   124    1
   149   121   122    1
   150   125   124    1
   151   136   135    1
   152   136   137    1
   153   152   150   ar
   154   152   151   ar
   155   150   148   ar
   156   137   138    2
   157   161   158    1
   158   171   165    1
   159   122   123    2
   160   128   127    1
   161   128   129    1
   162   151   149   ar
   163   129   130    2
   164   148   147    1
   165   148   149   ar
   166   158   157    1
   167   158   159    1
   168   147   144    1
   169   157   145   am
   170   145   144    1
   171   145   146    2
   172   159   160    2
   173   144   143    1
