@<TRIPOS>MOLECULE
tmp/4yuuV18.pdb
 171 168 0 0 0
SMALL
GASTEIGER

@<TRIPOS>ATOM
      1  N        153.5980  102.3080   73.5680 N.3   192  PHE192     -0.1241
      2  CA       153.4910  102.4310   75.0170 C.3   192  PHE192      0.1605
      3  C        153.7030  101.0990   75.7390 C.2   192  PHE192      0.2264
      4  O        153.5650  101.0190   76.9620 O.2   192  PHE192     -0.2867
      5  CB       152.1320  103.0150   75.4000 C.3   192  PHE192      0.0534
      6  CG       151.9650  104.4580   75.0230 C.ar  192  PHE192     -0.0203
      7  CD1      152.4980  105.4620   75.8150 C.ar  192  PHE192     -0.0042
      8  CD2      151.2670  104.8120   73.8810 C.ar  192  PHE192     -0.0042
      9  CE1      152.3420  106.7910   75.4740 C.ar  192  PHE192     -0.0003
     10  CE2      151.1070  106.1410   73.5320 C.ar  192  PHE192     -0.0003
     11  CZ       151.6460  107.1310   74.3280 C.ar  192  PHE192     -0.0000
     12  N        169.2980  112.1010   61.0260 N.3   245  PHE245     -0.1241
     13  CA       168.1850  113.0420   61.1830 C.3   245  PHE245      0.1605
     14  C        166.8440  112.3000   61.1590 C.2   245  PHE245      0.2264
     15  O        165.8630  112.7600   61.7660 O.2   245  PHE245     -0.2867
     16  CB       168.2360  114.1750   60.1340 C.3   245  PHE245      0.0534
     17  CG       167.6330  113.8410   58.7850 C.ar  245  PHE245     -0.0203
     18  CD1      166.2580  113.8440   58.5910 C.ar  245  PHE245     -0.0042
     19  CD2      168.4490  113.6250   57.6870 C.ar  245  PHE245     -0.0042
     20  CE1      165.7130  113.5630   57.3470 C.ar  245  PHE245     -0.0003
     21  CE2      167.9070  113.3540   56.4390 C.ar  245  PHE245     -0.0003
     22  CZ       166.5410  113.3220   56.2720 C.ar  245  PHE245     -0.0000
     23  N        164.2240  112.8470   64.1880 N.3   249  PHE249     -0.1227
     24  CA       162.7930  113.1140   64.0610 C.3   249  PHE249      0.1736
     25  C        161.9940  112.0920   64.8550 C.2   249  PHE249      0.2595
     26  O        161.0180  112.4420   65.5350 O.2   249  PHE249     -0.2718
     27  CB       162.3520  113.1040   62.5960 C.3   249  PHE249      0.0547
     28  CG       162.5480  114.4150   61.8960 C.ar  249  PHE249     -0.0202
     29  CD1      161.9650  115.5700   62.3900 C.ar  249  PHE249     -0.0042
     30  CD2      163.3060  114.4920   60.7370 C.ar  249  PHE249     -0.0042
     31  CE1      162.1410  116.7810   61.7460 C.ar  249  PHE249     -0.0003
     32  CE2      163.4830  115.6990   60.0870 C.ar  249  PHE249     -0.0003
     33  CZ       162.9010  116.8450   60.5920 C.ar  249  PHE249     -0.0000
     34  N        162.4170  110.8330   64.7820 N.am  250  VAL250     -0.1980
     35  CA       161.7280  109.7900   65.5340 C.3   250  VAL250      0.1595
     36  C        161.7340  110.0480   67.0470 C.2   250  VAL250      0.2287
     37  O        160.6740  110.0390   67.6830 O.2   250  VAL250     -0.2864
     38  CB       162.3320  108.4060   65.2590 C.3   250  VAL250      0.0276
     39  CG1      161.7800  107.3820   66.2410 C.3   250  VAL250      0.0022
     40  CG2      162.0370  107.9880   63.8320 C.3   250  VAL250      0.0022
     41  N        162.2970  112.8040   68.6300 N.3   252  SER252     -0.1202
     42  CA       161.5430  114.0230   68.9060 C.3   252  SER252      0.2020
     43  C        160.0550  113.6930   69.0080 C.2   252  SER252      0.2619
     44  O        159.3600  114.1250   69.9440 O.2   252  SER252     -0.2717
     45  CB       161.7790  115.0700   67.8190 C.3   252  SER252      0.2103
     46  OG       163.1610  115.2840   67.5960 O.3   252  SER252     -0.2182
     47  N        159.5770  112.9170   68.0370 N.am  253  GLY253     -0.1942
     48  CA       158.1930  112.4850   68.0220 C.3   253  GLY253      0.2014
     49  C        157.7990  111.7180   69.2700 C.2   253  GLY253      0.2639
     50  O        156.8280  112.0740   69.9460 O.2   253  GLY253     -0.2714
     51  N        158.5580  110.6690   69.5810 N.am  254  THR254     -0.1950
     52  CA       158.2620  109.8390   70.7440 C.3   254  THR254      0.1897
     53  C        158.3610  110.6350   72.0390 C.2   254  THR254      0.2313
     54  O        157.6280  110.3710   72.9870 O.2   254  THR254     -0.2863
     55  CB       159.1990  108.6190   70.8380 C.3   254  THR254      0.1794
     56  OG1      160.5590  109.0580   70.9770 O.3   254  THR254     -0.2208
     57  CG2      159.0630  107.7540   69.5950 C.3   254  THR254      0.0378
     58  N        157.6780  113.9370   72.3460 N.3   256  TRP256     -0.1227
     59  CA       156.5600  114.8720   72.4540 C.3   256  TRP256      0.1737
     60  C        155.2090  114.1760   72.6630 C.2   256  TRP256      0.2595
     61  O        154.4000  114.6190   73.4810 O.2   256  TRP256     -0.2718
     62  CB       156.4940  115.7710   71.2190 C.3   256  TRP256      0.0564
     63  CG       155.5810  116.9490   71.3910 C.ar  256  TRP256      0.0003
     64  CD1      154.4220  117.1980   70.7120 C.ar  256  TRP256      0.0946
     65  CD2      155.7480  118.0330   72.3100 C.ar  256  TRP256      0.0152
     66  NE1      153.8610  118.3750   71.1480 N.ar  256  TRP256     -0.2442
     67  CE2      154.6560  118.9070   72.1310 C.ar  256  TRP256      0.0810
     68  CE3      156.7180  118.3540   73.2680 C.ar  256  TRP256      0.0012
     69  CZ2      154.5050  120.0760   72.8700 C.ar  256  TRP256      0.0191
     70  CZ3      156.5680  119.5160   74.0000 C.ar  256  TRP256      0.0001
     71  CH2      155.4710  120.3620   73.7990 C.ar  256  TRP256      0.0015
     72  N        154.9590  113.0960   71.9270 N.am  257  TYR257     -0.1976
     73  CA       153.6780  112.3960   72.0330 C.3   257  TYR257      0.1639
     74  C        153.6670  111.4160   73.2020 C.2   257  TYR257      0.2290
     75  O        152.6070  111.0390   73.6980 O.2   257  TYR257     -0.2864
     76  CB       153.3490  111.6530   70.7350 C.3   257  TYR257      0.0560
     77  CG       153.2320  112.5520   69.5260 C.ar  257  TYR257     -0.0198
     78  CD1      152.3090  113.5880   69.4940 C.ar  257  TYR257     -0.0009
     79  CD2      154.0400  112.3590   68.4120 C.ar  257  TYR257     -0.0009
     80  CE1      152.2010  114.4090   68.3920 C.ar  257  TYR257      0.0417
     81  CE2      153.9370  113.1740   67.3040 C.ar  257  TYR257      0.0417
     82  CZ       153.0160  114.1970   67.2980 C.ar  257  TYR257      0.1957
     83  OH       152.9120  115.0130   66.1940 O.3   257  TYR257     -0.2866
     84  N        152.7820  115.1210   79.3060 N.3   270  THR270     -0.1218
     85  CA       152.6820  115.6630   77.9570 C.3   270  THR270      0.1862
     86  C        151.5710  116.7010   77.8640 C.2   270  THR270      0.2287
     87  O        150.7250  116.7930   78.7480 O.2   270  THR270     -0.2866
     88  CB       152.4290  114.5530   76.9190 C.3   270  THR270      0.1770
     89  OG1      151.0920  114.0550   77.0550 O.3   270  THR270     -0.2211
     90  CG2      153.4180  113.4080   77.1090 C.3   270  THR270      0.0375
     91  N        149.2180  116.7380   75.7240 N.3   272  TYR272     -0.1227
     92  CA       147.9920  116.0860   75.2930 C.3   272  TYR272      0.1736
     93  C        147.2240  115.5220   76.4850 C.2   272  TYR272      0.2595
     94  O        146.0000  115.3790   76.4410 O.2   272  TYR272     -0.2718
     95  CB       148.3150  114.9930   74.2750 C.3   272  TYR272      0.0548
     96  CG       149.1100  115.5190   73.1020 C.ar  272  TYR272     -0.0200
     97  CD1      148.4790  116.1540   72.0370 C.ar  272  TYR272     -0.0009
     98  CD2      150.4960  115.4030   73.0690 C.ar  272  TYR272     -0.0009
     99  CE1      149.2060  116.6470   70.9670 C.ar  272  TYR272      0.0417
    100  CE2      151.2320  115.8930   72.0050 C.ar  272  TYR272      0.0417
    101  CZ       150.5820  116.5130   70.9570 C.ar  272  TYR272      0.1957
    102  OH       151.3110  117.0010   69.8980 O.3   272  TYR272     -0.2866
    103  N        147.9490  115.2180   77.5550 N.am  273  GLN273     -0.1979
    104  CA       147.3210  114.7590   78.7850 C.3   273  GLN273      0.1601
    105  C        146.5140  115.8920   79.4090 C.2   273  GLN273      0.2287
    106  O        145.4340  115.6660   79.9520 O.2   273  GLN273     -0.2864
    107  CB       148.3730  114.2230   79.7580 C.3   273  GLN273      0.0394
    108  CG       148.9020  112.8520   79.3660 C.3   273  GLN273      0.0908
    109  CD       150.1110  112.4300   80.1720 C.2   273  GLN273      0.2608
    110  OE1      150.8310  113.2650   80.7130 O.2   273  GLN273     -0.2717
    111  NE2      150.3430  111.1250   80.2530 N.am  273  GLN273     -0.0878
    112  N        143.3590  116.4130   77.0160 N.3   276  SER276     -0.1217
    113  CA       142.2470  115.4810   77.1680 C.3   276  SER276      0.1889
    114  C        141.7840  115.3320   78.6150 C.2   276  SER276      0.2288
    115  O        140.8270  114.6100   78.8890 O.2   276  SER276     -0.2866
    116  CB       142.6320  114.1090   76.6150 C.3   276  SER276      0.2089
    117  OG       143.6280  113.5070   77.4210 O.3   276  SER276     -0.2183
    118  N        143.3400  113.8580   80.9660 N.3   278  TYR278     -0.1241
    119  CA       143.7220  112.4960   81.3340 C.3   278  TYR278      0.1605
    120  C        143.6420  112.2420   82.8470 C.2   278  TYR278      0.2264
    121  O        142.7960  111.4610   83.3430 O.2   278  TYR278     -0.2867
    122  CB       145.1370  112.2450   80.7990 C.3   278  TYR278      0.0534
    123  CG       145.6650  110.8310   80.8830 C.ar  278  TYR278     -0.0201
    124  CD1      145.1510  109.8250   80.0780 C.ar  278  TYR278     -0.0009
    125  CD2      146.7280  110.5200   81.7230 C.ar  278  TYR278     -0.0009
    126  CE1      145.6500  108.5380   80.1400 C.ar  278  TYR278      0.0417
    127  CE2      147.2360  109.2390   81.7860 C.ar  278  TYR278      0.0417
    128  CZ       146.6910  108.2520   80.9960 C.ar  278  TYR278      0.1957
    129  OH       147.1970  106.9750   81.0620 O.3   278  TYR278     -0.2866
    130  N        162.6070  117.8960   72.7740 N.3   451  THR451     -0.1203
    131  CA       161.8590  117.8830   71.5230 C.3   451  THR451      0.1994
    132  C        162.2810  119.0340   70.6040 C.2   451  THR451      0.2617
    133  O        162.4910  118.8380   69.4030 O.2   451  THR451     -0.2717
    134  CB       160.3520  117.9520   71.7800 C.3   451  THR451      0.1784
    135  OG1      159.9880  116.9300   72.7140 O.3   451  THR451     -0.2211
    136  CG2      159.5800  117.7460   70.4860 C.3   451  THR451      0.0376
    137  N        162.4290  120.2220   71.1810 N.am  452  PHE452     -0.1975
    138  CA       162.8520  121.4070   70.4380 C.3   452  PHE452      0.1639
    139  C        164.2270  121.2120   69.7970 C.2   452  PHE452      0.2290
    140  O        164.3840  121.2650   68.5520 O.2   452  PHE452     -0.2864
    141  CB       162.8550  122.6170   71.3760 C.3   452  PHE452      0.0560
    142  CG       163.4550  123.8590   70.7810 C.ar  452  PHE452     -0.0200
    143  CD1      162.7340  124.6360   69.8900 C.ar  452  PHE452     -0.0042
    144  CD2      164.7280  124.2690   71.1400 C.ar  452  PHE452     -0.0042
    145  CE1      163.2810  125.7870   69.3520 C.ar  452  PHE452     -0.0003
    146  CE2      165.2780  125.4200   70.6080 C.ar  452  PHE452     -0.0003
    147  CZ       164.5530  126.1810   69.7120 C.ar  452  PHE452     -0.0000
    148  N        164.2670  118.3030   67.1490 N.3   455  ALA455     -0.1245
    149  CA       163.5250  118.6040   65.9310 C.3   455  ALA455      0.1562
    150  C        164.3490  119.5500   65.0540 C.2   455  ALA455      0.2260
    151  O        164.5830  119.2860   63.8580 O.2   455  ALA455     -0.2867
    152  CB       162.1730  119.2130   66.2590 C.3   455  ALA455      0.0290
    153  N        166.0860  118.9680   61.3130 N.3   459  LEU459     -0.1245
    154  CA       165.9250  119.8270   60.1360 C.3   459  LEU459      0.1561
    155  C        167.2760  120.2490   59.5210 C.2   459  LEU459      0.2260
    156  O        167.5800  120.0220   58.3070 O.2   459  LEU459     -0.2867
    157  CB       165.0980  121.0570   60.5340 C.3   459  LEU459      0.0270
    158  CG       164.2960  121.8380   59.4870 C.3   459  LEU459      0.0019
    159  CD1      163.4390  120.9160   58.6480 C.3   459  LEU459      0.0001
    160  CD2      163.4310  122.8720   60.1870 C.3   459  LEU459      0.0001
    161  N        168.9130  117.6250   57.8150 N.3   462  PHE462     -0.1241
    162  CA       168.3490  117.4140   56.4880 C.3   462  PHE462      0.1605
    163  C        169.1520  118.2500   55.4940 C.2   462  PHE462      0.2264
    164  O        169.6040  117.7400   54.4410 O.2   462  PHE462     -0.2867
    165  CB       166.8640  117.7850   56.4410 C.3   462  PHE462      0.0534
    166  CG       166.3250  117.9690   55.0490 C.ar  462  PHE462     -0.0203
    167  CD1      166.1830  116.8860   54.1990 C.ar  462  PHE462     -0.0042
    168  CD2      165.9500  119.2240   54.5970 C.ar  462  PHE462     -0.0042
    169  CE1      165.6900  117.0500   52.9260 C.ar  462  PHE462     -0.0003
    170  CE2      165.4540  119.3940   53.3220 C.ar  462  PHE462     -0.0003
    171  CZ       165.3250  118.3060   52.4850 C.ar  462  PHE462     -0.0000
@<TRIPOS>BOND
     1   171   169   ar
     2   171   170   ar
     3   169   167   ar
     4   170   168   ar
     5   167   166   ar
     6   164   163    2
     7   168   166   ar
     8   166   165    1
     9   163   162    1
    10    22    21   ar
    11    22    20   ar
    12    21    19   ar
    13   165   162    1
    14   162   161    1
    15    20    18   ar
    16    19    17   ar
    17   156   155    2
    18    18    17   ar
    19   159   158    1
    20    17    16    1
    21   158   160    1
    22   158   157    1
    23   155   154    1
    24    32    33   ar
    25    32    30   ar
    26    16    13    1
    27   154   157    1
    28   154   153    1
    29    33    31   ar
    30    30    28   ar
    31    12    13    1
    32    14    13    1
    33    14    15    2
    34    31    29   ar
    35    28    29   ar
    36    28    27    1
    37    27    24    1
    38    40    38    1
    39   151   150    2
    40    24    23    1
    41    24    25    1
    42    34    25   am
    43    34    35    1
    44    25    26    2
    45   150   149    1
    46    38    35    1
    47    38    39    1
    48    35    36    1
    49   149   152    1
    50   149   148    1
    51    83    82    1
    52    36    37    2
    53    82    81   ar
    54    82    80   ar
    55    81    79   ar
    56    46    45    1
    57    45    42    1
    58    48    47    1
    59    48    49    1
    60    47    43   am
    61    80    78   ar
    62    79    77   ar
    63   140   139    2
    64    41    42    1
    65    42    43    1
    66    43    44    2
    67    49    51   am
    68    49    50    2
    69   145   147   ar
    70   145   143   ar
    71   133   132    2
    72    78    77   ar
    73    77    76    1
    74    51    52    1
    75    57    55    1
    76   147   146   ar
    77   139   138    1
    78   143   142   ar
    79   102   101    1
    80   138   137    1
    81   138   141    1
    82   136   134    1
    83   132   137   am
    84   132   131    1
    85   146   144   ar
    86    64    66   ar
    87    64    63   ar
    88    76    73    1
    89    52    55    1
    90    52    53    1
    91   142   144   ar
    92   142   141    1
    93    55    56    1
    94   101    99   ar
    95   101   100   ar
    96    99    97   ar
    97    66    67   ar
    98    62    63    1
    99    62    59    1
   100    63    65   ar
   101   131   134    1
   102   131   130    1
   103   134   135    1
   104    72    73    1
   105    72    60   am
   106   100    98   ar
   107    73    74    1
   108    97    96   ar
   109    53    54    2
   110    67    65   ar
   111    67    69   ar
   112    65    68   ar
   113    58    59    1
   114    59    60    1
   115    60    61    2
   116    69    71   ar
   117    98    96   ar
   118    96    95    1
   119    74    75    2
   120    68    70   ar
   121    10     8   ar
   122    10    11   ar
   123     1     2    1
   124    71    70   ar
   125     8     6   ar
   126    95    92    1
   127    11     9   ar
   128     2     5    1
   129     2     3    1
   130     6     5    1
   131     6     7   ar
   132    92    91    1
   133    92    93    1
   134     9     7   ar
   135     3     4    2
   136    94    93    2
   137    93   103   am
   138   116   113    1
   139   116   117    1
   140    88    89    1
   141    88    90    1
   142    88    85    1
   143   112   113    1
   144   113   114    1
   145   103   104    1
   146    86    85    1
   147    86    87    2
   148    85    84    1
   149   114   115    2
   150   104   105    1
   151   104   107    1
   152   108   107    1
   153   108   109    1
   154   105   106    2
   155   124   126   ar
   156   124   123   ar
   157   126   128   ar
   158   109   111   am
   159   109   110    2
   160   122   123    1
   161   122   119    1
   162   123   125   ar
   163   118   119    1
   164   128   129    1
   165   128   127   ar
   166   119   120    1
   167   125   127   ar
   168   120   121    2
