@<TRIPOS>MOLECULE
tmp/4yuuG02.pdb
 92 88 0 0 0
SMALL
GASTEIGER

@<TRIPOS>ATOM
      1  N        226.1680  177.1100   80.0790 N.3    26  THR26      -0.1203
      2  CA       225.4080  177.7630   81.1370 C.3    26  THR26       0.1994
      3  C        225.1480  176.8330   82.3190 C.2    26  THR26       0.2618
      4  O        224.2490  177.0770   83.1240 O.2    26  THR26      -0.2717
      5  CB       224.0590  178.2870   80.6090 C.3    26  THR26       0.1784
      6  OG1      223.3400  177.2140   79.9910 O.3    26  THR26      -0.2211
      7  CG2      224.2800  179.3880   79.5870 C.3    26  THR26       0.0376
      8  N        225.9450  175.7740   82.4200 N.am   27  THR27      -0.1952
      9  CA       225.7870  174.7740   83.4760 C.3    27  THR27       0.1897
     10  C        225.8360  175.3290   84.9140 C.2    27  THR27       0.2313
     11  O        224.9990  174.9510   85.7330 O.2    27  THR27      -0.2863
     12  CB       226.8510  173.6590   83.3430 C.3    27  THR27       0.1794
     13  OG1      226.7320  173.0380   82.0580 O.3    27  THR27      -0.2208
     14  CG2      226.6700  172.6040   84.4290 C.3    27  THR27       0.0378
     15  N        225.0140  178.2390   86.1410 N.3    29  ILE29      -0.1231
     16  CA       223.7750  178.9630   86.4070 C.3    29  ILE29       0.1692
     17  C        222.6400  177.9820   86.6880 C.2    29  ILE29       0.2591
     18  O        221.8740  178.1430   87.6490 O.2    29  ILE29      -0.2718
     19  CB       223.3950  179.8720   85.2220 C.3    29  ILE29       0.0266
     20  CG1      224.5730  180.7700   84.8400 C.3    29  ILE29       0.0019
     21  CG2      222.1710  180.7050   85.5570 C.3    29  ILE29       0.0020
     22  CD1      224.2860  181.6960   83.6800 C.3    29  ILE29       0.0001
     23  N        222.5510  176.9580   85.8430 N.am   30  MET30      -0.1979
     24  CA       221.5690  175.8960   86.0050 C.3    30  MET30       0.1605
     25  C        221.7080  175.2300   87.3680 C.2    30  MET30       0.2287
     26  O        220.7120  174.9420   88.0290 O.2    30  MET30      -0.2864
     27  CB       221.7190  174.8530   84.9000 C.3    30  MET30       0.0413
     28  CG       220.6720  173.7550   84.9450 C.3    30  MET30       0.0598
     29  SD       221.1310  172.3260   83.9490 S.3    30  MET30      -0.1393
     30  CE       222.5320  171.7040   84.8770 C.3    30  MET30       0.0692
     31  N        220.2880  177.5340   90.0630 N.3    33  PHE33      -0.1227
     32  CA       218.8310  177.4410   90.0890 C.3    33  PHE33       0.1736
     33  C        218.3560  176.1110   90.6700 C.2    33  PHE33       0.2595
     34  O        217.3160  176.0500   91.3220 O.2    33  PHE33      -0.2718
     35  CB       218.2530  177.6390   88.6870 C.3    33  PHE33       0.0547
     36  CG       218.1490  179.0810   88.2770 C.ar   33  PHE33      -0.0202
     37  CD1      217.1230  179.8770   88.7590 C.ar   33  PHE33      -0.0042
     38  CD2      219.0740  179.6400   87.4110 C.ar   33  PHE33      -0.0042
     39  CE1      217.0210  181.2030   88.3860 C.ar   33  PHE33      -0.0003
     40  CE2      218.9770  180.9660   87.0340 C.ar   33  PHE33      -0.0003
     41  CZ       217.9480  181.7490   87.5220 C.ar   33  PHE33      -0.0000
     42  N        219.1220  175.0510   90.4360 N.am   34  MET34      -0.1979
     43  CA       218.8010  173.7400   90.9880 C.3    34  MET34       0.1605
     44  C        218.9420  173.7320   92.5070 C.2    34  MET34       0.2287
     45  O        218.0860  173.1950   93.2140 O.2    34  MET34      -0.2864
     46  CB       219.6900  172.6590   90.3710 C.3    34  MET34       0.0413
     47  CG       219.2900  172.2520   88.9650 C.3    34  MET34       0.0598
     48  SD       220.3480  170.9560   88.2970 S.3    34  MET34      -0.1393
     49  CE       220.1920  169.7060   89.5660 C.3    34  MET34       0.0692
     50  N        216.1500  175.5660   93.9410 N.3    37  PHE37      -0.1227
     51  CA       214.9490  174.7410   93.8440 C.3    37  PHE37       0.1736
     52  C        214.8810  173.7290   94.9810 C.2    37  PHE37       0.2595
     53  O        213.8260  173.5360   95.5900 O.2    37  PHE37      -0.2718
     54  CB       214.9030  174.0180   92.4980 C.3    37  PHE37       0.0547
     55  CG       213.5480  173.4690   92.1480 C.ar   37  PHE37      -0.0202
     56  CD1      212.4050  174.2260   92.3530 C.ar   37  PHE37      -0.0042
     57  CD2      213.4190  172.2030   91.6000 C.ar   37  PHE37      -0.0042
     58  CE1      211.1590  173.7260   92.0310 C.ar   37  PHE37      -0.0003
     59  CE2      212.1750  171.6970   91.2750 C.ar   37  PHE37      -0.0003
     60  CZ       211.0430  172.4610   91.4900 C.ar   37  PHE37      -0.0000
     61  N        216.0110  173.0820   95.2550 N.am   38  LEU38      -0.1980
     62  CA       216.1120  172.1500   96.3720 C.3    38  LEU38       0.1596
     63  C        215.7850  172.8570   97.6830 C.2    38  LEU38       0.2287
     64  O        215.0580  172.3220   98.5270 O.2    38  LEU38      -0.2864
     65  CB       217.5110  171.5330   96.4330 C.3    38  LEU38       0.0297
     66  CG       217.8370  170.6770   97.6580 C.3    38  LEU38       0.0022
     67  CD1      216.8720  169.5070   97.7800 C.3    38  LEU38       0.0001
     68  CD2      219.2740  170.1830   97.5980 C.3    38  LEU38       0.0001
     69  N        211.9120  173.3830   97.7760 N.3    41  LEU41      -0.1231
     70  CA       211.1980  172.1440   98.0570 C.3    41  LEU41       0.1693
     71  C        211.3620  171.7340   99.5150 C.2    41  LEU41       0.2591
     72  O        210.3990  171.3170  100.1640 O.2    41  LEU41      -0.2718
     73  CB       211.6820  171.0210   97.1380 C.3    41  LEU41       0.0284
     74  CG       211.3510  171.1780   95.6540 C.3    41  LEU41       0.0019
     75  CD1      211.7890  169.9490   94.8760 C.3    41  LEU41       0.0001
     76  CD2      209.8660  171.4440   95.4590 C.3    41  LEU41       0.0001
     77  N        212.5820  171.8630  100.0300 N.am   42  ILE42      -0.1980
     78  CA       212.8460  171.5520  101.4300 C.3    42  ILE42       0.1595
     79  C        212.0680  172.4920  102.3520 C.2    42  ILE42       0.2287
     80  O        211.5200  172.0630  103.3720 O.2    42  ILE42      -0.2864
     81  CB       214.3480  171.6380  101.7560 C.3    42  ILE42       0.0276
     82  CG1      215.0780  170.4820  100.9810 C.3    42  ILE42       0.0022
     83  CG2      214.5710  171.4860  103.2520 C.3    42  ILE42       0.0022
     84  CD1      216.4680  170.2180  101.4240 C.3    42  ILE42       0.0001
     85  N        208.3700  171.6410  102.2460 N.3    45  LEU45      -0.1245
     86  CA       208.2490  170.3460  102.9060 C.3    45  LEU45       0.1561
     87  C        208.2400  170.5110  104.4200 C.2    45  LEU45       0.2260
     88  O        207.3930  169.9420  105.1050 O.2    45  LEU45      -0.2867
     89  CB       209.3830  169.4080  102.4920 C.3    45  LEU45       0.0270
     90  CG       209.4140  168.0680  103.2370 C.3    45  LEU45       0.0019
     91  CD1      208.1330  167.2840  102.9940 C.3    45  LEU45       0.0001
     92  CD2      210.6300  167.2480  102.8400 C.3    45  LEU45       0.0001
@<TRIPOS>BOND
     1     7     5    1
     2     6     5    1
     3     1     2    1
     4     5     2    1
     5     2     3    1
     6    13    12    1
     7     3     8   am
     8     3     4    2
     9     8     9    1
    10    12     9    1
    11    12    14    1
    12     9    10    1
    13    22    20    1
    14    29    30    1
    15    29    28    1
    16    20    19    1
    17    27    28    1
    18    27    24    1
    19    10    11    2
    20    19    21    1
    21    19    16    1
    22    23    24    1
    23    23    17   am
    24    24    25    1
    25    15    16    1
    26    16    17    1
    27    17    18    2
    28    40    38   ar
    29    40    41   ar
    30    25    26    2
    31    38    36   ar
    32    41    39   ar
    33    36    35    1
    34    36    37   ar
    35    48    47    1
    36    48    49    1
    37    39    37   ar
    38    35    32    1
    39    47    46    1
    40    31    32    1
    41    32    33    1
    42    46    43    1
    43    42    33   am
    44    42    43    1
    45    33    34    2
    46    43    44    1
    47    59    60   ar
    48    59    57   ar
    49    60    58   ar
    50    57    55   ar
    51    58    56   ar
    52    55    56   ar
    53    55    54    1
    54    54    51    1
    55    44    45    2
    56    51    50    1
    57    51    52    1
    58    75    74    1
    59    52    61   am
    60    52    53    2
    61    61    62    1
    62    76    74    1
    63    74    73    1
    64    62    65    1
    65    62    63    1
    66    65    66    1
    67    73    70    1
    68    68    66    1
    69    66    67    1
    70    63    64    2
    71    69    70    1
    72    70    71    1
    73    71    77   am
    74    71    72    2
    75    77    78    1
    76    82    84    1
    77    82    81    1
    78    78    81    1
    79    78    79    1
    80    81    83    1
    81    85    86    1
    82    79    80    2
    83    89    86    1
    84    89    90    1
    85    92    90    1
    86    86    87    1
    87    91    90    1
    88    87    88    2
