@<TRIPOS>MOLECULE
tmp/4yuuA16.pdb
 126 121 0 0 0
SMALL
GASTEIGER

@<TRIPOS>ATOM
      1  N        197.1990  112.5430   94.5950 N.3    45  THR45      -0.1218
      2  CA       196.6750  113.6170   93.7580 C.3    45  THR45       0.1862
      3  C        195.1770  113.4760   93.5140 C.2    45  THR45       0.2287
      4  O        194.4290  114.4530   93.6170 O.2    45  THR45      -0.2866
      5  CB       197.3990  113.6710   92.4020 C.3    45  THR45       0.1770
      6  OG1      198.7920  113.9200   92.6160 O.3    45  THR45      -0.2211
      7  CG2      196.8290  114.7780   91.5300 C.3    45  THR45       0.0375
      8  N        193.3090  114.1640   96.6780 N.3    48  PHE48      -0.1227
      9  CA       193.4260  115.5900   96.9790 C.3    48  PHE48       0.1736
     10  C        192.4830  116.4410   96.1440 C.2    48  PHE48       0.2595
     11  O        191.8010  117.3000   96.6860 O.2    48  PHE48      -0.2718
     12  CB       194.8550  116.0980   96.7730 C.3    48  PHE48       0.0547
     13  CG       194.9800  117.5980   96.8860 C.ar   48  PHE48      -0.0202
     14  CD1      195.0100  118.2130   98.1280 C.ar   48  PHE48      -0.0042
     15  CD2      195.0530  118.3940   95.7530 C.ar   48  PHE48      -0.0042
     16  CE1      195.1190  119.5890   98.2370 C.ar   48  PHE48      -0.0003
     17  CE2      195.1610  119.7720   95.8580 C.ar   48  PHE48      -0.0003
     18  CZ       195.1950  120.3680   97.1020 C.ar   48  PHE48      -0.0000
     19  N        192.4630  116.2240   94.8310 N.am   49  ILE49      -0.1980
     20  CA       191.6170  117.0260   93.9530 C.3    49  ILE49       0.1595
     21  C        190.1430  116.8150   94.2810 C.2    49  ILE49       0.2287
     22  O        189.3970  117.7840   94.5290 O.2    49  ILE49      -0.2864
     23  CB       191.8860  116.7000   92.4690 C.3    49  ILE49       0.0276
     24  CG1      193.2820  117.1960   92.0700 C.3    49  ILE49       0.0022
     25  CG2      190.8340  117.3310   91.5770 C.3    49  ILE49       0.0022
     26  CD1      193.6430  116.9430   90.6220 C.3    49  ILE49       0.0001
     27  N        191.3880  130.5410   98.1730 N.3    78  ILE78      -0.1245
     28  CA       192.2160  130.9820   99.2900 C.3    78  ILE78       0.1561
     29  C        191.8410  130.3100  100.6150 C.2    78  ILE78       0.2260
     30  O        192.7130  130.0060  101.4280 O.2    78  ILE78      -0.2867
     31  CB       192.1380  132.5130   99.4660 C.3    78  ILE78       0.0252
     32  CG1      192.5750  133.2170   98.1830 C.3    78  ILE78       0.0019
     33  CG2      193.0080  132.9710  100.6210 C.3    78  ILE78       0.0019
     34  CD1      193.9800  132.8810   97.7470 C.3    78  ILE78       0.0001
     35  N        201.8430  111.1630   99.8770 N.3   119  PHE119     -0.1241
     36  CA       202.6450  112.2660   99.3740 C.3   119  PHE119      0.1605
     37  C        204.0720  112.1910   99.8870 C.2   119  PHE119      0.2264
     38  O        205.0140  112.3440   99.1150 O.2   119  PHE119     -0.2867
     39  CB       202.0230  113.6070   99.7600 C.3   119  PHE119      0.0534
     40  CG       202.9200  114.7810   99.5160 C.ar  119  PHE119     -0.0203
     41  CD1      203.0870  115.2860   98.2390 C.ar  119  PHE119     -0.0042
     42  CD2      203.5910  115.3860  100.5640 C.ar  119  PHE119     -0.0042
     43  CE1      203.9110  116.3700   98.0110 C.ar  119  PHE119     -0.0003
     44  CE2      204.4150  116.4710  100.3420 C.ar  119  PHE119     -0.0003
     45  CZ       204.5750  116.9630   99.0650 C.ar  119  PHE119     -0.0000
     46  N        211.4400  119.6870  104.9850 N.3   153  ALA153     -0.1231
     47  CA       210.4140  120.6280  105.4380 C.3   153  ALA153      0.1694
     48  C        209.0050  119.9990  105.4350 C.2   153  ALA153      0.2591
     49  O        208.2620  120.0500  106.4430 O.2   153  ALA153     -0.2718
     50  CB       210.4400  121.8730  104.5860 C.3   153  ALA153      0.0304
     51  N        208.6510  119.3910  104.3050 N.am  154  ALA154     -0.1980
     52  CA       207.3490  118.7450  104.1700 C.3   154  ALA154      0.1597
     53  C        207.1480  117.6670  105.2400 C.2   154  ALA154      0.2287
     54  O        206.0710  117.5500  105.8370 O.2   154  ALA154     -0.2864
     55  CB       207.1980  118.1490  102.7900 C.3   154  ALA154      0.0319
     56  N        206.4220  119.3030  108.6760 N.3   157  VAL157     -0.1231
     57  CA       205.0870  119.8310  108.9650 C.3   157  VAL157      0.1692
     58  C        203.9560  118.8180  108.7640 C.2   157  VAL157      0.2592
     59  O        202.8430  119.0380  109.2420 O.2   157  VAL157     -0.2718
     60  CB       204.7750  121.0860  108.1270 C.3   157  VAL157      0.0266
     61  CG1      205.7810  122.1910  108.4360 C.3   157  VAL157      0.0020
     62  CG2      204.7630  120.7560  106.6370 C.3   157  VAL157      0.0020
     63  N        204.2230  117.7100  108.0810 N.am  158  PHE158     -0.1976
     64  CA       203.1560  116.7410  107.8160 C.3   158  PHE158      0.1639
     65  C        203.2510  115.4690  108.6470 C.2   158  PHE158      0.2290
     66  O        202.2790  114.7270  108.7460 O.2   158  PHE158     -0.2864
     67  CB       203.1350  116.3650  106.3320 C.3   158  PHE158      0.0560
     68  CG       202.6990  117.4800  105.4320 C.ar  158  PHE158     -0.0200
     69  CD1      201.7560  118.4000  105.8550 C.ar  158  PHE158     -0.0042
     70  CD2      203.2360  117.6120  104.1660 C.ar  158  PHE158     -0.0042
     71  CE1      201.3550  119.4290  105.0310 C.ar  158  PHE158     -0.0003
     72  CE2      202.8380  118.6350  103.3350 C.ar  158  PHE158     -0.0003
     73  CZ       201.8990  119.5480  103.7660 C.ar  158  PHE158     -0.0000
     74  N        200.0850  120.3480  109.2830 N.3   172  MET172     -0.1245
     75  CA       199.7150  121.5240  108.5050 C.3   172  MET172      0.1570
     76  C        198.5740  121.1950  107.5530 C.2   172  MET172      0.2261
     77  O        198.6430  120.2170  106.8090 O.2   172  MET172     -0.2867
     78  CB       200.9120  122.0700  107.7200 C.3   172  MET172      0.0387
     79  CG       200.6850  123.4840  107.2040 C.3   172  MET172      0.0595
     80  SD       201.9430  124.1030  106.0690 S.3   172  MET172     -0.1393
     81  CE       201.6880  123.0310  104.6600 C.3   172  MET172      0.0692
     82  N        195.8090  127.1130  101.7800 N.3   176  ILE176     -0.1245
     83  CA       196.4230  128.4150  102.0140 C.3   176  ILE176      0.1561
     84  C        196.1260  128.9770  103.4140 C.2   176  ILE176      0.2260
     85  O        197.0330  129.1400  104.2540 O.2   176  ILE176     -0.2867
     86  CB       195.9520  129.4100  100.9310 C.3   176  ILE176      0.0252
     87  CG1      196.3160  128.8720   99.5470 C.3   176  ILE176      0.0019
     88  CG2      196.5560  130.7780  101.1420 C.3   176  ILE176      0.0019
     89  CD1      195.7990  129.7040   98.4040 C.3   176  ILE176      0.0001
     90  N        197.2950  126.9080  106.1560 N.3   179  THR179     -0.1203
     91  CA       198.7260  127.0920  106.3490 C.3   179  THR179      0.1994
     92  C        198.9700  128.2840  107.2630 C.2   179  THR179      0.2617
     93  O        199.7210  128.1820  108.2370 O.2   179  THR179     -0.2717
     94  CB       199.4610  127.3020  105.0100 C.3   179  THR179      0.1784
     95  OG1      199.2570  126.1590  104.1660 O.3   179  THR179     -0.2211
     96  CG2      200.9530  127.5000  105.2400 C.3   179  THR179      0.0376
     97  N        198.3180  129.4060  106.9650 N.am  180  PHE180     -0.1975
     98  CA       198.4500  130.5900  107.8240 C.3   180  PHE180      0.1639
     99  C        198.0610  130.2900  109.2780 C.2   180  PHE180      0.2290
    100  O        198.7320  130.7300  110.2180 O.2   180  PHE180     -0.2864
    101  CB       197.6030  131.7420  107.2830 C.3   180  PHE180      0.0560
    102  CG       197.9630  132.1490  105.8840 C.ar  180  PHE180     -0.0200
    103  CD1      199.2670  132.0250  105.4290 C.ar  180  PHE180     -0.0042
    104  CD2      196.9980  132.6410  105.0190 C.ar  180  PHE180     -0.0042
    105  CE1      199.6030  132.3920  104.1400 C.ar  180  PHE180     -0.0003
    106  CE2      197.3270  133.0110  103.7290 C.ar  180  PHE180     -0.0003
    107  CZ       198.6320  132.8840  103.2880 C.ar  180  PHE180     -0.0000
    108  N        198.1380  127.3230  110.8240 N.3   182  PHE182     -0.1227
    109  CA       199.2610  126.5280  111.3060 C.3   182  PHE182      0.1736
    110  C        200.4040  127.4190  111.7840 C.2   182  PHE182      0.2595
    111  O        200.9240  127.2340  112.8890 O.2   182  PHE182     -0.2718
    112  CB       199.7390  125.5880  110.1970 C.3   182  PHE182      0.0547
    113  CG       200.8850  124.7020  110.5900 C.ar  182  PHE182     -0.0202
    114  CD1      200.6570  123.5030  111.2450 C.ar  182  PHE182     -0.0042
    115  CD2      202.1910  125.0500  110.2720 C.ar  182  PHE182     -0.0042
    116  CE1      201.7120  122.6760  111.5970 C.ar  182  PHE182     -0.0003
    117  CE2      203.2470  124.2270  110.6200 C.ar  182  PHE182     -0.0003
    118  CZ       203.0060  123.0400  111.2850 C.ar  182  PHE182     -0.0000
    119  N        200.7770  128.3940  110.9560 N.am  183  MET183     -0.1979
    120  CA       201.8630  129.3100  111.2950 C.3   183  MET183      0.1605
    121  C        201.5760  130.1010  112.5700 C.2   183  MET183      0.2287
    122  O        202.4210  130.1760  113.4670 O.2   183  MET183     -0.2864
    123  CB       202.1320  130.2770  110.1400 C.3   183  MET183      0.0413
    124  CG       202.4370  129.5820  108.8280 C.3   183  MET183      0.0598
    125  SD       202.8270  130.6930  107.4710 S.3   183  MET183     -0.1393
    126  CE       204.5290  131.1150  107.8450 C.3   183  MET183      0.0692
@<TRIPOS>BOND
     1    26    24    1
     2     7     5    1
     3    25    23    1
     4    24    23    1
     5     5     6    1
     6     5     2    1
     7    23    20    1
     8     3     4    2
     9     3     2    1
    10     2     1    1
    11    20    21    1
    12    20    19    1
    13    21    22    2
    14    19    10   am
    15    15    17   ar
    16    15    13   ar
    17    17    18   ar
    18    10    11    2
    19    10     9    1
    20     8     9    1
    21    12    13    1
    22    12     9    1
    23    13    14   ar
    24    18    16   ar
    25    34    32    1
    26    43    41   ar
    27    43    45   ar
    28    14    16   ar
    29    27    28    1
    30    32    31    1
    31    41    40   ar
    32    89    87    1
    33    45    44   ar
    34    38    37    2
    35    28    31    1
    36    28    29    1
    37    36    39    1
    38    36    35    1
    39    36    37    1
    40    31    33    1
    41    40    39    1
    42    40    42   ar
    43    87    86    1
    44    44    42   ar
    45    29    30    2
    46    86    88    1
    47    86    83    1
    48    82    83    1
    49    83    84    1
    50    55    52    1
    51   107   106   ar
    52   107   105   ar
    53    72    73   ar
    54    72    70   ar
    55    84    85    2
    56   106   104   ar
    57    73    71   ar
    58   105   103   ar
    59    70    68   ar
    60    95    94    1
    61    52    51    1
    62    52    53    1
    63    51    48   am
    64    50    47    1
    65    81    80    1
    66    46    47    1
    67    94    96    1
    68    94    91    1
    69   104   102   ar
    70    71    69   ar
    71    53    54    2
    72   103   102   ar
    73    68    69   ar
    74    68    67    1
    75    48    47    1
    76    48    49    2
    77   102   101    1
    78    80    79    1
    79    90    91    1
    80    67    64    1
    81    91    92    1
    82    62    60    1
    83    77    76    2
    84    97    92   am
    85    97    98    1
    86    79    78    1
    87    92    93    2
    88   101    98    1
    89   125   126    1
    90   125   124    1
    91    76    75    1
    92    78    75    1
    93    64    63    1
    94    64    65    1
    95    98    99    1
    96    63    58   am
    97    60    61    1
    98    60    57    1
    99    75    74    1
   100    65    66    2
   101    56    57    1
   102    58    57    1
   103    58    59    2
   104   124   123    1
   105    99   100    2
   106   123   120    1
   107   112   113    1
   108   112   109    1
   109   115   113   ar
   110   115   117   ar
   111   113   114   ar
   112   117   118   ar
   113   108   109    1
   114   119   120    1
   115   119   110   am
   116   114   116   ar
   117   118   116   ar
   118   120   121    1
   119   109   110    1
   120   110   111    2
   121   121   122    2
