@<TRIPOS>MOLECULE
tmp/4yuuU12.pdb
 75 69 0 0 0
SMALL
GASTEIGER

@<TRIPOS>ATOM
      1  N        174.6530  167.2740   56.1160 N.3    29  PRO29      -0.2116
      2  CA       174.2270  167.8860   57.3830 C.3    29  PRO29       0.1372
      3  C        172.9250  167.2940   57.9300 C.2    29  PRO29       0.2244
      4  O        172.8250  167.0680   59.1410 O.2    29  PRO29      -0.2868
      5  CB       174.0370  169.3670   57.0200 C.3    29  PRO29       0.0268
      6  CG       174.7800  169.5570   55.7410 C.3    29  PRO29       0.0207
      7  CD       174.6550  168.2590   55.0180 C.3    29  PRO29       0.0892
      8  N        173.4910  163.8600   59.3660 N.3    32  LEU32      -0.1231
      9  CA       174.3090  163.9490   60.5720 C.3    32  LEU32       0.1693
     10  C        173.4880  164.4230   61.7740 C.2    32  LEU32       0.2592
     11  O        173.5670  163.8260   62.8550 O.2    32  LEU32      -0.2718
     12  CB       175.5150  164.8640   60.3470 C.3    32  LEU32       0.0284
     13  CG       176.6890  164.1940   59.6180 C.3    32  LEU32       0.0019
     14  CD1      177.8490  165.1590   59.4270 C.3    32  LEU32       0.0001
     15  CD2      177.1530  162.9440   60.3540 C.3    32  LEU32       0.0001
     16  N        172.6940  165.4770   61.5870 N.am   33  THR33      -0.1953
     17  CA       171.8210  165.9590   62.6580 C.3    33  THR33       0.1897
     18  C        170.8590  164.8540   63.1020 C.2    33  THR33       0.2313
     19  O        170.7290  164.5530   64.3060 O.2    33  THR33      -0.2863
     20  CB       171.0060  167.2000   62.2280 C.3    33  THR33       0.1794
     21  OG1      170.2240  166.8790   61.0720 O.3    33  THR33      -0.2208
     22  CG2      171.9210  168.3710   61.8900 C.3    33  THR33       0.0378
     23  N        172.7590  162.0120   65.0140 N.3    36  THR36      -0.1218
     24  CA       173.1780  162.4050   66.3510 C.3    36  THR36       0.1862
     25  C        171.9820  162.3900   67.3020 C.2    36  THR36       0.2287
     26  O        172.0080  161.7160   68.3500 O.2    36  THR36      -0.2866
     27  CB       173.8500  163.8010   66.3570 C.3    36  THR36       0.1770
     28  OG1      175.0740  163.7470   65.6110 O.3    36  THR36      -0.2211
     29  CG2      174.1650  164.2410   67.7770 C.3    36  THR36       0.0375
     30  N        171.5860  159.7060   70.5310 N.3    40  ILE40      -0.1245
     31  CA       171.4590  160.2710   71.8710 C.3    40  ILE40       0.1561
     32  C        170.0840  159.9750   72.4870 C.2    40  ILE40       0.2260
     33  O        169.9930  159.5840   73.6530 O.2    40  ILE40      -0.2867
     34  CB       171.7020  161.7900   71.8670 C.3    40  ILE40       0.0252
     35  CG1      173.1120  162.0820   71.3620 C.3    40  ILE40       0.0019
     36  CG2      171.5030  162.3670   73.2560 C.3    40  ILE40       0.0019
     37  CD1      173.4560  163.5570   71.3250 C.3    40  ILE40       0.0001
     38  N        162.7560  172.8130   68.4700 N.3    86  ILE86      -0.1245
     39  CA       163.2140  173.0470   69.8340 C.3    86  ILE86       0.1561
     40  C        162.9260  174.4770   70.2780 C.2    86  ILE86       0.2260
     41  O        162.5490  174.7170   71.4250 O.2    86  ILE86      -0.2867
     42  CB       164.7260  172.7680   69.9780 C.3    86  ILE86       0.0252
     43  CG1      165.0470  171.3300   69.5630 C.3    86  ILE86       0.0019
     44  CG2      165.1890  173.0210   71.4050 C.3    86  ILE86       0.0019
     45  CD1      166.4980  170.9440   69.7710 C.3    86  ILE86       0.0001
     46  N        161.3780  174.7940   76.9740 N.3    91  SER91      -0.1202
     47  CA       162.6300  174.1810   77.3980 C.3    91  SER91       0.2020
     48  C        162.8780  172.8780   76.6480 C.2    91  SER91       0.2619
     49  O        161.9710  172.3380   76.0140 O.2    91  SER91      -0.2717
     50  CB       162.6200  173.9210   78.9040 C.3    91  SER91       0.2103
     51  OG       161.6340  172.9610   79.2450 O.3    91  SER91      -0.2182
     52  N        164.1080  172.3790   76.7260 N.am   92  LEU92      -0.1965
     53  CA       164.4540  171.0980   76.1230 C.3    92  LEU92       0.1728
     54  C        163.6810  169.9680   76.7870 C.2    92  LEU92       0.2616
     55  O        163.3640  168.9660   76.1500 O.2    92  LEU92      -0.2715
     56  CB       165.9570  170.8320   76.2280 C.3    92  LEU92       0.0311
     57  CG       166.8600  171.3020   75.0900 C.3    92  LEU92       0.0022
     58  CD1      166.4830  170.5920   73.8020 C.3    92  LEU92       0.0001
     59  CD2      166.7850  172.8110   74.9240 C.3    92  LEU92       0.0001
     60  N        163.3850  170.1380   78.0710 N.am   93  ASP93      -0.1971
     61  CA       162.6440  169.1370   78.8300 C.3    93  ASP93       0.1709
     62  C        161.2300  168.9640   78.2800 C.2    93  ASP93       0.2293
     63  O        160.7730  167.8380   78.0550 O.2    93  ASP93      -0.2864
     64  CB       162.5970  169.5220   80.3060 C.3    93  ASP93       0.1436
     65  CG       163.9760  169.7770   80.8830 C.2    93  ASP93       0.3671
     66  OD1      164.6060  168.8130   81.3670 O.co2  93  ASP93      -0.2456
     67  OD2      164.4340  170.9390   80.8460 O.co2  93  ASP93      -0.2456
     68  N        161.3850  167.2390   74.9500 N.3    96  LEU96      -0.1245
     69  CA       161.5690  165.8030   75.1120 C.3    96  LEU96       0.1561
     70  C        160.2740  165.1320   75.5470 C.2    96  LEU96       0.2260
     71  O        159.9920  164.0010   75.1530 O.2    96  LEU96      -0.2867
     72  CB       162.6780  165.5140   76.1280 C.3    96  LEU96       0.0270
     73  CG       164.1060  165.8990   75.7340 C.3    96  LEU96       0.0019
     74  CD1      165.0540  165.7140   76.9110 C.3    96  LEU96       0.0001
     75  CD2      164.5770  165.0980   74.5260 C.3    96  LEU96       0.0001
@<TRIPOS>BOND
     1     7     6    1
     2     7     1    1
     3     6     5    1
     4     1     2    1
     5     5     2    1
     6     2     3    1
     7     3     4    2
     8     8     9    1
     9    14    13    1
    10    13    12    1
    11    13    15    1
    12    12     9    1
    13     9    10    1
    14    21    20    1
    15    16    10   am
    16    16    17    1
    17    10    11    2
    18    22    20    1
    19    20    17    1
    20    17    18    1
    21    18    19    2
    22    23    24    1
    23    28    27    1
    24    24    27    1
    25    24    25    1
    26    27    29    1
    27    25    26    2
    28    38    39    1
    29    43    45    1
    30    43    42    1
    31    39    42    1
    32    39    40    1
    33    42    44    1
    34    40    41    2
    35    30    31    1
    36    37    35    1
    37    35    34    1
    38    34    31    1
    39    34    36    1
    40    31    32    1
    41    32    33    2
    42    58    57    1
    43    75    73    1
    44    59    57    1
    45    68    69    1
    46    57    56    1
    47    69    70    1
    48    69    72    1
    49    71    70    2
    50    73    72    1
    51    73    74    1
    52    49    48    2
    53    53    56    1
    54    53    52    1
    55    53    54    1
    56    55    54    2
    57    48    52   am
    58    48    47    1
    59    54    60   am
    60    46    47    1
    61    47    50    1
    62    63    62    2
    63    60    61    1
    64    62    61    1
    65    61    64    1
    66    50    51    1
    67    64    65    1
    68    67    65   ar
    69    65    66   ar
