@<TRIPOS>MOLECULE
tmp/4yuuV17.pdb
 119 116 0 0 0
SMALL
GASTEIGER

@<TRIPOS>ATOM
      1  N        177.3750  118.3090   87.3940 N.3    39  TYR39      -0.1241
      2  CA       176.6850  119.5740   87.6570 C.3    39  TYR39       0.1605
      3  C        175.2670  119.3280   88.1660 C.2    39  TYR39       0.2264
      4  O        174.8330  119.9100   89.1770 O.2    39  TYR39      -0.2867
      5  CB       176.6530  120.4370   86.3900 C.3    39  TYR39       0.0534
      6  CG       175.8410  121.7090   86.5120 C.ar   39  TYR39      -0.0201
      7  CD1      176.3940  122.8610   87.0510 C.ar   39  TYR39      -0.0009
      8  CD2      174.5210  121.7590   86.0710 C.ar   39  TYR39      -0.0009
      9  CE1      175.6540  124.0250   87.1610 C.ar   39  TYR39       0.0417
     10  CE2      173.7740  122.9140   86.1760 C.ar   39  TYR39       0.0417
     11  CZ       174.3450  124.0450   86.7200 C.ar   39  TYR39       0.1957
     12  OH       173.5990  125.1970   86.8210 O.3    39  TYR39      -0.2866
     13  N        173.5370  120.1710   91.8160 N.3    43  VAL43      -0.1245
     14  CA       172.4220  121.0930   92.0070 C.3    43  VAL43       0.1561
     15  C        171.1020  120.3810   92.3410 C.2    43  VAL43       0.2260
     16  O        170.1040  121.0280   92.6750 O.2    43  VAL43      -0.2867
     17  CB       172.2290  121.9840   90.7510 C.3    43  VAL43       0.0252
     18  CG1      171.3870  121.2700   89.7040 C.3    43  VAL43       0.0019
     19  CG2      171.6020  123.3190   91.1270 C.3    43  VAL43       0.0019
     20  N        163.2410  131.7350   75.8430 N.3   324  PHE324     -0.1241
     21  CA       164.3120  132.4090   76.5710 C.3   324  PHE324      0.1605
     22  C        164.0180  132.5380   78.0630 C.2   324  PHE324      0.2264
     23  O        164.6520  133.3240   78.7650 O.2   324  PHE324     -0.2867
     24  CB       164.5770  133.7850   75.9590 C.3   324  PHE324      0.0534
     25  CG       165.0420  133.7230   74.5330 C.ar  324  PHE324     -0.0203
     26  CD1      166.3380  133.3350   74.2320 C.ar  324  PHE324     -0.0042
     27  CD2      164.1810  134.0410   73.4930 C.ar  324  PHE324     -0.0042
     28  CE1      166.7670  133.2700   72.9180 C.ar  324  PHE324     -0.0003
     29  CE2      164.6080  133.9790   72.1790 C.ar  324  PHE324     -0.0003
     30  CZ       165.9010  133.5920   71.8910 C.ar  324  PHE324     -0.0000
     31  N        164.9100  130.8960   80.9560 N.3   326  ALA326     -0.1231
     32  CA       165.9350  129.9250   81.3020 C.3   326  ALA326      0.1694
     33  C        165.6850  129.2680   82.6540 C.2   326  ALA326      0.2593
     34  O        165.0360  129.8440   83.5280 O.2   326  ALA326     -0.2718
     35  CB       167.2990  130.5870   81.2890 C.3   326  ALA326      0.0304
     36  N        166.2030  128.0550   82.8120 N.am  327  GLY327     -0.1943
     37  CA       166.1910  127.3850   84.0970 C.3   327  GLY327      0.1998
     38  C        165.2020  126.2470   84.2240 C.2   327  GLY327      0.2480
     39  O        164.5420  125.8710   83.2540 O.2   327  GLY327     -0.2729
     40  N        165.1010  125.6840   85.4350 N.am  328  PRO328     -0.2726
     41  CA       164.1480  124.6250   85.7730 C.3   328  PRO328      0.1402
     42  C        162.7400  125.1830   85.9250 C.2   328  PRO328      0.2269
     43  O        162.5800  126.4010   86.0120 O.2   328  PRO328     -0.2865
     44  CB       164.6740  124.1010   87.1100 C.3   328  PRO328      0.0296
     45  CG       165.3420  125.2760   87.7220 C.3   328  PRO328      0.0237
     46  CD       165.9540  126.0440   86.5820 C.3   328  PRO328      0.0939
     47  N        161.8590  127.6000   88.7310 N.3   331  LYS331     -0.1245
     48  CA       162.2560  128.9950   88.6060 C.3   331  LYS331      0.1561
     49  C        161.0390  129.8520   88.2540 C.2   331  LYS331      0.2260
     50  O        161.0790  131.0810   88.3360 O.2   331  LYS331     -0.2867
     51  CB       163.3610  129.1380   87.5510 C.3   331  LYS331      0.0271
     52  CG       163.8500  130.5560   87.2950 C.3   331  LYS331      0.0035
     53  CD       164.4680  131.1870   88.5300 C.3   331  LYS331      0.0206
     54  CE       164.7590  132.6590   88.2890 C.3   331  LYS331      0.1093
     55  NZ       165.4340  133.3020   89.4450 N.3   331  LYS331     -0.1314
     56  N        164.5850  130.0330   94.9990 N.3   436  LEU436     -0.1245
     57  CA       165.1710  130.2480   93.6790 C.3   436  LEU436      0.1561
     58  C        164.8210  131.6100   93.0910 C.2   436  LEU436      0.2260
     59  O        165.1150  131.8710   91.9270 O.2   436  LEU436     -0.2867
     60  CB       164.7280  129.1480   92.7130 C.3   436  LEU436      0.0270
     61  CG       165.0320  127.7040   93.1190 C.3   436  LEU436      0.0019
     62  CD1      164.6570  126.7510   91.9960 C.3   436  LEU436      0.0001
     63  CD2      166.4960  127.5400   93.5030 C.3   436  LEU436      0.0001
     64  N        162.3200  120.8390   75.9460 N.3   449  TRP449     -0.1241
     65  CA       163.6510  121.2240   75.4870 C.3   449  TRP449      0.1605
     66  C        164.2500  120.1640   74.5710 C.2   449  TRP449      0.2264
     67  O        164.8190  120.4890   73.5220 O.2   449  TRP449     -0.2867
     68  CB       164.5780  121.4820   76.6770 C.3   449  TRP449      0.0550
     69  CG       164.3680  122.8250   77.3050 C.ar  449  TRP449      0.0003
     70  CD1      163.9360  123.0790   78.5730 C.ar  449  TRP449      0.0946
     71  CD2      164.5650  124.0990   76.6840 C.ar  449  TRP449      0.0152
     72  NE1      163.8590  124.4350   78.7850 N.ar  449  TRP449     -0.2442
     73  CE2      164.2400  125.0850   77.6370 C.ar  449  TRP449      0.0810
     74  CE3      164.9890  124.5040   75.4140 C.ar  449  TRP449      0.0012
     75  CZ2      164.3220  126.4470   77.3650 C.ar  449  TRP449      0.0191
     76  CZ3      165.0720  125.8570   75.1420 C.ar  449  TRP449      0.0001
     77  CH2      164.7410  126.8130   76.1150 C.ar  449  TRP449      0.0015
     78  N        162.4290  120.2220   71.1810 N.3   452  PHE452     -0.1227
     79  CA       162.8520  121.4070   70.4380 C.3   452  PHE452      0.1736
     80  C        164.2270  121.2120   69.7970 C.2   452  PHE452      0.2596
     81  O        164.3840  121.2650   68.5520 O.2   452  PHE452     -0.2718
     82  CB       162.8550  122.6170   71.3760 C.3   452  PHE452      0.0547
     83  CG       163.4550  123.8590   70.7810 C.ar  452  PHE452     -0.0202
     84  CD1      162.7340  124.6360   69.8900 C.ar  452  PHE452     -0.0042
     85  CD2      164.7280  124.2690   71.1400 C.ar  452  PHE452     -0.0042
     86  CE1      163.2810  125.7870   69.3520 C.ar  452  PHE452     -0.0003
     87  CE2      165.2780  125.4200   70.6080 C.ar  452  PHE452     -0.0003
     88  CZ       164.5530  126.1810   69.7120 C.ar  452  PHE452     -0.0000
     89  N        165.2120  120.9660   70.6600 N.am  453  GLY453     -0.1957
     90  CA       166.5810  120.7610   70.2310 C.3   453  GLY453      0.1869
     91  C        166.7030  119.7270   69.1290 C.2   453  GLY453      0.2309
     92  O        167.3600  119.9630   68.1100 O.2   453  GLY453     -0.2863
     93  N        164.8250  120.6400   65.6560 N.3   456  ASN456     -0.1225
     94  CA       165.6100  121.6040   64.8800 C.3   456  ASN456      0.1785
     95  C        166.9370  121.0200   64.3690 C.2   456  ASN456      0.2597
     96  O        167.3530  121.2700   63.2170 O.2   456  ASN456     -0.2718
     97  CB       165.8650  122.8620   65.7060 C.3   456  ASN456      0.1169
     98  CG       164.7500  123.8760   65.5650 C.2   456  ASN456      0.2627
     99  OD1      164.1940  124.0530   64.4800 O.2   456  ASN456     -0.2716
    100  ND2      164.4080  124.5390   66.6610 N.am  456  ASN456     -0.0877
    101  N        167.5950  120.2270   65.2110 N.am  457  PHE457     -0.1976
    102  CA       168.8120  119.5430   64.7840 C.3   457  PHE457      0.1639
    103  C        168.5170  118.6130   63.6120 C.2   457  PHE457      0.2290
    104  O        169.3040  118.5140   62.6800 O.2   457  PHE457     -0.2864
    105  CB       169.4360  118.7600   65.9460 C.3   457  PHE457      0.0560
    106  CG       170.1980  119.6170   66.9190 C.ar  457  PHE457     -0.0200
    107  CD1      170.7510  120.8190   66.5150 C.ar  457  PHE457     -0.0042
    108  CD2      170.3570  119.2210   68.2390 C.ar  457  PHE457     -0.0042
    109  CE1      171.4480  121.6100   67.4060 C.ar  457  PHE457     -0.0003
    110  CE2      171.0510  120.0100   69.1360 C.ar  457  PHE457     -0.0003
    111  CZ       171.5980  121.2040   68.7190 C.ar  457  PHE457     -0.0000
    112  N        168.1060  120.8380   60.3760 N.3   460  LEU460     -0.1245
    113  CA       169.4310  121.2760   59.9450 C.3   460  LEU460      0.1561
    114  C        170.2230  120.1210   59.3290 C.2   460  LEU460      0.2260
    115  O        170.9410  120.2970   58.3340 O.2   460  LEU460     -0.2867
    116  CB       170.2010  121.8810   61.1190 C.3   460  LEU460      0.0270
    117  CG       169.6520  123.2060   61.6540 C.3   460  LEU460      0.0019
    118  CD1      170.3720  123.6200   62.9330 C.3   460  LEU460      0.0001
    119  CD2      169.7670  124.2990   60.6010 C.3   460  LEU460      0.0001
@<TRIPOS>BOND
     1   115   114    2
     2   114   113    1
     3   113   112    1
     4   113   116    1
     5   119   117    1
     6   116   117    1
     7   117   118    1
     8   104   103    2
     9    96    95    2
    10   103   102    1
    11    95    94    1
    12    95   101   am
    13    99    98    2
    14   102   101    1
    15   102   105    1
    16    94    93    1
    17    94    97    1
    18    98    97    1
    19    98   100   am
    20   105   106    1
    21   107   106   ar
    22   107   109   ar
    23   106   108   ar
    24   109   111   ar
    25    92    91    2
    26   108   110   ar
    27    81    80    2
    28   111   110   ar
    29    91    90    1
    30    86    88   ar
    31    86    84   ar
    32    88    87   ar
    33    80    79    1
    34    80    89   am
    35    84    83   ar
    36    90    89    1
    37    79    78    1
    38    79    82    1
    39    87    85   ar
    40    83    85   ar
    41    83    82    1
    42    30    29   ar
    43    30    28   ar
    44    29    27   ar
    45    28    26   ar
    46    27    25   ar
    47    67    66    2
    48    26    25   ar
    49    25    24    1
    50    66    65    1
    51    76    74   ar
    52    76    77   ar
    53    74    71   ar
    54    65    64    1
    55    65    68    1
    56    20    21    1
    57    24    21    1
    58    77    75   ar
    59    21    22    1
    60    68    69    1
    61    71    69   ar
    62    71    73   ar
    63    69    70   ar
    64    75    73   ar
    65    73    72   ar
    66    22    23    2
    67    70    72   ar
    68    31    32    1
    69    35    32    1
    70    32    33    1
    71    33    36   am
    72    33    34    2
    73    36    37    1
    74    39    38    2
    75    37    38    1
    76    38    40   am
    77    40    41    1
    78    40    46    1
    79    41    42    1
    80    41    44    1
    81    42    43    2
    82     8    10   ar
    83     8     6   ar
    84    10    11   ar
    85     5     6    1
    86     5     2    1
    87     6     7   ar
    88    46    45    1
    89    11    12    1
    90    11     9   ar
    91     7     9   ar
    92    44    45    1
    93    52    51    1
    94    52    53    1
    95     1     2    1
    96    51    48    1
    97     2     3    1
    98     3     4    2
    99    49    50    2
   100    49    48    1
   101    54    53    1
   102    54    55    1
   103    48    47    1
   104    18    17    1
   105    17    19    1
   106    17    14    1
   107    13    14    1
   108    59    58    2
   109    62    61    1
   110    14    15    1
   111    15    16    2
   112    60    61    1
   113    60    57    1
   114    58    57    1
   115    61    63    1
   116    57    56    1
