@<TRIPOS>MOLECULE
tmp/4yuuW06.pdb
 164 155 0 0 0
SMALL
GASTEIGER

@<TRIPOS>ATOM
      1  N        157.1950  166.9140   14.6140 N.3    22  SER22      -0.1217
      2  CA       156.2830  167.9490   15.1010 C.3    22  SER22       0.1889
      3  C        154.8120  167.6670   14.7930 C.2    22  SER22       0.2288
      4  O        153.9460  167.8380   15.6520 O.2    22  SER22      -0.2866
      5  CB       156.6700  169.3050   14.5100 C.3    22  SER22       0.2089
      6  OG       158.0140  169.6260   14.8130 O.3    22  SER22      -0.2183
      7  N        152.0530  166.7470   17.5770 N.3    26  LEU26      -0.1245
      8  CA       150.9150  167.6430   17.7380 C.3    26  LEU26       0.1561
      9  C        149.6160  166.8510   17.6730 C.2    26  LEU26       0.2260
     10  O        148.6850  167.0930   18.4480 O.2    26  LEU26      -0.2867
     11  CB       150.9290  168.7330   16.6650 C.3    26  LEU26       0.0270
     12  CG       149.8010  169.7640   16.7280 C.3    26  LEU26       0.0019
     13  CD1      149.8430  170.5260   18.0440 C.3    26  LEU26       0.0001
     14  CD2      149.8730  170.7190   15.5470 C.3    26  LEU26       0.0001
     15  N        149.1270  165.0090   20.9730 N.3    29  HIS29      -0.1226
     16  CA       148.6610  165.9280   22.0100 C.3    29  HIS29       0.1752
     17  C        147.1880  166.2990   21.8470 C.2    29  HIS29       0.2595
     18  O        146.4190  166.2740   22.8130 O.2    29  HIS29      -0.2718
     19  CB       149.5100  167.1950   22.0150 C.3    29  HIS29       0.0759
     20  CG       150.8870  166.9900   22.5590 C.ar   29  HIS29       0.0818
     21  ND1      152.0160  167.4170   21.8990 N.ar   29  HIS29      -0.2268
     22  CD2      151.3130  166.4050   23.7030 C.ar   29  HIS29       0.1154
     23  CE1      153.0850  167.1020   22.6150 C.ar   29  HIS29       0.1986
     24  NE2      152.6810  166.4920   23.7120 N.ar   29  HIS29      -0.2212
     25  N        146.8020  166.6470   20.6240 N.am   30  VAL30      -0.1980
     26  CA       145.4290  167.0460   20.3450 C.3    30  VAL30       0.1595
     27  C        144.4620  165.8870   20.5800 C.2    30  VAL30       0.2287
     28  O        143.4080  166.0660   21.1900 O.2    30  VAL30      -0.2864
     29  CB       145.2800  167.5680   18.9010 C.3    30  VAL30       0.0276
     30  CG1      143.8140  167.7550   18.5420 C.3    30  VAL30       0.0022
     31  CG2      146.0430  168.8730   18.7350 C.3    30  VAL30       0.0022
     32  N        144.0860  165.3950   24.3260 N.3    33  ALA33      -0.1245
     33  CA       143.1710  166.4050   24.8440 C.3    33  ALA33       0.1562
     34  C        141.7370  165.9940   24.5330 C.2    33  ALA33       0.2260
     35  O        140.8320  166.1470   25.3620 O.2    33  ALA33      -0.2867
     36  CB       143.4810  167.7670   24.2470 C.3    33  ALA33       0.0290
     37  N        138.0990  167.7430   18.7220 N.3   101  LEU101     -0.1245
     38  CA       139.4950  167.5030   19.0770 C.3   101  LEU101      0.1561
     39  C        139.9720  166.1240   18.6280 C.2   101  LEU101      0.2260
     40  O        141.1330  165.9440   18.2600 O.2   101  LEU101     -0.2867
     41  CB       139.6990  167.6460   20.5860 C.3   101  LEU101      0.0270
     42  CG       139.5070  169.0480   21.1630 C.3   101  LEU101      0.0019
     43  CD1      139.6670  169.0340   22.6700 C.3   101  LEU101      0.0001
     44  CD2      140.4870  170.0160   20.5290 C.3   101  LEU101      0.0001
     45  N        156.3740  169.8110   10.7930 N.3   116  LEU116     -0.1245
     46  CA       155.7040  171.0930   10.6050 C.3   116  LEU116      0.1561
     47  C        156.6950  172.2190   10.3420 C.2   116  LEU116      0.2260
     48  O        156.3090  173.3820   10.2220 O.2   116  LEU116     -0.2867
     49  CB       154.8480  171.4360   11.8270 C.3   116  LEU116      0.0270
     50  CG       153.7500  170.4430   12.2080 C.3   116  LEU116      0.0019
     51  CD1      152.9800  170.9440   13.4180 C.3   116  LEU116      0.0001
     52  CD2      152.8140  170.1880   11.0400 C.3   116  LEU116      0.0001
     53  N        155.6400  178.8500   11.5930 N.3   122  PHE122     -0.1227
     54  CA       155.0950  179.3880   12.8330 C.3   122  PHE122      0.1736
     55  C        154.7880  178.2670   13.8180 C.2   122  PHE122      0.2595
     56  O        154.9350  178.4320   15.0260 O.2   122  PHE122     -0.2718
     57  CB       153.8340  180.2080   12.5530 C.3   122  PHE122      0.0547
     58  CG       153.2590  180.8740   13.7720 C.ar  122  PHE122     -0.0202
     59  CD1      153.7620  182.0840   14.2190 C.ar  122  PHE122     -0.0042
     60  CD2      152.2110  180.2940   14.4660 C.ar  122  PHE122     -0.0042
     61  CE1      153.2350  182.7010   15.3390 C.ar  122  PHE122     -0.0003
     62  CE2      151.6800  180.9050   15.5870 C.ar  122  PHE122     -0.0003
     63  CZ       152.1920  182.1110   16.0240 C.ar  122  PHE122     -0.0000
     64  N        154.3600  177.1260   13.2920 N.am  123  PHE123     -0.1976
     65  CA       154.0170  175.9890   14.1330 C.3   123  PHE123      0.1639
     66  C        155.1420  174.9630   14.1540 C.2   123  PHE123      0.2290
     67  O        154.9970  173.8780   14.7170 O.2   123  PHE123     -0.2864
     68  CB       152.7140  175.3480   13.6550 C.3   123  PHE123      0.0560
     69  CG       151.5220  176.2560   13.7620 C.ar  123  PHE123     -0.0200
     70  CD1      151.1260  176.7560   14.9920 C.ar  123  PHE123     -0.0042
     71  CD2      150.7950  176.6080   12.6370 C.ar  123  PHE123     -0.0042
     72  CE1      150.0300  177.5940   15.0980 C.ar  123  PHE123     -0.0003
     73  CE2      149.6960  177.4430   12.7360 C.ar  123  PHE123     -0.0003
     74  CZ       149.3140  177.9370   13.9700 C.ar  123  PHE123     -0.0000
     75  N        159.2830  173.9680   15.0410 N.3   125  TYR125     -0.1241
     76  CA       160.2100  174.2470   16.1310 C.3   125  TYR125      0.1605
     77  C        161.3470  173.2370   16.2170 C.2   125  TYR125      0.2264
     78  O        161.1860  172.0640   15.8760 O.2   125  TYR125     -0.2867
     79  CB       159.4670  174.2760   17.4720 C.3   125  TYR125      0.0534
     80  CG       158.8560  172.9450   17.8540 C.ar  125  TYR125     -0.0201
     81  CD1      157.5860  172.5900   17.4140 C.ar  125  TYR125     -0.0009
     82  CD2      159.5490  172.0410   18.6510 C.ar  125  TYR125     -0.0009
     83  CE1      157.0260  171.3730   17.7540 C.ar  125  TYR125      0.0417
     84  CE2      158.9980  170.8220   18.9940 C.ar  125  TYR125      0.0417
     85  CZ       157.7360  170.4950   18.5460 C.ar  125  TYR125      0.1957
     86  OH       157.1820  169.2840   18.8870 O.3   125  TYR125     -0.2866
     87  N        161.6960  180.1810   20.5480 N.3   132  LYS132     -0.1245
     88  CA       160.4210  179.6120   20.1270 C.3   132  LYS132      0.1561
     89  C        159.6990  178.9620   21.3050 C.2   132  LYS132      0.2260
     90  O        158.4890  179.1470   21.4970 O.2   132  LYS132     -0.2867
     91  CB       160.6410  178.5920   19.0070 C.3   132  LYS132      0.0271
     92  CG       159.3820  178.2160   18.2510 C.3   132  LYS132      0.0035
     93  CD       158.7330  179.4460   17.6370 C.3   132  LYS132      0.0206
     94  CE       157.5370  179.0710   16.7830 C.3   132  LYS132      0.1093
     95  NZ       157.9290  178.2070   15.6370 N.3   132  LYS132     -0.1314
     96  N        158.3590  181.4280   23.6030 N.3   135  THR135     -0.1203
     97  CA       157.2030  182.0360   22.9570 C.3   135  THR135      0.1994
     98  C        155.9480  181.2040   23.2050 C.2   135  THR135      0.2617
     99  O        154.9310  181.7260   23.6760 O.2   135  THR135     -0.2717
    100  CB       157.4170  182.1990   21.4370 C.3   135  THR135      0.1784
    101  OG1      158.3930  183.2190   21.1980 O.3   135  THR135     -0.2211
    102  CG2      156.1150  182.5920   20.7530 C.3   135  THR135      0.0376
    103  N        156.0270  179.9120   22.8910 N.am  136  ILE136     -0.1979
    104  CA       154.9060  178.9990   23.1180 C.3   136  ILE136      0.1595
    105  C        154.4860  179.0050   24.5880 C.2   136  ILE136      0.2287
    106  O        153.2900  179.1000   24.9220 O.2   136  ILE136     -0.2864
    107  CB       155.2620  177.5620   22.6940 C.3   136  ILE136      0.0276
    108  CG1      155.7540  177.5420   21.2450 C.3   136  ILE136      0.0022
    109  CG2      154.0650  176.6400   22.8690 C.3   136  ILE136      0.0022
    110  CD1      156.2510  176.1940   20.7930 C.3   136  ILE136      0.0001
    111  N        152.5670  182.1410   25.3390 N.3   139  ILE139     -0.1231
    112  CA       151.2070  182.0410   24.8170 C.3   139  ILE139      0.1692
    113  C        150.3100  181.2470   25.7620 C.2   139  ILE139      0.2592
    114  O        149.2470  181.7240   26.1910 O.2   139  ILE139     -0.2718
    115  CB       151.1910  181.3740   23.4240 C.3   139  ILE139      0.0266
    116  CG1      152.0040  182.2020   22.4260 C.3   139  ILE139      0.0019
    117  CG2      149.7640  181.1880   22.9350 C.3   139  ILE139      0.0020
    118  CD1      152.2530  181.4990   21.1140 C.3   139  ILE139      0.0001
    119  N        150.7530  180.0390   26.1020 N.am  140  HIS140     -0.1976
    120  CA       149.9510  179.1660   26.9600 C.3   140  HIS140      0.1656
    121  C        149.7780  179.7340   28.3690 C.2   140  HIS140      0.2291
    122  O        148.7460  179.5270   29.0150 O.2   140  HIS140     -0.2864
    123  CB       150.5750  177.7750   27.0090 C.3   140  HIS140      0.0771
    124  CG       150.5090  177.0530   25.7020 C.ar  140  HIS140      0.0820
    125  ND1      151.2710  175.9420   25.4220 N.ar  140  HIS140     -0.2267
    126  CD2      149.7640  177.2920   24.5950 C.ar  140  HIS140      0.1154
    127  CE1      150.9990  175.5230   24.1970 C.ar  140  HIS140      0.1986
    128  NE2      150.0920  176.3250   23.6770 N.ar  140  HIS140     -0.2212
    129  N        147.0640  182.1390   28.1130 N.3   143  LEU143     -0.1231
    130  CA       145.8250  181.3610   28.1150 C.3   143  LEU143      0.1693
    131  C        145.3780  180.9940   29.5340 C.2   143  LEU143      0.2591
    132  O        144.2080  181.1750   29.8970 O.2   143  LEU143     -0.2718
    133  CB       145.9890  180.0910   27.2830 C.3   143  LEU143      0.0284
    134  CG       146.1220  180.2810   25.7700 C.3   143  LEU143      0.0019
    135  CD1      146.1290  178.9360   25.0760 C.3   143  LEU143      0.0001
    136  CD2      144.9980  181.1550   25.2380 C.3   143  LEU143      0.0001
    137  N        146.3120  180.4820   30.3320 N.am  144  LEU144     -0.1980
    138  CA       146.0170  180.1380   31.7220 C.3   144  LEU144      0.1596
    139  C        145.5110  181.3510   32.5020 C.2   144  LEU144      0.2287
    140  O        144.5350  181.2550   33.2630 O.2   144  LEU144     -0.2864
    141  CB       147.2540  179.5500   32.4060 C.3   144  LEU144      0.0297
    142  CG       147.6970  178.1670   31.9250 C.3   144  LEU144      0.0022
    143  CD1      148.9490  177.7230   32.6610 C.3   144  LEU144      0.0001
    144  CD2      146.5790  177.1490   32.0970 C.3   144  LEU144      0.0001
    145  N        143.9820  183.9020   31.2490 N.3   146  ILE146     -0.1231
    146  CA       142.6310  184.1280   30.7480 C.3   146  ILE146      0.1692
    147  C        141.6320  183.2100   31.4480 C.2   146  ILE146      0.2592
    148  O        140.5250  183.6330   31.7750 O.2   146  ILE146     -0.2718
    149  CB       142.5470  183.9210   29.2190 C.3   146  ILE146      0.0266
    150  CG1      143.2200  185.0840   28.4930 C.3   146  ILE146      0.0019
    151  CG2      141.1030  183.8110   28.7610 C.3   146  ILE146      0.0020
    152  CD1      143.0600  185.0380   26.9880 C.3   146  ILE146      0.0001
    153  N        142.0260  181.9620   31.6890 N.am  147  GLY147     -0.1957
    154  CA       141.1710  181.0360   32.4200 C.3   147  GLY147      0.1869
    155  C        140.9030  181.4780   33.8540 C.2   147  GLY147      0.2309
    156  O        139.7570  181.4320   34.3500 O.2   147  GLY147     -0.2863
    157  N        138.5160  183.9440   33.8230 N.3   150  LEU150     -0.1245
    158  CA       137.2000  183.3800   33.5470 C.3   150  LEU150      0.1561
    159  C        136.5350  182.9960   34.8570 C.2   150  LEU150      0.2260
    160  O        135.3480  183.2730   35.0660 O.2   150  LEU150     -0.2867
    161  CB       137.2880  182.1650   32.6230 C.3   150  LEU150      0.0270
    162  CG       137.5650  182.4190   31.1450 C.3   150  LEU150      0.0019
    163  CD1      137.4850  181.1160   30.3670 C.3   150  LEU150      0.0001
    164  CD2      136.5900  183.4440   30.5880 C.3   150  LEU150      0.0001
@<TRIPOS>BOND
     1    48    47    2
     2    47    46    1
     3    46    45    1
     4    46    49    1
     5    52    50    1
     6    53    54    1
     7    49    50    1
     8    50    51    1
     9    57    54    1
    10    57    58    1
    11    71    73   ar
    12    71    69   ar
    13    73    74   ar
    14    54    55    1
    15    64    55   am
    16    64    65    1
    17    68    69    1
    18    68    65    1
    19    69    70   ar
    20    58    59   ar
    21    58    60   ar
    22    55    56    2
    23    74    72   ar
    24    65    66    1
    25    66    67    2
    26    59    61   ar
    27    60    62   ar
    28     5     6    1
    29     5     2    1
    30     1     2    1
    31     3     2    1
    32     3     4    2
    33    70    72   ar
    34    75    76    1
    35    61    63   ar
    36    14    12    1
    37    62    63   ar
    38    95    94    1
    39    78    77    2
    40    76    77    1
    41    76    79    1
    42    11    12    1
    43    11     8    1
    44    12    13    1
    45    94    93    1
    46    81    83   ar
    47    81    80   ar
    48    79    80    1
    49     7     8    1
    50    93    92    1
    51     9     8    1
    52     9    10    2
    53    83    85   ar
    54    80    82   ar
    55    92    91    1
    56    40    39    2
    57    30    29    1
    58    85    86    1
    59    85    84   ar
    60    39    38    1
    61    82    84   ar
    62    37    38    1
    63    31    29    1
    64    29    26    1
    65    91    88    1
    66    38    41    1
    67    88    87    1
    68    88    89    1
    69    26    27    1
    70    26    25    1
    71    44    42    1
    72    27    28    2
    73    41    42    1
    74    25    17   am
    75   102   100    1
    76   110   108    1
    77    15    16    1
    78   118   116    1
    79    42    43    1
    80   101   100    1
    81   108   107    1
    82    89    90    2
    83   100    97    1
    84    17    16    1
    85    17    18    2
    86    21    20   ar
    87    21    23   ar
    88    16    19    1
    89    19    20    1
    90   116   115    1
    91    20    22   ar
    92    23    24   ar
    93   107   109    1
    94   107   104    1
    95   103   104    1
    96   103    98   am
    97   117   115    1
    98    97    98    1
    99    97    96    1
   100   104   105    1
   101    98    99    2
   102   115   112    1
   103   128   127   ar
   104   128   126   ar
   105    22    24   ar
   106   127   125   ar
   107    36    33    1
   108    32    33    1
   109    34    33    1
   110    34    35    2
   111   105   106    2
   112   126   124   ar
   113   112   111    1
   114   112   113    1
   115   135   134    1
   116   136   134    1
   117   125   124   ar
   118   124   123    1
   119   113   119   am
   120   113   114    2
   121   134   133    1
   122   119   120    1
   123   120   123    1
   124   120   121    1
   125   152   150    1
   126   133   130    1
   127   129   130    1
   128   130   131    1
   129   121   122    2
   130   150   149    1
   131   151   149    1
   132   149   146    1
   133   131   132    2
   134   131   137   am
   135   137   138    1
   136   163   162    1
   137   164   162    1
   138   146   145    1
   139   146   147    1
   140   162   161    1
   141   147   153   am
   142   147   148    2
   143   153   154    1
   144   138   141    1
   145   138   139    1
   146   142   144    1
   147   142   141    1
   148   142   143    1
   149   154   155    1
   150   139   140    2
   151   161   158    1
   152   158   157    1
   153   158   159    1
   154   155   156    2
   155   159   160    2
