@<TRIPOS>MOLECULE
tmp/4yuuV26.pdb
 156 146 0 0 0
SMALL
GASTEIGER

@<TRIPOS>ATOM
      1  N        166.5500  105.8430   83.2550 N.3    67  ARG67      -0.1231
      2  CA       165.7670  105.0380   82.3240 C.3    67  ARG67       0.1694
      3  C        166.3070  103.6210   82.1410 C.2    67  ARG67       0.2591
      4  O        165.5540  102.6990   81.8260 O.2    67  ARG67      -0.2718
      5  CB       165.6940  105.7360   80.9640 C.3    67  ARG67       0.0321
      6  CG       164.7900  105.0410   79.9590 C.3    67  ARG67       0.0489
      7  CD       164.6090  105.8660   78.6990 C.3    67  ARG67       0.2205
      8  NE       165.8150  105.9130   77.8770 N.pl3  67  ARG67      -0.0865
      9  CZ       165.8740  106.4980   76.6850 C.cat  67  ARG67       0.5346
     10  NH1      164.7970  107.0830   76.1850 N.pl3  67  ARG67       0.1354
     11  NH2      167.0050  106.4980   75.9940 N.pl3  67  ARG67       0.1354
     12  N        167.6070  103.4430   82.3440 N.am   68  LEU68      -0.1980
     13  CA       168.2330  102.1590   82.0520 C.3    68  LEU68       0.1596
     14  C        168.7760  101.4370   83.2840 C.2    68  LEU68       0.2287
     15  O        169.4010  100.3840   83.1550 O.2    68  LEU68      -0.2864
     16  CB       169.3610  102.3420   81.0310 C.3    68  LEU68       0.0297
     17  CG       168.9890  102.6690   79.5780 C.3    68  LEU68       0.0022
     18  CD1      168.6590  104.1460   79.3930 C.3    68  LEU68       0.0001
     19  CD2      170.1110  102.2520   78.6420 C.3    68  LEU68       0.0001
     20  N        177.5780   96.5680   65.8720 N.3   145  SER145     -0.1202
     21  CA       176.3680   97.2740   66.2790 C.3   145  SER145      0.2020
     22  C        175.1990   96.3240   66.5120 C.2   145  SER145      0.2619
     23  O        174.4750   96.4520   67.4960 O.2   145  SER145     -0.2717
     24  CB       175.9850   98.3180   65.2260 C.3   145  SER145      0.2103
     25  OG       175.5600   97.7610   64.0290 O.3   145  SER145     -0.2182
     26  N        175.0200   95.3730   65.6030 N.am  146  SER146     -0.1951
     27  CA       173.9050   94.4390   65.6880 C.3   146  SER146      0.1924
     28  C        174.0840   93.4780   66.8550 C.2   146  SER146      0.2314
     29  O        173.1220   93.1330   67.5380 O.2   146  SER146     -0.2863
     30  CB       173.7540   93.6620   64.3790 C.3   146  SER146      0.2116
     31  OG       173.5670   94.5450   63.2830 O.3   146  SER146     -0.2180
     32  N        175.7640   94.1410   69.6010 N.3   148  LEU148     -0.1231
     33  CA       175.5240   94.9500   70.7900 C.3   148  LEU148      0.1693
     34  C        174.0320   95.2000   70.9960 C.2   148  LEU148      0.2592
     35  O        173.5560   95.2690   72.1300 O.2   148  LEU148     -0.2718
     36  CB       176.2760   96.2770   70.6870 C.3   148  LEU148      0.0284
     37  CG       176.2960   97.1600   71.9340 C.3   148  LEU148      0.0019
     38  CD1      176.8470   96.3900   73.1240 C.3   148  LEU148      0.0001
     39  CD2      177.1190   98.4120   71.6820 C.3   148  LEU148      0.0001
     40  N        173.3030   95.3320   69.8900 N.am  149  CYS149     -0.1970
     41  CA       171.8570   95.5290   69.9170 C.3   149  CYS149      0.1712
     42  C        171.1630   94.3050   70.4970 C.2   149  CYS149      0.2296
     43  O        170.3610   94.4090   71.4320 O.2   149  CYS149     -0.2864
     44  CB       171.3300   95.8130   68.5070 C.3   149  CYS149      0.0983
     45  SG       169.5490   96.1410   68.3830 S.3   149  CYS149     -0.0798
     46  N        171.9390   93.9450   74.1440 N.3   152  PHE152     -0.1241
     47  CA       171.2080   94.9070   74.9590 C.3   152  PHE152      0.1605
     48  C        169.7440   94.5130   75.1100 C.2   152  PHE152      0.2264
     49  O        169.1420   94.7100   76.1650 O.2   152  PHE152     -0.2867
     50  CB       171.3110   96.3080   74.3560 C.3   152  PHE152      0.0534
     51  CG       170.4370   97.3240   75.0330 C.ar  152  PHE152     -0.0203
     52  CD1      170.7780   97.8290   76.2780 C.ar  152  PHE152     -0.0042
     53  CD2      169.2760   97.7770   74.4260 C.ar  152  PHE152     -0.0042
     54  CE1      169.9780   98.7640   76.9070 C.ar  152  PHE152     -0.0003
     55  CE2      168.4700   98.7130   75.0480 C.ar  152  PHE152     -0.0003
     56  CZ       168.8230   99.2070   76.2910 C.ar  152  PHE152     -0.0000
     57  N        164.3040   98.0200   82.5620 N.3   165  ILE165     -0.1245
     58  CA       163.9080   99.3390   82.0800 C.3   165  ILE165      0.1561
     59  C        162.9420   99.9960   83.0660 C.2   165  ILE165      0.2260
     60  O        162.2630   99.3100   83.8320 O.2   165  ILE165     -0.2867
     61  CB       163.2470   99.2520   80.6780 C.3   165  ILE165      0.0252
     62  CG1      164.0800   98.3760   79.7480 C.3   165  ILE165      0.0019
     63  CG2      163.0760  100.6300   80.0530 C.3   165  ILE165      0.0019
     64  CD1      165.4560   98.9330   79.4640 C.3   165  ILE165      0.0001
     65  N        160.1400   97.1190   73.2760 N.3   197  ILE197     -0.1245
     66  CA       161.5460   97.5230   73.3280 C.3   197  ILE197      0.1561
     67  C        162.4230   96.2810   73.2450 C.2   197  ILE197      0.2260
     68  O        163.1090   96.0540   72.2260 O.2   197  ILE197     -0.2867
     69  CB       161.8760   98.3010   74.6090 C.3   197  ILE197      0.0252
     70  CG1      160.9160   99.4730   74.7840 C.3   197  ILE197      0.0019
     71  CG2      163.2960   98.7690   74.5950 C.3   197  ILE197      0.0019
     72  CD1      161.1740  100.3000   76.0350 C.3   197  ILE197      0.0001
     73  N        162.0850   94.2190   70.1020 N.3   200  HIS200     -0.1226
     74  CA       162.6240   94.9890   68.9920 C.3   200  HIS200      0.1752
     75  C        164.0860   94.6760   68.8630 C.2   200  HIS200      0.2596
     76  O        164.5210   94.0660   67.8740 O.2   200  HIS200     -0.2718
     77  CB       162.4650   96.4900   69.1980 C.3   200  HIS200      0.0759
     78  CG       163.4230   97.3060   68.3740 C.ar  200  HIS200      0.0818
     79  ND1      163.3400   97.3940   67.0050 N.ar  200  HIS200     -0.2268
     80  CD2      164.5010   98.0530   68.7290 C.ar  200  HIS200      0.1154
     81  CE1      164.3050   98.1690   66.5440 C.ar  200  HIS200      0.1986
     82  NE2      165.0290   98.5780   67.5700 N.ar  200  HIS200     -0.2212
     83  N        164.8170   95.0160   69.9250 N.am  201  HIS201     -0.1975
     84  CA       166.2630   94.9940   69.8450 C.3   201  HIS201      0.1656
     85  C        166.6530   93.5990   69.4550 C.2   201  HIS201      0.2291
     86  O        167.3020   93.4120   68.4100 O.2   201  HIS201     -0.2864
     87  CB       166.8990   95.4730   71.1410 C.3   201  HIS201      0.0771
     88  CG       166.7720   96.9500   71.3230 C.ar  201  HIS201      0.0820
     89  ND1      165.6250   97.5310   71.8110 N.ar  201  HIS201     -0.2267
     90  CD2      167.6330   97.9660   71.0670 C.ar  201  HIS201      0.1154
     91  CE1      165.7840   98.8440   71.8560 C.ar  201  HIS201      0.1986
     92  NE2      166.9950   99.1280   71.4120 N.ar  201  HIS201     -0.2212
     93  N        165.7080   92.9420   65.8730 N.3   204  ALA204     -0.1245
     94  CA       166.4890   93.8030   64.9890 C.3   204  ALA204      0.1562
     95  C        167.9120   93.2890   65.0030 C.2   204  ALA204      0.2260
     96  O        168.5020   93.0190   63.9380 O.2   204  ALA204     -0.2867
     97  CB       166.4240   95.2460   65.4140 C.3   204  ALA204      0.0290
     98  N        174.8500  109.4570   53.7220 N.3   239  SER239     -0.1217
     99  CA       173.9130  108.4270   54.1640 C.3   239  SER239      0.1889
    100  C        173.7570  108.4230   55.6940 C.2   239  SER239      0.2288
    101  O        172.6340  108.3740   56.2210 O.2   239  SER239     -0.2866
    102  CB       174.3690  107.0540   53.6690 C.3   239  SER239      0.2089
    103  OG       175.6850  106.7630   54.1150 O.3   239  SER239     -0.2183
    104  N        171.7260  111.2660   56.8590 N.3   242  ALA242     -0.1231
    105  CA       170.3210  110.9670   56.5830 C.3   242  ALA242      0.1694
    106  C        169.7050  110.1090   57.6920 C.2   242  ALA242      0.2591
    107  O        168.6790  110.4780   58.2980 O.2   242  ALA242     -0.2718
    108  CB       170.1810  110.2740   55.2370 C.3   242  ALA242      0.0304
    109  N        170.3520  108.9750   57.9590 N.am  243  ALA243     -0.1980
    110  CA       169.9090  108.0630   59.0080 C.3   243  ALA243      0.1597
    111  C        169.7560  108.7900   60.3440 C.2   243  ALA243      0.2287
    112  O        168.7710  108.6040   61.0710 O.2   243  ALA243     -0.2864
    113  CB       170.8830  106.9060   59.1450 C.3   243  ALA243      0.0319
    114  N        166.7980  111.1560   60.4780 N.3   246  PHE246     -0.1227
    115  CA       165.6170  110.2970   60.5700 C.3   246  PHE246      0.1736
    116  C        165.3750  109.8980   62.0300 C.2   246  PHE246      0.2595
    117  O        164.2830  110.1160   62.5940 O.2   246  PHE246     -0.2718
    118  CB       165.7850  109.0580   59.6850 C.3   246  PHE246      0.0547
    119  CG       164.7100  108.0220   59.8690 C.ar  246  PHE246     -0.0202
    120  CD1      163.3730  108.3620   59.7650 C.ar  246  PHE246     -0.0042
    121  CD2      165.0400  106.7020   60.1260 C.ar  246  PHE246     -0.0042
    122  CE1      162.3840  107.4080   59.9310 C.ar  246  PHE246     -0.0003
    123  CE2      164.0580  105.7450   60.2890 C.ar  246  PHE246     -0.0003
    124  CZ       162.7290  106.0980   60.1920 C.ar  246  PHE246     -0.0000
    125  N        166.4150  109.3380   62.6430 N.am  247  ALA247     -0.1980
    126  CA       166.3530  108.9270   64.0430 C.3   247  ALA247      0.1597
    127  C        166.0090  110.1020   64.9630 C.2   247  ALA247      0.2287
    128  O        165.2550  109.9480   65.9300 O.2   247  ALA247     -0.2864
    129  CB       167.6690  108.2950   64.4610 C.3   247  ALA247      0.0319
    130  N        162.4170  110.8330   64.7820 N.3   250  VAL250     -0.1231
    131  CA       161.7280  109.7900   65.5340 C.3   250  VAL250      0.1692
    132  C        161.7340  110.0480   67.0470 C.2   250  VAL250      0.2591
    133  O        160.6740  110.0390   67.6830 O.2   250  VAL250     -0.2718
    134  CB       162.3320  108.4060   65.2590 C.3   250  VAL250      0.0266
    135  CG1      161.7800  107.3820   66.2410 C.3   250  VAL250      0.0020
    136  CG2      162.0370  107.9880   63.8320 C.3   250  VAL250      0.0020
    137  N        162.9100  110.2970   67.6240 N.am  251  VAL251     -0.1980
    138  CA       162.9920  110.5070   69.0730 C.3   251  VAL251      0.1595
    139  C        162.3050  111.8030   69.5080 C.2   251  VAL251      0.2287
    140  O        161.7800  111.8880   70.6250 O.2   251  VAL251     -0.2864
    141  CB       164.4570  110.5140   69.5830 C.3   251  VAL251      0.0276
    142  CG1      165.0950  109.1480   69.3850 C.3   251  VAL251      0.0022
    143  CG2      165.2750  111.5980   68.9030 C.3   251  VAL251      0.0022
    144  N        158.5580  110.6690   69.5810 N.3   254  THR254     -0.1218
    145  CA       158.2620  109.8390   70.7440 C.3   254  THR254      0.1862
    146  C        158.3610  110.6350   72.0390 C.2   254  THR254      0.2287
    147  O        157.6280  110.3710   72.9870 O.2   254  THR254     -0.2866
    148  CB       159.1990  108.6190   70.8380 C.3   254  THR254      0.1770
    149  OG1      160.5590  109.0580   70.9770 O.3   254  THR254     -0.2211
    150  CG2      159.0630  107.7540   69.5950 C.3   254  THR254      0.0375
    151  N        159.3790  104.5410   76.3680 N.3   261  SER261     -0.1217
    152  CA       160.7790  104.8860   76.5880 C.3   261  SER261      0.1889
    153  C        160.9530  106.3530   76.9830 C.2   261  SER261      0.2288
    154  O        162.0760  106.8360   77.1060 O.2   261  SER261     -0.2866
    155  CB       161.6110  104.5730   75.3410 C.3   261  SER261      0.2089
    156  OG       161.2080  105.3660   74.2440 O.3   261  SER261     -0.2183
@<TRIPOS>BOND
     1   102   103    1
     2   102    99    1
     3    98    99    1
     4    99   100    1
     5   108   105    1
     6   100   101    2
     7   105   104    1
     8   105   106    1
     9   106   109   am
    10   106   107    2
    11   109   110    1
    12   110   113    1
    13   110   111    1
    14   118   119    1
    15   118   115    1
    16   120   119   ar
    17   120   122   ar
    18   119   121   ar
    19   122   124   ar
    20   121   123   ar
    21   124   123   ar
    22   111   112    2
    23   114   115    1
    24   115   116    1
    25   116   117    2
    26   116   125   am
    27   125   126    1
    28    31    30    1
    29   136   134    1
    30    96    95    2
    31    25    24    1
    32   126   129    1
    33   126   127    1
    34    30    27    1
    35   130   131    1
    36   127   128    2
    37    94    95    1
    38    94    97    1
    39    94    93    1
    40    24    21    1
    41   134   131    1
    42   134   135    1
    43   131   132    1
    44    26    27    1
    45    26    22   am
    46    27    28    1
    47    20    21    1
    48    21    22    1
    49    22    23    2
    50    81    79   ar
    51    81    82   ar
    52    28    29    2
    53    79    78   ar
    54   132   137   am
    55   132   133    2
    56    82    80   ar
    57   137   138    1
    58    76    75    2
    59    78    80   ar
    60    78    77    1
    61    45    44    1
    62    86    85    2
    63    44    41    1
    64    75    74    1
    65    75    83   am
    66   143   141    1
    67    74    77    1
    68    74    73    1
    69   138   139    1
    70   138   141    1
    71   142   141    1
    72    85    84    1
    73   139   140    2
    74   144   145    1
    75   150   148    1
    76    32    33    1
    77    84    83    1
    78    84    87    1
    79    40    41    1
    80    40    34   am
    81    41    42    1
    82    42    43    2
    83    36    33    1
    84    36    37    1
    85   145   148    1
    86   145   146    1
    87    33    34    1
    88   148   149    1
    89    34    35    2
    90    90    88   ar
    91    90    92   ar
    92    87    88    1
    93    88    89   ar
    94    92    91   ar
    95    39    37    1
    96    89    91   ar
    97    37    38    1
    98   146   147    2
    99    68    67    2
   100    67    66    1
   101    65    66    1
   102    66    69    1
   103    46    47    1
   104   156   155    1
   105    50    47    1
   106    50    51    1
   107    53    51   ar
   108    53    55   ar
   109    71    69    1
   110    69    70    1
   111    70    72    1
   112    47    48    1
   113    51    52   ar
   114    55    56   ar
   115    48    49    2
   116   155   152    1
   117    11     9    1
   118    10     9    1
   119    52    54   ar
   120    56    54   ar
   121   151   152    1
   122   152   153    1
   123     9     8    2
   124   153   154    2
   125     8     7    1
   126    19    17    1
   127     7     6    1
   128    18    17    1
   129    64    62    1
   130    17    16    1
   131    62    61    1
   132     6     5    1
   133    63    61    1
   134    61    58    1
   135     5     2    1
   136    16    13    1
   137     4     3    2
   138    13    12    1
   139    13    14    1
   140    58    57    1
   141    58    59    1
   142     3     2    1
   143     3    12   am
   144     2     1    1
   145    59    60    2
   146    15    14    2
