@<TRIPOS>MOLECULE
tmp/4yuuV03.pdb
 201 200 0 0 0
SMALL
GASTEIGER

@<TRIPOS>ATOM
      1  N        187.9350  129.2610   55.6200 N.3     4  TRP4       -0.1227
      2  CA       187.8370  128.8220   57.0100 C.3     4  TRP4        0.1737
      3  C        186.8790  127.6410   57.1810 C.2     4  TRP4        0.2595
      4  O        187.2240  126.6610   57.8650 O.2     4  TRP4       -0.2718
      5  CB       187.4180  129.9640   57.9360 C.3     4  TRP4        0.0564
      6  CG       186.0950  130.5920   57.6370 C.ar    4  TRP4        0.0003
      7  CD1      185.8640  131.6530   56.8150 C.ar    4  TRP4        0.0946
      8  CD2      184.8250  130.2230   58.1850 C.ar    4  TRP4        0.0152
      9  NE1      184.5260  131.9590   56.8000 N.ar    4  TRP4       -0.2442
     10  CE2      183.8670  131.0970   57.6320 C.ar    4  TRP4        0.0810
     11  CE3      184.4030  129.2330   59.0790 C.ar    4  TRP4        0.0012
     12  CZ2      182.5080  131.0110   57.9480 C.ar    4  TRP4        0.0191
     13  CZ3      183.0480  129.1490   59.3880 C.ar    4  TRP4        0.0001
     14  CH2      182.1210  130.0350   58.8240 C.ar    4  TRP4        0.0015
     15  N        185.7080  127.7030   56.5410 N.am    5  TYR5       -0.1962
     16  CA       184.8080  126.5490   56.5610 C.3     5  TYR5        0.1771
     17  C        185.6140  125.2620   56.2150 C.2     5  TYR5        0.2619
     18  O        186.0930  124.3920   57.0860 O.2     5  TYR5       -0.2715
     19  CB       183.5850  126.7810   55.6190 C.3     5  TYR5        0.0574
     20  CG       183.7700  127.6030   54.3120 C.ar    5  TYR5       -0.0198
     21  CD1      183.6510  126.9950   53.0580 C.ar    5  TYR5       -0.0009
     22  CD2      183.9920  128.9900   54.3280 C.ar    5  TYR5       -0.0009
     23  CE1      183.7980  127.7200   51.8710 C.ar    5  TYR5        0.0417
     24  CE2      184.1340  129.7270   53.1230 C.ar    5  TYR5        0.0417
     25  CZ       184.0360  129.0760   51.9200 C.ar    5  TYR5        0.1957
     26  OH       184.1800  129.7940   50.7680 O.3     5  TYR5       -0.2866
     27  N        185.9380  125.2090   54.9510 N.am    6  ARG6       -0.1963
     28  CA       186.6160  124.0390   54.4550 C.3     6  ARG6        0.1729
     29  C        187.8400  123.5790   55.2490 C.2     6  ARG6        0.2616
     30  O        188.4140  122.5430   54.8720 O.2     6  ARG6       -0.2715
     31  CB       187.0240  124.2740   53.0140 C.3     6  ARG6        0.0348
     32  CG       185.8500  124.5720   52.2260 C.3     6  ARG6        0.0492
     33  CD       186.1820  124.5760   50.8260 C.3     6  ARG6        0.2205
     34  NE       185.1150  125.1950   50.0750 N.pl3   6  ARG6       -0.0865
     35  CZ       185.2910  125.6520   48.8520 C.cat   6  ARG6        0.5346
     36  NH1      186.4880  125.5380   48.3000 N.pl3   6  ARG6        0.1354
     37  NH2      184.2920  126.2190   48.1930 N.pl3   6  ARG6        0.1354
     38  N        188.2280  124.2890   56.3270 N.am    7  VAL7       -0.1963
     39  CA       189.3850  123.7940   57.0660 C.3     7  VAL7        0.1727
     40  C        189.2600  122.3100   57.2630 C.2     7  VAL7        0.2616
     41  O        190.2460  121.5390   56.9950 O.2     7  VAL7       -0.2715
     42  CB       189.6370  124.4780   58.4760 C.3     7  VAL7        0.0290
     43  CG1      190.1200  125.9490   58.2930 C.3     7  VAL7        0.0023
     44  CG2      188.4640  124.3350   59.3950 C.3     7  VAL7        0.0023
     45  N        188.0770  121.8540   57.6800 N.am    8  HIS8       -0.1959
     46  CA       188.2310  120.4450   58.1740 C.3     8  HIS8        0.1787
     47  C        188.5210  119.3920   57.0840 C.2     8  HIS8        0.2620
     48  O        189.0620  118.2720   57.3910 O.2     8  HIS8       -0.2715
     49  CB       187.0600  120.0100   59.0330 C.3     8  HIS8        0.0785
     50  CG       187.1290  120.6060   60.3910 C.ar    8  HIS8        0.0821
     51  ND1      186.0210  120.9790   61.1170 N.ar    8  HIS8       -0.2267
     52  CD2      188.2040  120.9980   61.1120 C.ar    8  HIS8        0.1154
     53  CE1      186.4130  121.5140   62.2620 C.ar    8  HIS8        0.1986
     54  NE2      187.7290  121.5330   62.2820 N.ar    8  HIS8       -0.2212
     55  N        188.3110  119.7740   55.8200 N.am    9  THR9       -0.1951
     56  CA       188.6930  118.8600   54.7470 C.3     9  THR9        0.1897
     57  C        190.1110  118.3210   54.8190 C.2     9  THR9        0.2313
     58  O        190.3910  117.3260   54.1600 O.2     9  THR9       -0.2863
     59  CB       188.5650  119.4710   53.3690 C.3     9  THR9        0.1794
     60  OG1      188.7530  120.8810   53.4500 O.3     9  THR9       -0.2208
     61  CG2      187.2010  119.1570   52.7510 C.3     9  THR9        0.0378
     62  N        190.1240  114.3400   55.0930 N.3    12  LEU12      -0.1245
     63  CA       189.4130  113.4560   54.1590 C.3    12  LEU12       0.1561
     64  C        190.2020  112.2530   53.6160 C.2    12  LEU12       0.2260
     65  O        189.6660  111.1490   53.5240 O.2    12  LEU12      -0.2867
     66  CB       188.8950  114.2870   52.9820 C.3    12  LEU12       0.0270
     67  CG       187.9160  113.6400   51.9990 C.3    12  LEU12       0.0019
     68  CD1      186.8110  114.6200   51.6550 C.3    12  LEU12       0.0001
     69  CD2      188.6330  113.1970   50.7330 C.3    12  LEU12       0.0001
     70  N        187.9820  111.8540   65.2060 N.3    22  HIS22      -0.1241
     71  CA       186.7650  111.2410   65.7260 C.3    22  HIS22       0.1621
     72  C        186.9190  110.8820   67.1970 C.2    22  HIS22       0.2264
     73  O        185.9730  110.9880   67.9810 O.2    22  HIS22      -0.2867
     74  CB       186.4010  109.9950   64.9250 C.3    22  HIS22       0.0745
     75  CG       185.8200  110.2910   63.5820 C.ar   22  HIS22       0.0817
     76  ND1      185.4090  109.3040   62.7160 N.ar   22  HIS22      -0.2268
     77  CD2      185.5770  111.4700   62.9590 C.ar   22  HIS22       0.1154
     78  CE1      184.9400  109.8610   61.6120 C.ar   22  HIS22       0.1986
     79  NE2      185.0380  111.1690   61.7330 N.ar   22  HIS22      -0.2212
     80  N        186.4320  114.0800   69.0990 N.3    25  HIS25      -0.1241
     81  CA       185.0080  114.3840   69.2130 C.3    25  HIS25       0.1621
     82  C        184.3270  113.5180   70.2760 C.2    25  HIS25       0.2264
     83  O        183.5800  114.0170   71.1270 O.2    25  HIS25      -0.2867
     84  CB       184.3120  114.1950   67.8670 C.3    25  HIS25       0.0745
     85  CG       182.8460  114.4770   67.9090 C.ar   25  HIS25       0.0817
     86  ND1      181.9060  113.4940   68.1380 N.ar   25  HIS25      -0.2268
     87  CD2      182.1560  115.6340   67.7690 C.ar   25  HIS25       0.1154
     88  CE1      180.7000  114.0340   68.1370 C.ar   25  HIS25       0.1986
     89  NE2      180.8260  115.3300   67.9090 N.ar   25  HIS25      -0.2212
     90  N        182.6160  110.5410   51.5640 N.3   234  GLU234     -0.1245
     91  CA       181.6050  111.5650   51.7680 C.3   234  GLU234      0.1567
     92  C        180.2050  111.0220   51.4870 C.2   234  GLU234      0.2260
     93  O        179.2130  111.5850   51.9530 O.2   234  GLU234     -0.2867
     94  CB       181.8940  112.7910   50.8980 C.3   234  GLU234      0.0388
     95  CG       181.1310  114.0390   51.3240 C.3   234  GLU234      0.1160
     96  CD       181.8040  115.3240   50.8770 C.2   234  GLU234      0.3649
     97  OE1      181.2770  116.4100   51.2000 O.co2 234  GLU234     -0.2457
     98  OE2      182.8610  115.2520   50.2110 O.co2 234  GLU234     -0.2457
     99  N        179.2690  109.7140   54.6470 N.3   237  LEU237     -0.1245
    100  CA       178.8510  110.8660   55.4490 C.3   237  LEU237      0.1561
    101  C        177.4000  111.2580   55.1600 C.2   237  LEU237      0.2260
    102  O        176.6120  111.4620   56.0840 O.2   237  LEU237     -0.2867
    103  CB       179.7790  112.0590   55.2090 C.3   237  LEU237      0.0270
    104  CG       179.4720  113.2960   56.0590 C.3   237  LEU237      0.0019
    105  CD1      179.4250  112.9360   57.5320 C.3   237  LEU237      0.0001
    106  CD2      180.4900  114.3960   55.8060 C.3   237  LEU237      0.0001
    107  N        174.3250  110.8620   57.7930 N.3   241  ILE241     -0.1245
    108  CA       173.5930  112.0590   58.1900 C.3   241  ILE241      0.1561
    109  C        172.0920  111.8590   57.9940 C.2   241  ILE241      0.2260
    110  O        171.2840  112.2160   58.8660 O.2   241  ILE241     -0.2867
    111  CB       174.0610  113.2940   57.3990 C.3   241  ILE241      0.0252
    112  CG1      175.4500  113.7270   57.8680 C.3   241  ILE241      0.0019
    113  CG2      173.0850  114.4430   57.5700 C.3   241  ILE241      0.0019
    114  CD1      176.0010  114.9220   57.1270 C.3   241  ILE241      0.0001
    115  N        170.7320  109.6420   60.6390 N.3   244  VAL244     -0.1245
    116  CA       170.7860  110.3530   61.9060 C.3   244  VAL244      0.1561
    117  C        169.6370  111.3470   62.0720 C.2   244  VAL244      0.2260
    118  O        169.0380  111.4180   63.1470 O.2   244  VAL244     -0.2867
    119  CB       172.1380  111.0820   62.0680 C.3   244  VAL244      0.0252
    120  CG1      172.0330  112.1940   63.0800 C.3   244  VAL244      0.0019
    121  CG2      173.2250  110.0950   62.4770 C.3   244  VAL244      0.0019
    122  N        167.5950  120.2270   65.2110 N.3   457  PHE457     -0.1241
    123  CA       168.8120  119.5430   64.7840 C.3   457  PHE457      0.1605
    124  C        168.5170  118.6130   63.6120 C.2   457  PHE457      0.2264
    125  O        169.3040  118.5140   62.6800 O.2   457  PHE457     -0.2867
    126  CB       169.4360  118.7600   65.9460 C.3   457  PHE457      0.0534
    127  CG       170.1980  119.6170   66.9190 C.ar  457  PHE457     -0.0203
    128  CD1      170.7510  120.8190   66.5150 C.ar  457  PHE457     -0.0042
    129  CD2      170.3570  119.2210   68.2390 C.ar  457  PHE457     -0.0042
    130  CE1      171.4480  121.6100   67.4060 C.ar  457  PHE457     -0.0003
    131  CE2      171.0510  120.0100   69.1360 C.ar  457  PHE457     -0.0003
    132  CZ       171.5980  121.2040   68.7190 C.ar  457  PHE457     -0.0000
    133  N        168.1060  120.8380   60.3760 N.3   460  LEU460     -0.1231
    134  CA       169.4310  121.2760   59.9450 C.3   460  LEU460      0.1693
    135  C        170.2230  120.1210   59.3290 C.2   460  LEU460      0.2592
    136  O        170.9410  120.2970   58.3340 O.2   460  LEU460     -0.2718
    137  CB       170.2010  121.8810   61.1190 C.3   460  LEU460      0.0284
    138  CG       169.6520  123.2060   61.6540 C.3   460  LEU460      0.0019
    139  CD1      170.3720  123.6200   62.9330 C.3   460  LEU460      0.0001
    140  CD2      169.7670  124.2990   60.6010 C.3   460  LEU460      0.0001
    141  N        170.0740  118.9310   59.9050 N.am  461  PHE461     -0.1976
    142  CA       170.7800  117.7680   59.3810 C.3   461  PHE461      0.1639
    143  C        170.1750  117.2880   58.0630 C.2   461  PHE461      0.2290
    144  O        170.8490  116.6240   57.2750 O.2   461  PHE461     -0.2864
    145  CB       170.8100  116.6400   60.4150 C.3   461  PHE461      0.0560
    146  CG       172.0280  116.6720   61.2980 C.ar  461  PHE461     -0.0200
    147  CD1      172.1850  117.6700   62.2460 C.ar  461  PHE461     -0.0042
    148  CD2      173.0190  115.7110   61.1750 C.ar  461  PHE461     -0.0042
    149  CE1      173.3040  117.7110   63.0540 C.ar  461  PHE461     -0.0003
    150  CE2      174.1430  115.7450   61.9850 C.ar  461  PHE461     -0.0003
    151  CZ       174.2850  116.7470   62.9250 C.ar  461  PHE461     -0.0000
    152  N        169.3690  119.5250   55.8380 N.3   463  PHE463     -0.1227
    153  CA       170.2500  120.3150   54.9570 C.3   463  PHE463      0.1736
    154  C        171.6130  119.6080   54.8120 C.2   463  PHE463      0.2596
    155  O        172.0350  119.3160   53.6850 O.2   463  PHE463     -0.2718
    156  CB       170.4530  121.7510   55.4520 C.3   463  PHE463      0.0547
    157  CG       171.2860  122.6250   54.5060 C.ar  463  PHE463     -0.0202
    158  CD1      171.7290  122.1600   53.2750 C.ar  463  PHE463     -0.0042
    159  CD2      171.6170  123.9150   54.8580 C.ar  463  PHE463     -0.0042
    160  CE1      172.4880  122.9420   52.4390 C.ar  463  PHE463     -0.0003
    161  CE2      172.3800  124.7170   54.0060 C.ar  463  PHE463     -0.0003
    162  CZ       172.8140  124.2280   52.7970 C.ar  463  PHE463     -0.0000
    163  N        172.2920  119.3340   55.9260 N.am  464  GLY464     -0.1957
    164  CA       173.6100  118.7110   55.8730 C.3   464  GLY464      0.1869
    165  C        173.6830  117.5230   54.9300 C.2   464  GLY464      0.2309
    166  O        174.6480  117.3580   54.1580 O.2   464  GLY464     -0.2863
    167  N        173.6130  118.7610   51.3110 N.3   467  TRP467     -0.1227
    168  CA       174.8880  119.3620   50.9290 C.3   467  TRP467      0.1737
    169  C        175.9740  118.3190   50.6790 C.2   467  TRP467      0.2595
    170  O        176.6670  118.3640   49.6550 O.2   467  TRP467     -0.2718
    171  CB       175.3560  120.3520   51.9970 C.3   467  TRP467      0.0564
    172  CG       176.6930  120.9570   51.6940 C.ar  467  TRP467      0.0003
    173  CD1      177.8830  120.6540   52.2880 C.ar  467  TRP467      0.0946
    174  CD2      176.9800  121.9610   50.7110 C.ar  467  TRP467      0.0152
    175  NE1      178.8920  121.4110   51.7420 N.ar  467  TRP467     -0.2442
    176  CE2      178.3630  122.2200   50.7700 C.ar  467  TRP467      0.0810
    177  CE3      176.2010  122.6660   49.7900 C.ar  467  TRP467      0.0012
    178  CZ2      178.9850  123.1550   49.9440 C.ar  467  TRP467      0.0191
    179  CZ3      176.8200  123.5950   48.9700 C.ar  467  TRP467      0.0001
    180  CH2      178.1980  123.8290   49.0520 C.ar  467  TRP467      0.0015
    181  N        176.1270  117.3740   51.6020 N.am  468  HIS468     -0.1975
    182  CA       177.1830  116.3780   51.4350 C.3   468  HIS468      0.1656
    183  C        176.8660  115.3800   50.3330 C.2   468  HIS468      0.2291
    184  O        177.7760  114.8930   49.6510 O.2   468  HIS468     -0.2864
    185  CB       177.4390  115.6470   52.7410 C.3   468  HIS468      0.0771
    186  CG       178.1690  116.4750   53.7410 C.ar  468  HIS468      0.0820
    187  ND1      179.4770  116.8650   53.5680 N.ar  468  HIS468     -0.2267
    188  CD2      177.7640  117.0110   54.9160 C.ar  468  HIS468      0.1154
    189  CE1      179.8540  117.5980   54.6020 C.ar  468  HIS468      0.1986
    190  NE2      178.8310  117.6950   55.4320 N.ar  468  HIS468     -0.2212
    191  N        177.8800  117.2500   47.2400 N.3   471  ARG471     -0.1245
    192  CA       179.3290  117.2070   47.0710 C.3   471  ARG471      0.1563
    193  C        179.8090  115.8320   46.6230 C.2   471  ARG471      0.2260
    194  O        180.7930  115.7200   45.8970 O.2   471  ARG471     -0.2867
    195  CB       180.0360  117.5990   48.3660 C.3   471  ARG471      0.0307
    196  CG       180.2590  119.0860   48.5180 C.3   471  ARG471      0.0489
    197  CD       181.0310  119.3760   49.7840 C.3   471  ARG471      0.2205
    198  NE       182.1800  118.4880   49.9230 N.pl3 471  ARG471     -0.0865
    199  CZ       183.3810  118.7410   49.4170 C.cat 471  ARG471      0.5346
    200  NH1      184.3690  117.8750   49.5880 N.pl3 471  ARG471      0.1354
    201  NH2      183.5930  119.8620   48.7400 N.pl3 471  ARG471      0.1354
@<TRIPOS>BOND
     1   194   193    2
     2   193   192    1
     3   192   191    1
     4   192   195    1
     5    37    35    1
     6    36    35    1
     7   195   196    1
     8   196   197    1
     9   201   199    1
    10    35    34    2
    11   179   180   ar
    12   179   177   ar
    13   180   178   ar
    14   199   200    1
    15   199   198    2
    16   184   183    2
    17   170   169    2
    18   197   198    1
    19   177   174   ar
    20   178   176   ar
    21    34    33    1
    22    98    96   ar
    23   183   182    1
    24   169   168    1
    25   169   181   am
    26   174   176   ar
    27   174   172   ar
    28    69    67    1
    29    26    25    1
    30   176   175   ar
    31    33    32    1
    32    96    97   ar
    33    96    95    1
    34    94    95    1
    35    94    91    1
    36   168   167    1
    37   168   171    1
    38   182   181    1
    39   182   185    1
    40    92    91    1
    41    92    93    2
    42    90    91    1
    43    68    67    1
    44   172   171    1
    45   172   173   ar
    46   175   173   ar
    47    23    25   ar
    48    23    21   ar
    49    25    24   ar
    50    67    66    1
    51    32    31    1
    52   160   162   ar
    53   160   158   ar
    54   185   186    1
    55    61    59    1
    56   162   161   ar
    57    66    63    1
    58    31    28    1
    59    21    20   ar
    60    24    22   ar
    61   158   157   ar
    62    59    60    1
    63    59    56    1
    64    65    64    2
    65   187   186   ar
    66   187   189   ar
    67    64    63    1
    68   155   154    2
    69   186   188   ar
    70   161   159   ar
    71   166   165    2
    72    63    62    1
    73    58    57    2
    74    20    22   ar
    75    20    19    1
    76    28    27    1
    77    28    29    1
    78   157   159   ar
    79   157   156    1
    80   189   190   ar
    81    99   100    1
    82    56    57    1
    83    56    55    1
    84   154   153    1
    85   154   163   am
    86    30    29    2
    87   188   190   ar
    88   165   164    1
    89    27    17   am
    90   153   156    1
    91   153   152    1
    92   101   100    1
    93   101   102    2
    94   103   100    1
    95   103   104    1
    96    29    38   am
    97    19    16    1
    98     1     2    1
    99   106   104    1
   100    55    47   am
   101   164   163    1
   102   104   105    1
   103    17    16    1
   104    17    18    2
   105    38    39    1
   106    15    16    1
   107    15     3   am
   108     9     7   ar
   109     9    10   ar
   110     7     6   ar
   111    41    40    2
   112     2     3    1
   113     2     5    1
   114    39    40    1
   115    39    42    1
   116    47    48    2
   117    47    46    1
   118   114   112    1
   119     3     4    2
   120    40    45   am
   121   144   143    2
   122   111   113    1
   123   111   112    1
   124   111   108    1
   125    10    12   ar
   126    10     8   ar
   127     6     5    1
   128     6     8   ar
   129    45    46    1
   130   107   108    1
   131    12    14   ar
   132   109   108    1
   133   109   110    2
   134   143   142    1
   135    46    49    1
   136     8    11   ar
   137    43    42    1
   138   136   135    2
   139    42    44    1
   140    14    13   ar
   141    49    50    1
   142    11    13   ar
   143   135   141   am
   144   135   134    1
   145   142   141    1
   146   142   145    1
   147   134   133    1
   148   134   137    1
   149    50    52   ar
   150    50    51   ar
   151   145   146    1
   152   140   138    1
   153   115   116    1
   154    52    54   ar
   155    51    53   ar
   156   137   138    1
   157   148   146   ar
   158   148   150   ar
   159   146   147   ar
   160    78    79   ar
   161    78    76   ar
   162   138   139    1
   163    79    77   ar
   164   116   119    1
   165   116   117    1
   166   150   151   ar
   167   119   121    1
   168   119   120    1
   169   117   118    2
   170   147   149   ar
   171    53    54   ar
   172   125   124    2
   173    76    75   ar
   174   151   149   ar
   175    77    75   ar
   176    75    74    1
   177   124   123    1
   178   123   122    1
   179   123   126    1
   180    74    71    1
   181    70    71    1
   182    71    72    1
   183   126   127    1
   184   128   127   ar
   185   128   130   ar
   186   127   129   ar
   187    72    73    2
   188   130   132   ar
   189    87    89   ar
   190    87    85   ar
   191    84    85    1
   192    84    81    1
   193    89    88   ar
   194    85    86   ar
   195    88    86   ar
   196   129   131   ar
   197   132   131   ar
   198    80    81    1
   199    81    82    1
   200    82    83    2
