@<TRIPOS>MOLECULE
tmp/4yuuV27.pdb
 190 184 0 0 0
SMALL
GASTEIGER

@<TRIPOS>ATOM
      1  N        181.5480  115.6730   78.1810 N.3    32  TRP32      -0.1241
      2  CA       180.3630  116.4820   78.4290 C.3    32  TRP32       0.1605
      3  C        179.3470  115.7130   79.2590 C.2    32  TRP32       0.2264
      4  O        178.7290  116.2780   80.1510 O.2    32  TRP32      -0.2867
      5  CB       179.7010  116.9420   77.1290 C.3    32  TRP32       0.0550
      6  CG       178.4120  117.6610   77.4030 C.ar   32  TRP32       0.0003
      7  CD1      178.2570  118.9900   77.6610 C.ar   32  TRP32       0.0946
      8  CD2      177.1010  117.0810   77.4880 C.ar   32  TRP32       0.0152
      9  NE1      176.9320  119.2760   77.8930 N.ar   32  TRP32      -0.2442
     10  CE2      176.2020  118.1220   77.7900 C.ar   32  TRP32       0.0810
     11  CE3      176.6020  115.7850   77.3340 C.ar   32  TRP32       0.0012
     12  CZ2      174.8320  117.9070   77.9390 C.ar   32  TRP32       0.0191
     13  CZ3      175.2420  115.5740   77.4820 C.ar   32  TRP32       0.0001
     14  CH2      174.3740  116.6280   77.7880 C.ar   32  TRP32       0.0015
     15  N        168.5410  117.0230   82.8170 N.3    60  PHE60      -0.1227
     16  CA       168.4810  116.6320   81.4120 C.3    60  PHE60       0.1736
     17  C        169.1430  115.2810   81.1320 C.2    60  PHE60       0.2595
     18  O        168.6890  114.5400   80.2640 O.2    60  PHE60      -0.2718
     19  CB       169.1180  117.7140   80.5380 C.3    60  PHE60       0.0547
     20  CG       169.0810  117.4050   79.0700 C.ar   60  PHE60      -0.0202
     21  CD1      167.8770  117.1880   78.4260 C.ar   60  PHE60      -0.0042
     22  CD2      170.2510  117.3340   78.3340 C.ar   60  PHE60      -0.0042
     23  CE1      167.8390  116.8990   77.0810 C.ar   60  PHE60      -0.0003
     24  CE2      170.2180  117.0490   76.9870 C.ar   60  PHE60      -0.0003
     25  CZ       169.0120  116.8320   76.3600 C.ar   60  PHE60      -0.0000
     26  N        170.2060  114.9510   81.8590 N.am   61  VAL61      -0.1980
     27  CA       170.8450  113.6500   81.6790 C.3    61  VAL61       0.1595
     28  C        170.4500  112.6580   82.7750 C.2    61  VAL61       0.2287
     29  O        170.6030  111.4470   82.6050 O.2    61  VAL61      -0.2864
     30  CB       172.3930  113.7630   81.6360 C.3    61  VAL61       0.0276
     31  CG1      172.8370  114.5630   80.4250 C.3    61  VAL61       0.0022
     32  CG2      172.9350  114.3690   82.9170 C.3    61  VAL61       0.0022
     33  N        167.9470  109.9230   81.7810 N.3    64  PHE64      -0.1241
     34  CA       168.5200  108.9330   80.8790 C.3    64  PHE64       0.1605
     35  C        169.3330  107.8970   81.6440 C.2    64  PHE64       0.2264
     36  O        169.3860  106.7340   81.2510 O.2    64  PHE64      -0.2867
     37  CB       169.3710  109.6160   79.8090 C.3    64  PHE64       0.0534
     38  CG       168.5620  110.3920   78.8140 C.ar   64  PHE64      -0.0203
     39  CD1      168.0640  109.7780   77.6760 C.ar   64  PHE64      -0.0042
     40  CD2      168.2760  111.7300   79.0260 C.ar   64  PHE64      -0.0042
     41  CE1      167.3090  110.4870   76.7620 C.ar   64  PHE64      -0.0003
     42  CE2      167.5180  112.4440   78.1140 C.ar   64  PHE64      -0.0003
     43  CZ       167.0370  111.8220   76.9810 C.ar   64  PHE64      -0.0000
     44  N        166.5500  105.8430   83.2550 N.3    67  ARG67      -0.1245
     45  CA       165.7670  105.0380   82.3240 C.3    67  ARG67       0.1563
     46  C        166.3070  103.6210   82.1410 C.2    67  ARG67       0.2260
     47  O        165.5540  102.6990   81.8260 O.2    67  ARG67      -0.2867
     48  CB       165.6940  105.7360   80.9640 C.3    67  ARG67       0.0307
     49  CG       164.7900  105.0410   79.9590 C.3    67  ARG67       0.0489
     50  CD       164.6090  105.8660   78.6990 C.3    67  ARG67       0.2205
     51  NE       165.8150  105.9130   77.8770 N.pl3  67  ARG67      -0.0865
     52  CZ       165.8740  106.4980   76.6850 C.cat  67  ARG67       0.5346
     53  NH1      164.7970  107.0830   76.1850 N.pl3  67  ARG67       0.1354
     54  NH2      167.0050  106.4980   75.9940 N.pl3  67  ARG67       0.1354
     55  N        179.2660   94.5180   64.7300 N.3   144  LEU144     -0.1231
     56  CA       179.4450   95.0390   66.0840 C.3   144  LEU144      0.1693
     57  C        178.1480   95.6370   66.6310 C.2   144  LEU144      0.2592
     58  O        177.6780   95.2600   67.7080 O.2   144  LEU144     -0.2718
     59  CB       180.5480   96.0970   66.1080 C.3   144  LEU144      0.0284
     60  CG       181.9440   95.6650   65.6710 C.3   144  LEU144      0.0019
     61  CD1      182.8120   96.8910   65.4610 C.3   144  LEU144      0.0001
     62  CD2      182.5670   94.7290   66.6950 C.3   144  LEU144      0.0001
     63  N        177.5780   96.5680   65.8720 N.am  145  SER145     -0.1952
     64  CA       176.3680   97.2740   66.2790 C.3   145  SER145      0.1924
     65  C        175.1990   96.3240   66.5120 C.2   145  SER145      0.2314
     66  O        174.4750   96.4520   67.4960 O.2   145  SER145     -0.2863
     67  CB       175.9850   98.3180   65.2260 C.3   145  SER145      0.2116
     68  OG       175.5600   97.7610   64.0290 O.3   145  SER145     -0.2180
     69  N        175.3210   93.0500   67.0780 N.3   147  LEU147     -0.1231
     70  CA       175.6270   92.1670   68.1960 C.3   147  LEU147      0.1693
     71  C        175.3420   92.8830   69.5150 C.2   147  LEU147      0.2591
     72  O        174.7420   92.3120   70.4300 O.2   147  LEU147     -0.2718
     73  CB       177.0840   91.7030   68.1280 C.3   147  LEU147      0.0284
     74  CG       177.4470   90.3580   68.7570 C.3   147  LEU147      0.0019
     75  CD1      178.7660   89.8570   68.1910 C.3   147  LEU147      0.0001
     76  CD2      177.5300   90.4570   70.2730 C.3   147  LEU147      0.0001
     77  N        175.7640   94.1410   69.6010 N.am  148  LEU148     -0.1980
     78  CA       175.5240   94.9500   70.7900 C.3   148  LEU148      0.1596
     79  C        174.0320   95.2000   70.9960 C.2   148  LEU148      0.2287
     80  O        173.5560   95.2690   72.1300 O.2   148  LEU148     -0.2864
     81  CB       176.2760   96.2770   70.6870 C.3   148  LEU148      0.0297
     82  CG       176.2960   97.1600   71.9340 C.3   148  LEU148      0.0022
     83  CD1      176.8470   96.3900   73.1240 C.3   148  LEU148      0.0001
     84  CD2      177.1190   98.4120   71.6820 C.3   148  LEU148      0.0001
     85  N        170.7320  109.6420   60.6390 N.3   244  VAL244     -0.1231
     86  CA       170.7860  110.3530   61.9060 C.3   244  VAL244      0.1692
     87  C        169.6370  111.3470   62.0720 C.2   244  VAL244      0.2592
     88  O        169.0380  111.4180   63.1470 O.2   244  VAL244     -0.2718
     89  CB       172.1380  111.0820   62.0680 C.3   244  VAL244      0.0266
     90  CG1      172.0330  112.1940   63.0800 C.3   244  VAL244      0.0020
     91  CG2      173.2250  110.0950   62.4770 C.3   244  VAL244      0.0020
     92  N        169.2980  112.1010   61.0260 N.am  245  PHE245     -0.1976
     93  CA       168.1850  113.0420   61.1830 C.3   245  PHE245      0.1639
     94  C        166.8440  112.3000   61.1590 C.2   245  PHE245      0.2290
     95  O        165.8630  112.7600   61.7660 O.2   245  PHE245     -0.2864
     96  CB       168.2360  114.1750   60.1340 C.3   245  PHE245      0.0560
     97  CG       167.6330  113.8410   58.7850 C.ar  245  PHE245     -0.0200
     98  CD1      166.2580  113.8440   58.5910 C.ar  245  PHE245     -0.0042
     99  CD2      168.4490  113.6250   57.6870 C.ar  245  PHE245     -0.0042
    100  CE1      165.7130  113.5630   57.3470 C.ar  245  PHE245     -0.0003
    101  CE2      167.9070  113.3540   56.4390 C.ar  245  PHE245     -0.0003
    102  CZ       166.5410  113.3220   56.2720 C.ar  245  PHE245     -0.0000
    103  N        166.4150  109.3380   62.6430 N.3   247  ALA247     -0.1231
    104  CA       166.3530  108.9270   64.0430 C.3   247  ALA247      0.1694
    105  C        166.0090  110.1020   64.9630 C.2   247  ALA247      0.2592
    106  O        165.2550  109.9480   65.9300 O.2   247  ALA247     -0.2718
    107  CB       167.6690  108.2950   64.4610 C.3   247  ALA247      0.0304
    108  N        166.5580  111.2730   64.6500 N.am  248  SER248     -0.1952
    109  CA       166.2850  112.4770   65.4280 C.3   248  SER248      0.1924
    110  C        164.8060  112.8590   65.3860 C.2   248  SER248      0.2314
    111  O        164.2030  113.1620   66.4230 O.2   248  SER248     -0.2863
    112  CB       167.1390  113.6390   64.9270 C.3   248  SER248      0.2116
    113  OG       167.0470  114.7650   65.7760 O.3   248  SER248     -0.2180
    114  N        162.9100  110.2970   67.6240 N.3   251  VAL251     -0.1245
    115  CA       162.9920  110.5070   69.0730 C.3   251  VAL251      0.1561
    116  C        162.3050  111.8030   69.5080 C.2   251  VAL251      0.2260
    117  O        161.7800  111.8880   70.6250 O.2   251  VAL251     -0.2867
    118  CB       164.4570  110.5140   69.5830 C.3   251  VAL251      0.0252
    119  CG1      165.0950  109.1480   69.3850 C.3   251  VAL251      0.0019
    120  CG2      165.2750  111.5980   68.9030 C.3   251  VAL251      0.0019
    121  N        158.5580  110.6690   69.5810 N.3   254  THR254     -0.1203
    122  CA       158.2620  109.8390   70.7440 C.3   254  THR254      0.1994
    123  C        158.3610  110.6350   72.0390 C.2   254  THR254      0.2617
    124  O        157.6280  110.3710   72.9870 O.2   254  THR254     -0.2717
    125  CB       159.1990  108.6190   70.8380 C.3   254  THR254      0.1784
    126  OG1      160.5590  109.0580   70.9770 O.3   254  THR254     -0.2211
    127  CG2      159.0630  107.7540   69.5950 C.3   254  THR254      0.0376
    128  N        159.2610  111.6130   72.0800 N.am  255  MET255     -0.1979
    129  CA       159.3770  112.4530   73.2630 C.3   255  MET255      0.1605
    130  C        158.1490  113.3340   73.4320 C.2   255  MET255      0.2287
    131  O        157.6240  113.4600   74.5330 O.2   255  MET255     -0.2864
    132  CB       160.6370  113.3190   73.2040 C.3   255  MET255      0.0413
    133  CG       160.8320  114.2050   74.4320 C.3   255  MET255      0.0598
    134  SD       160.9200  113.2780   75.9860 S.3   255  MET255     -0.1393
    135  CE       162.5090  112.4570   75.8320 C.3   255  MET255      0.0692
    136  N        159.8430  107.0600   77.1730 N.3   262  THR262     -0.1218
    137  CA       159.8900  108.4250   77.7000 C.3   262  THR262      0.1862
    138  C        158.8770  108.6160   78.8300 C.2   262  THR262      0.2287
    139  O        157.8990  109.3500   78.6710 O.2   262  THR262     -0.2866
    140  CB       159.6170  109.4880   76.6060 C.3   262  THR262      0.1770
    141  OG1      158.2670  109.3730   76.1400 O.3   262  THR262     -0.2211
    142  CG2      160.5720  109.3260   75.4350 C.3   262  THR262      0.0375
    143  N        164.1060  118.9000   74.9630 N.3   450  PHE450     -0.1241
    144  CA       164.5930  117.7950   74.1510 C.3   450  PHE450      0.1605
    145  C        163.9360  117.8190   72.7780 C.2   450  PHE450      0.2264
    146  O        164.6220  117.7710   71.7460 O.2   450  PHE450     -0.2867
    147  CB       164.3290  116.4510   74.8330 C.3   450  PHE450      0.0534
    148  CG       164.9180  115.2780   74.0980 C.ar  450  PHE450     -0.0203
    149  CD1      164.2370  114.6860   73.0440 C.ar  450  PHE450     -0.0042
    150  CD2      166.1590  114.7740   74.4510 C.ar  450  PHE450     -0.0042
    151  CE1      164.7830  113.6180   72.3590 C.ar  450  PHE450     -0.0003
    152  CE2      166.7040  113.6970   73.7730 C.ar  450  PHE450     -0.0003
    153  CZ       166.0160  113.1250   72.7220 C.ar  450  PHE450     -0.0000
    154  N        166.0420  118.5880   69.3140 N.3   454  HIS454     -0.1241
    155  CA       166.2050  117.4810   68.3780 C.3   454  HIS454      0.1621
    156  C        165.4240  117.6520   67.0800 C.2   454  HIS454      0.2264
    157  O        165.8670  117.1950   66.0260 O.2   454  HIS454     -0.2867
    158  CB       165.8260  116.1710   69.0540 C.3   454  HIS454      0.0745
    159  CG       166.8840  115.6650   69.9750 C.ar  454  HIS454      0.0817
    160  ND1      167.2120  116.3050   71.1480 N.ar  454  HIS454     -0.2268
    161  CD2      167.7180  114.6040   69.8730 C.ar  454  HIS454      0.1154
    162  CE1      168.1990  115.6520   71.7400 C.ar  454  HIS454      0.1986
    163  NE2      168.5130  114.6110   70.9900 N.ar  454  HIS454     -0.2212
    164  N        167.5950  120.2270   65.2110 N.3   457  PHE457     -0.1227
    165  CA       168.8120  119.5430   64.7840 C.3   457  PHE457      0.1736
    166  C        168.5170  118.6130   63.6120 C.2   457  PHE457      0.2595
    167  O        169.3040  118.5140   62.6800 O.2   457  PHE457     -0.2718
    168  CB       169.4360  118.7600   65.9460 C.3   457  PHE457      0.0547
    169  CG       170.1980  119.6170   66.9190 C.ar  457  PHE457     -0.0202
    170  CD1      170.7510  120.8190   66.5150 C.ar  457  PHE457     -0.0042
    171  CD2      170.3570  119.2210   68.2390 C.ar  457  PHE457     -0.0042
    172  CE1      171.4480  121.6100   67.4060 C.ar  457  PHE457     -0.0003
    173  CE2      171.0510  120.0100   69.1360 C.ar  457  PHE457     -0.0003
    174  CZ       171.5980  121.2040   68.7190 C.ar  457  PHE457     -0.0000
    175  N        167.3660  117.9490   63.6550 N.am  458  ALA458     -0.1980
    176  CA       166.9570  117.0690   62.5620 C.3   458  ALA458      0.1597
    177  C        166.7890  117.8390   61.2530 C.2   458  ALA458      0.2287
    178  O        167.2900  117.4100   60.2120 O.2   458  ALA458     -0.2864
    179  CB       165.6710  116.3400   62.9140 C.3   458  ALA458      0.0319
    180  N        170.0740  118.9310   59.9050 N.3   461  PHE461     -0.1241
    181  CA       170.7800  117.7680   59.3810 C.3   461  PHE461      0.1605
    182  C        170.1750  117.2880   58.0630 C.2   461  PHE461      0.2264
    183  O        170.8490  116.6240   57.2750 O.2   461  PHE461     -0.2867
    184  CB       170.8100  116.6400   60.4150 C.3   461  PHE461      0.0534
    185  CG       172.0280  116.6720   61.2980 C.ar  461  PHE461     -0.0203
    186  CD1      172.1850  117.6700   62.2460 C.ar  461  PHE461     -0.0042
    187  CD2      173.0190  115.7110   61.1750 C.ar  461  PHE461     -0.0042
    188  CE1      173.3040  117.7110   63.0540 C.ar  461  PHE461     -0.0003
    189  CE2      174.1430  115.7450   61.9850 C.ar  461  PHE461     -0.0003
    190  CZ       174.2850  116.7470   62.9250 C.ar  461  PHE461     -0.0000
@<TRIPOS>BOND
     1   102   101   ar
     2   102   100   ar
     3   101    99   ar
     4   183   182    2
     5   100    98   ar
     6    99    97   ar
     7   182   181    1
     8    98    97   ar
     9    97    96    1
    10   181   180    1
    11   181   184    1
    12    96    93    1
    13   178   177    2
    14   184   185    1
    15    85    86    1
    16    92    93    1
    17    92    87   am
    18    94    93    1
    19    94    95    2
    20   187   185   ar
    21   187   189   ar
    22   177   176    1
    23   185   186   ar
    24    86    89    1
    25    86    87    1
    26   189   190   ar
    27    89    91    1
    28    89    90    1
    29    87    88    2
    30   186   188   ar
    31   176   179    1
    32   176   175    1
    33   103   104    1
    34   167   166    2
    35   190   188   ar
    36   166   175   am
    37   166   165    1
    38    68    67    1
    39   104   107    1
    40   104   105    1
    41   108   105   am
    42   108   109    1
    43    55    56    1
    44   165   164    1
    45   165   168    1
    46   112   109    1
    47   112   113    1
    48   105   106    2
    49    67    64    1
    50   110   109    1
    51   110   111    2
    52    61    60    1
    53    60    59    1
    54    60    62    1
    55    63    64    1
    56    63    57   am
    57   168   169    1
    58   157   156    2
    59    56    59    1
    60    56    57    1
    61    64    65    1
    62    65    66    2
    63   170   169   ar
    64   170   172   ar
    65    57    58    2
    66   169   171   ar
    67    69    70    1
    68   156   155    1
    69   172   174   ar
    70   114   115    1
    71    73    70    1
    72    73    74    1
    73    75    74    1
    74    70    71    1
    75   171   173   ar
    76   155   158    1
    77   155   154    1
    78   174   173   ar
    79    74    76    1
    80   120   118    1
    81   158   159    1
    82   115   116    1
    83   115   118    1
    84   119   118    1
    85   116   117    2
    86    71    77   am
    87    71    72    2
    88   121   122    1
    89   127   125    1
    90    77    78    1
    91   161   159   ar
    92   161   163   ar
    93   159   160   ar
    94    81    78    1
    95    81    82    1
    96   122   125    1
    97   122   123    1
    98    78    79    1
    99   125   126    1
   100   163   162   ar
   101    79    80    2
   102   160   162   ar
   103    84    82    1
   104   146   145    2
   105    82    83    1
   106   123   128   am
   107   123   124    2
   108   128   129    1
   109   151   153   ar
   110   151   149   ar
   111   153   152   ar
   112   145   144    1
   113   149   148   ar
   114   132   129    1
   115   132   133    1
   116   129   130    1
   117   130   131    2
   118   152   150   ar
   119   148   150   ar
   120   148   147    1
   121   144   147    1
   122   144   143    1
   123   133   134    1
   124   142   140    1
   125   135   134    1
   126    54    52    1
   127   141   140    1
   128    53    52    1
   129    25    24   ar
   130    25    23   ar
   131   140   137    1
   132    52    51    2
   133    41    43   ar
   134    41    39   ar
   135    43    42   ar
   136    24    22   ar
   137    23    21   ar
   138     5     6    1
   139     5     2    1
   140   136   137    1
   141    11    13   ar
   142    11     8   ar
   143     6     8   ar
   144     6     7   ar
   145    13    14   ar
   146     8    10   ar
   147     7     9   ar
   148    39    38   ar
   149   137   138    1
   150    14    12   ar
   151    10     9   ar
   152    10    12   ar
   153    51    50    1
   154    42    40   ar
   155     1     2    1
   156    22    20   ar
   157    21    20   ar
   158     2     3    1
   159   139   138    2
   160    50    49    1
   161    38    40   ar
   162    38    37    1
   163    20    19    1
   164     3     4    2
   165    37    34    1
   166    49    48    1
   167    18    17    2
   168    31    30    1
   169    19    16    1
   170    34    35    1
   171    34    33    1
   172    48    45    1
   173    17    16    1
   174    17    26   am
   175    36    35    2
   176    16    15    1
   177    30    27    1
   178    30    32    1
   179    27    26    1
   180    27    28    1
   181    47    46    2
   182    46    45    1
   183    45    44    1
   184    29    28    2
