@<TRIPOS>MOLECULE
tmp/4yuuA15.pdb
 145 144 0 0 0
SMALL
GASTEIGER

@<TRIPOS>ATOM
      1  N        208.8020  103.4230   90.4610 N.3    35  VAL35      -0.1231
      2  CA       207.8630  102.3310   90.6860 C.3    35  VAL35       0.1692
      3  C        207.1660  102.5670   92.0200 C.2    35  VAL35       0.2591
      4  O        206.0020  102.2050   92.1970 O.2    35  VAL35      -0.2718
      5  CB       208.5560  100.9450   90.6780 C.3    35  VAL35       0.0266
      6  CG1      207.5490   99.8320   90.9220 C.3    35  VAL35       0.0020
      7  CG2      209.2890  100.7230   89.3650 C.3    35  VAL35       0.0020
      8  N        207.8670  103.1960   92.9580 N.am   36  LEU36      -0.1980
      9  CA       207.1870  103.6130   94.1860 C.3    36  LEU36       0.1596
     10  C        206.4360  104.9400   94.0150 C.2    36  LEU36       0.2287
     11  O        205.3050  105.0920   94.4820 O.2    36  LEU36      -0.2864
     12  CB       208.1740  103.7260   95.3460 C.3    36  LEU36       0.0297
     13  CG       208.6450  102.3960   95.9350 C.3    36  LEU36       0.0022
     14  CD1      209.4420  102.6270   97.2040 C.3    36  LEU36       0.0001
     15  CD2      207.4670  101.4720   96.2000 C.3    36  LEU36       0.0001
     16  N        202.5910  105.4510   91.6080 N.3    39  PRO39      -0.2102
     17  CA       201.2950  105.1110   92.2120 C.3    39  PRO39       0.1504
     18  C        200.9490  105.9730   93.4300 C.2    39  PRO39       0.2576
     19  O        199.7990  106.4020   93.5680 O.2    39  PRO39      -0.2718
     20  CB       201.4690  103.6430   92.6240 C.3    39  PRO39       0.0282
     21  CG       202.6280  103.1460   91.8340 C.3    39  PRO39       0.0208
     22  CD       203.5330  104.3200   91.6860 C.3    39  PRO39       0.0893
     23  N        201.9280  106.2200   94.2950 N.am   40  CYS40      -0.1971
     24  CA       201.7100  107.0240   95.4940 C.3    40  CYS40       0.1712
     25  C        201.2300  108.4320   95.1680 C.2    40  CYS40       0.2296
     26  O        200.1980  108.8900   95.6790 O.2    40  CYS40      -0.2864
     27  CB       202.9910  107.0980   96.3320 C.3    40  CYS40       0.0983
     28  SG       203.2930  105.6480   97.3650 S.3    40  CYS40      -0.0798
     29  N        197.6240  108.3510   93.5950 N.3    43  THR43      -0.1218
     30  CA       196.5730  108.1790   94.5970 C.3    43  THR43       0.1862
     31  C        196.3790  109.4720   95.3950 C.2    43  THR43       0.2287
     32  O        195.2480  109.9740   95.5460 O.2    43  THR43      -0.2866
     33  CB       196.8840  107.0220   95.5740 C.3    43  THR43       0.1770
     34  OG1      198.1300  107.2760   96.2240 O.3    43  THR43      -0.2211
     35  CG2      196.9770  105.6910   94.8330 C.3    43  THR43       0.0375
     36  N        196.4450  104.9300  112.8550 N.3    93  LEU93      -0.1231
     37  CA       196.2830  104.7110  111.4210 C.3    93  LEU93       0.1693
     38  C        194.8020  104.5800  111.1140 C.2    93  LEU93       0.2592
     39  O        194.1130  103.7330  111.6860 O.2    93  LEU93      -0.2718
     40  CB       197.0370  103.4640  110.9520 C.3    93  LEU93       0.0284
     41  CG       196.9030  103.1470  109.4560 C.3    93  LEU93       0.0019
     42  CD1      197.7730  104.0670  108.6040 C.3    93  LEU93       0.0001
     43  CD2      197.2100  101.6860  109.1650 C.3    93  LEU93       0.0001
     44  N        194.3120  105.4210  110.2080 N.am   94  TYR94      -0.1963
     45  CA       192.8880  105.4550  109.8990 C.3    94  TYR94       0.1756
     46  C        192.6170  105.2820  108.4050 C.2    94  TYR94       0.2461
     47  O        192.1890  106.2210  107.7320 O.2    94  TYR94      -0.2730
     48  CB       192.2830  106.7680  110.4000 C.3    94  TYR94       0.0574
     49  CG       190.7730  106.8070  110.3650 C.ar   94  TYR94      -0.0198
     50  CD1      190.0190  105.9020  111.1030 C.ar   94  TYR94      -0.0009
     51  CD2      190.1000  107.7560  109.6070 C.ar   94  TYR94      -0.0009
     52  CE1      188.6410  105.9340  111.0770 C.ar   94  TYR94       0.0417
     53  CE2      188.7190  107.7960  109.5770 C.ar   94  TYR94       0.0417
     54  CZ       187.9950  106.8840  110.3150 C.ar   94  TYR94       0.1957
     55  OH       186.6220  106.9180  110.2900 O.3    94  TYR94      -0.2866
     56  N        192.8670  104.0750  107.8770 N.am   95  PRO95      -0.2716
     57  CA       192.5770  103.8360  106.4610 C.3    95  PRO95       0.1536
     58  C        191.0760  103.6850  106.2400 C.2    95  PRO95       0.2598
     59  O        190.3380  103.5240  107.2140 O.2    95  PRO95      -0.2715
     60  CB       193.3160  102.5310  106.1660 C.3    95  PRO95       0.0310
     61  CG       193.3090  101.8130  107.4740 C.3    95  PRO95       0.0237
     62  CD       193.3930  102.8710  108.5460 C.3    95  PRO95       0.0939
     63  N        190.6390  103.7400  104.9850 N.am   96  ILE96      -0.1964
     64  CA       189.2220  103.6530  104.6560 C.3    96  ILE96       0.1727
     65  C        188.6050  102.3680  105.1970 C.2    96  ILE96       0.2616
     66  O        187.4700  102.3700  105.6720 O.2    96  ILE96      -0.2715
     67  CB       188.9910  103.7210  103.1310 C.3    96  ILE96       0.0290
     68  CG1      189.5810  105.0110  102.5590 C.3    96  ILE96       0.0022
     69  CG2      187.5030  103.6230  102.8010 C.3    96  ILE96       0.0023
     70  CD1      189.3160  105.2040  101.0900 C.3    96  ILE96       0.0001
     71  N        189.3600  101.2760  105.1430 N.am   97  TRP97      -0.1974
     72  CA       188.8240   99.9770  105.5330 C.3    97  TRP97       0.1640
     73  C        188.6920   99.8190  107.0470 C.2    97  TRP97       0.2290
     74  O        188.1500   98.8240  107.5230 O.2    97  TRP97      -0.2864
     75  CB       189.6830   98.8450  104.9580 C.3    97  TRP97       0.0576
     76  CG       191.1310   98.8630  105.3510 C.ar   97  TRP97       0.0006
     77  CD1      191.6670   98.4010  106.5150 C.ar   97  TRP97       0.0946
     78  CD2      192.2290   99.3350  104.5610 C.ar   97  TRP97       0.0152
     79  NE1      193.0310   98.5690  106.5080 N.ar   97  TRP97      -0.2442
     80  CE2      193.4010   99.1400  105.3190 C.ar   97  TRP97       0.0810
     81  CE3      192.3350   99.9100  103.2920 C.ar   97  TRP97       0.0012
     82  CZ2      194.6620   99.5010  104.8490 C.ar   97  TRP97       0.0191
     83  CZ3      193.5890  100.2680  102.8260 C.ar   97  TRP97       0.0001
     84  CH2      194.7350  100.0630  103.6050 C.ar   97  TRP97       0.0015
     85  N        184.5650  108.0990  107.3870 N.3   105  TRP105     -0.1241
     86  CA       185.9350  108.3880  106.9780 C.3   105  TRP105      0.1605
     87  C        186.1080  109.8640  106.6310 C.2   105  TRP105      0.2264
     88  O        187.0590  110.5100  107.0720 O.2   105  TRP105     -0.2867
     89  CB       186.3100  107.5020  105.7860 C.3   105  TRP105      0.0550
     90  CG       187.7240  107.6300  105.3020 C.ar  105  TRP105      0.0003
     91  CD1      188.8500  107.2070  105.9420 C.ar  105  TRP105      0.0946
     92  CD2      188.1570  108.1860  104.0520 C.ar  105  TRP105      0.0152
     93  NE1      189.9580  107.4770  105.1780 N.ar  105  TRP105     -0.2442
     94  CE2      189.5620  108.0800  104.0180 C.ar  105  TRP105      0.0810
     95  CE3      187.4940  108.7690  102.9690 C.ar  105  TRP105      0.0012
     96  CZ2      190.3140  108.5340  102.9360 C.ar  105  TRP105      0.0191
     97  CZ3      188.2430  109.2200  101.8990 C.ar  105  TRP105      0.0001
     98  CH2      189.6390  109.1000  101.8900 C.ar  105  TRP105      0.0015
     99  N        189.9440  111.2090  107.2860 N.3   110  GLY110     -0.1225
    100  CA       190.7530  110.2040  106.6100 C.3   110  GLY110      0.1811
    101  C        191.5380  110.6470  105.3780 C.2   110  GLY110      0.2280
    102  O        192.7170  110.2780  105.2320 O.2   110  GLY110     -0.2866
    103  N        195.0380  112.0710  106.1600 N.3   113  GLN113     -0.1231
    104  CA       196.0460  111.0890  106.5360 C.3   113  GLN113      0.1698
    105  C        196.5380  110.3390  105.3050 C.2   113  GLN113      0.2592
    106  O        197.7540  110.1830  105.1020 O.2   113  GLN113     -0.2718
    107  CB       195.4900  110.1110  107.5750 C.3   113  GLN113      0.0381
    108  CG       196.5580  109.3320  108.3290 C.3   113  GLN113      0.0905
    109  CD       195.9830  108.4820  109.4450 C.2   113  GLN113      0.2608
    110  OE1      195.4870  107.3820  109.2100 O.2   113  GLN113     -0.2717
    111  NE2      196.0500  108.9890  110.6700 N.am  113  GLN113     -0.0878
    112  N        195.5860  109.8990  104.4810 N.am  114  LEU114     -0.1980
    113  CA       195.9080  109.2000  103.2350 C.3   114  LEU114      0.1596
    114  C        196.8500  110.0260  102.3540 C.2   114  LEU114      0.2287
    115  O        197.9480  109.5750  101.9860 O.2   114  LEU114     -0.2864
    116  CB       194.6230  108.8660  102.4690 C.3   114  LEU114      0.0297
    117  CG       194.7100  107.9780  101.2240 C.3   114  LEU114      0.0022
    118  CD1      193.4600  107.1300  101.0870 C.3   114  LEU114      0.0001
    119  CD2      194.9190  108.8060   99.9650 C.3   114  LEU114      0.0001
    120  N        200.4480  110.6920  103.9430 N.3   117  LEU117     -0.1231
    121  CA       201.3410  109.5370  103.9160 C.3   117  LEU117      0.1693
    122  C        201.8110  109.2330  102.4920 C.2   117  LEU117      0.2592
    123  O        203.0210  109.1130  102.2350 O.2   117  LEU117     -0.2718
    124  CB       200.6580  108.3150  104.5300 C.3   117  LEU117      0.0284
    125  CG       200.3680  108.4450  106.0280 C.3   117  LEU117      0.0019
    126  CD1      199.8440  107.1400  106.5960 C.3   117  LEU117      0.0001
    127  CD2      201.6070  108.9060  106.7800 C.3   117  LEU117      0.0001
    128  N        200.8560  109.1390  101.5660 N.am  118  HIS118     -0.1976
    129  CA       201.1800  108.8590  100.1660 C.3   118  HIS118      0.1656
    130  C        202.1030  109.9030   99.5580 C.2   118  HIS118      0.2291
    131  O        203.0240  109.5740   98.8160 O.2   118  HIS118     -0.2864
    132  CB       199.9100  108.7660   99.3320 C.3   118  HIS118      0.0771
    133  CG       199.1830  107.4740   99.4920 C.ar  118  HIS118      0.0820
    134  ND1      198.1850  107.2890  100.4260 N.ar  118  HIS118     -0.2267
    135  CD2      199.3170  106.2910   98.8450 C.ar  118  HIS118      0.1154
    136  CE1      197.7290  106.0500  100.3400 C.ar  118  HIS118      0.1986
    137  NE2      198.4010  105.4300   99.3830 N.ar  118  HIS118     -0.2212
    138  N        205.6970  109.5520  101.0200 N.3   121  LEU121     -0.1245
    139  CA       206.3110  108.4080  100.3540 C.3   121  LEU121      0.1561
    140  C        206.7590  108.7610   98.9360 C.2   121  LEU121      0.2260
    141  O        207.9250  108.5730   98.5760 O.2   121  LEU121     -0.2867
    142  CB       205.3440  107.2270  100.3100 C.3   121  LEU121      0.0270
    143  CG       205.3990  106.2580  101.4890 C.3   121  LEU121      0.0019
    144  CD1      204.2540  105.2720  101.4320 C.3   121  LEU121      0.0001
    145  CD2      206.7300  105.5280  101.5010 C.3   121  LEU121      0.0001
@<TRIPOS>BOND
     1     7     5    1
     2     1     2    1
     3     5     2    1
     4     5     6    1
     5     2     3    1
     6    16    22    1
     7    16    17    1
     8    22    21    1
     9    21    20    1
    10     3     4    2
    11     3     8   am
    12    17    20    1
    13    17    18    1
    14     8     9    1
    15    18    19    2
    16    18    23   am
    17    29    30    1
    18    10     9    1
    19    10    11    2
    20     9    12    1
    21    23    24    1
    22    30    31    1
    23    30    33    1
    24    35    33    1
    25    25    24    1
    26    25    26    2
    27    12    13    1
    28    31    32    2
    29    24    27    1
    30    33    34    1
    31    13    15    1
    32    13    14    1
    33    27    28    1
    34   141   140    2
    35   131   130    2
    36   135   137   ar
    37   135   133   ar
    38   140   139    1
    39   132   133    1
    40   132   129    1
    41   137   136   ar
    42   133   134   ar
    43   130   129    1
    44   119   117    1
    45   129   128    1
    46   142   139    1
    47   142   143    1
    48   136   134   ar
    49   139   138    1
    50   118   117    1
    51    70    68    1
    52   117   116    1
    53   144   143    1
    54   143   145    1
    55   128   122   am
    56    98    97   ar
    57    98    96   ar
    58    97    95   ar
    59   115   114    2
    60   123   122    2
    61   114   113    1
    62   116   113    1
    63   122   121    1
    64    68    67    1
    65    69    67    1
    66    83    81   ar
    67    83    84   ar
    68    96    94   ar
    69    95    92   ar
    70    67    64    1
    71   113   112    1
    72    81    78   ar
    73    84    82   ar
    74   121   120    1
    75   121   124    1
    76    94    92   ar
    77    94    93   ar
    78    92    90   ar
    79   112   105   am
    80   124   125    1
    81    78    80   ar
    82    78    76   ar
    83    64    63    1
    84    64    65    1
    85    82    80   ar
    86    75    76    1
    87    75    72    1
    88    63    58   am
    89   106   105    2
    90    71    65   am
    91    71    72    1
    92    93    91   ar
    93    65    66    2
    94   102   101    2
    95    90    89    1
    96    90    91   ar
    97   105   104    1
    98    80    79   ar
    99    76    77   ar
   100   101   100    1
   101    72    73    1
   102    89    86    1
   103   125   126    1
   104   125   127    1
   105   103   104    1
   106    60    57    1
   107    60    61    1
   108    58    57    1
   109    58    59    2
   110    57    56    1
   111    79    77   ar
   112   104   107    1
   113   100    99    1
   114    87    86    1
   115    87    88    2
   116    86    85    1
   117    73    74    2
   118    61    62    1
   119   107   108    1
   120    47    46    2
   121    56    46   am
   122    56    62    1
   123   108   109    1
   124    46    45    1
   125    42    41    1
   126    43    41    1
   127   110   109    2
   128   109   111   am
   129    41    40    1
   130    53    51   ar
   131    53    54   ar
   132    51    49   ar
   133    45    44    1
   134    45    48    1
   135    44    38   am
   136    55    54    1
   137    54    52   ar
   138    49    48    1
   139    49    50   ar
   140    40    37    1
   141    52    50   ar
   142    38    37    1
   143    38    39    2
   144    37    36    1
