@<TRIPOS>MOLECULE
tmp/4yuuV01.pdb
 138 134 0 0 0
SMALL
GASTEIGER

@<TRIPOS>ATOM
      1  N        182.8740   99.2030   52.1060 N.3   135  PRO135     -0.2116
      2  CA       181.8490   98.1590   52.2540 C.3   135  PRO135      0.1372
      3  C        182.1480   97.1400   53.3590 C.2   135  PRO135      0.2244
      4  O        181.2690   96.8430   54.1750 O.2   135  PRO135     -0.2868
      5  CB       181.8480   97.4820   50.8810 C.3   135  PRO135      0.0268
      6  CG       182.2720   98.5500   49.9490 C.3   135  PRO135      0.0207
      7  CD       183.2970   99.3480   50.7010 C.3   135  PRO135      0.0892
      8  N        181.9010   98.6190   56.7100 N.3   138  PHE138     -0.1241
      9  CA       180.4890   98.6760   57.0520 C.3   138  PHE138      0.1605
     10  C        179.9990   97.3260   57.5440 C.2   138  PHE138      0.2264
     11  O        179.1780   97.2580   58.4540 O.2   138  PHE138     -0.2867
     12  CB       179.6410   99.1220   55.8620 C.3   138  PHE138      0.0534
     13  CG       178.1710   98.8880   56.0580 C.ar  138  PHE138     -0.0203
     14  CD1      177.4320   99.7090   56.8960 C.ar  138  PHE138     -0.0042
     15  CD2      177.5300   97.8380   55.4230 C.ar  138  PHE138     -0.0042
     16  CE1      176.0780   99.4900   57.0870 C.ar  138  PHE138     -0.0003
     17  CE2      176.1770   97.6150   55.6110 C.ar  138  PHE138     -0.0003
     18  CZ       175.4510   98.4420   56.4450 C.ar  138  PHE138     -0.0000
     19  N        178.6590   96.9430   61.2830 N.3   142  LEU142     -0.1245
     20  CA       177.2770   96.4950   61.3650 C.3   142  LEU142      0.1561
     21  C        177.1830   95.2520   62.2350 C.2   142  LEU142      0.2260
     22  O        176.2200   95.0860   62.9790 O.2   142  LEU142     -0.2867
     23  CB       176.7080   96.2120   59.9750 C.3   142  LEU142      0.0270
     24  CG       175.2600   95.7250   59.9230 C.3   142  LEU142      0.0019
     25  CD1      174.3280   96.7330   60.5760 C.3   142  LEU142      0.0001
     26  CD2      174.8440   95.4560   58.4900 C.3   142  LEU142      0.0001
     27  N        168.4340   90.2320   62.9050 N.3   207  VAL207     -0.1231
     28  CA       168.3990   90.5440   61.4850 C.3   207  VAL207      0.1692
     29  C        169.6850   91.2670   61.1020 C.2   207  VAL207      0.2592
     30  O        170.3400   90.8990   60.1130 O.2   207  VAL207     -0.2718
     31  CB       167.1560   91.3860   61.1090 C.3   207  VAL207      0.0266
     32  CG1      167.2770   91.8810   59.6840 C.3   207  VAL207      0.0020
     33  CG2      165.9060   90.5630   61.3020 C.3   207  VAL207      0.0020
     34  N        170.0790   92.2380   61.9260 N.am  208  GLY208     -0.1957
     35  CA       171.2960   92.9800   61.6740 C.3   208  GLY208      0.1869
     36  C        172.4520   92.0220   61.4890 C.2   208  GLY208      0.2309
     37  O        173.1910   92.1120   60.5080 O.2   208  GLY208     -0.2863
     38  N        172.5220   88.9800   60.6050 N.3   210  LEU210     -0.1231
     39  CA       172.4070   88.2970   59.3270 C.3   210  LEU210      0.1693
     40  C        172.9300   89.2070   58.2280 C.2   210  LEU210      0.2591
     41  O        173.8160   88.8140   57.4550 O.2   210  LEU210     -0.2718
     42  CB       170.9630   87.8850   59.0490 C.3   210  LEU210      0.0284
     43  CG       170.4090   86.8070   59.9810 C.3   210  LEU210      0.0019
     44  CD1      169.0190   86.3690   59.5330 C.3   210  LEU210      0.0001
     45  CD2      171.3600   85.6200   60.0550 C.3   210  LEU210      0.0001
     46  N        172.4230   90.4390   58.2080 N.am  211  ALA211     -0.1980
     47  CA       172.8430   91.4150   57.2170 C.3   211  ALA211      0.1597
     48  C        174.3570   91.5440   57.2500 C.2   211  ALA211      0.2287
     49  O        175.0150   91.5360   56.2020 O.2   211  ALA211     -0.2864
     50  CB       172.1810   92.7570   57.4690 C.3   211  ALA211      0.0319
     51  N        176.0750   88.9320   55.3560 N.3   214  PHE214     -0.1227
     52  CA       175.9740   89.2140   53.9320 C.3   214  PHE214      0.1736
     53  C        176.9900   90.2770   53.5410 C.2   214  PHE214      0.2595
     54  O        177.7890   90.0820   52.6170 O.2   214  PHE214     -0.2718
     55  CB       174.5610   89.6650   53.5590 C.3   214  PHE214      0.0547
     56  CG       174.4660   90.2610   52.1850 C.ar  214  PHE214     -0.0202
     57  CD1      174.4570   89.4500   51.0640 C.ar  214  PHE214     -0.0042
     58  CD2      174.4020   91.6330   52.0130 C.ar  214  PHE214     -0.0042
     59  CE1      174.3780   89.9960   49.7980 C.ar  214  PHE214     -0.0003
     60  CE2      174.3270   92.1850   50.7520 C.ar  214  PHE214     -0.0003
     61  CZ       174.3170   91.3660   49.6420 C.ar  214  PHE214     -0.0000
     62  N        176.9910   91.3820   54.2810 N.am  215  HIS215     -0.1975
     63  CA       177.8560   92.5040   53.9390 C.3   215  HIS215      0.1656
     64  C        179.3150   92.1850   54.1920 C.2   215  HIS215      0.2291
     65  O        180.2030   92.9280   53.7800 O.2   215  HIS215     -0.2864
     66  CB       177.4470   93.7470   54.7180 C.3   215  HIS215      0.0771
     67  CG       176.2990   94.4740   54.1030 C.ar  215  HIS215      0.0820
     68  ND1      176.4560   95.3620   53.0630 N.ar  215  HIS215     -0.2267
     69  CD2      174.9710   94.4230   54.3640 C.ar  215  HIS215      0.1154
     70  CE1      175.2730   95.8410   52.7160 C.ar  215  HIS215      0.1986
     71  NE2      174.3600   95.2840   53.4910 N.ar  215  HIS215     -0.2212
     72  N        179.6040   89.3240   50.5420 N.3   218  VAL218     -0.1231
     73  CA       179.2670   89.7080   49.1760 C.3   218  VAL218      0.1692
     74  C        179.7190   91.1270   48.8410 C.2   218  VAL218      0.2592
     75  O        179.3900   92.0800   49.5450 O.2   218  VAL218     -0.2718
     76  CB       177.7520   89.5890   48.9250 C.3   218  VAL218      0.0266
     77  CG1      177.3950   90.1100   47.5420 C.3   218  VAL218      0.0020
     78  CG2      177.3030   88.1470   49.0880 C.3   218  VAL218      0.0020
     79  N        180.4770   91.2530   47.7570 N.am  219  ARG219     -0.1966
     80  CA       180.9240   92.5530   47.2690 C.3   219  ARG219      0.1714
     81  C        179.7680   93.3290   46.6470 C.2   219  ARG219      0.2458
     82  O        178.8130   92.7340   46.1460 O.2   219  ARG219     -0.2730
     83  CB       182.0510   92.3800   46.2510 C.3   219  ARG219      0.0347
     84  CG       183.2890   91.7090   46.8140 C.3   219  ARG219      0.0492
     85  CD       183.8120   92.4610   48.0250 C.3   219  ARG219      0.2205
     86  NE       184.0370   93.8730   47.7350 N.pl3 219  ARG219     -0.0865
     87  CZ       184.5700   94.7380   48.5920 C.cat 219  ARG219      0.5346
     88  NH1      184.9420   94.3350   49.8010 N.pl3 219  ARG219      0.1354
     89  NH2      184.7340   96.0070   48.2390 N.pl3 219  ARG219      0.1354
     90  N        179.8440   94.6680   46.6850 N.am  220  PRO220     -0.2716
     91  CA       178.7770   95.5080   46.1290 C.3   220  PRO220      0.1521
     92  C        178.6610   95.3930   44.6140 C.2   220  PRO220      0.2440
     93  O        179.6750   95.2480   43.9330 O.2   220  PRO220     -0.2731
     94  CB       179.2020   96.9280   46.5250 C.3   220  PRO220      0.0310
     95  CG       180.1560   96.7470   47.6540 C.3   220  PRO220      0.0237
     96  CD       180.8760   95.4710   47.3620 C.3   220  PRO220      0.0939
     97  N        177.4260   95.4430   44.0920 N.am  221  PRO221     -0.2727
     98  CA       177.1740   95.5190   42.6500 C.3   221  PRO221      0.1402
     99  C        177.9060   96.6990   42.0240 C.2   221  PRO221      0.2269
    100  O        177.8950   97.7890   42.5960 O.2   221  PRO221     -0.2865
    101  CB       175.6590   95.7100   42.5700 C.3   221  PRO221      0.0296
    102  CG       175.1420   95.0760   43.8150 C.3   221  PRO221      0.0237
    103  CD       176.1760   95.3470   44.8660 C.3   221  PRO221      0.0939
    104  N        175.8090   99.8290   41.5180 N.3   224  LEU224     -0.1245
    105  CA       175.5380  100.5140   42.7760 C.3   224  LEU224      0.1561
    106  C        176.7980  101.1930   43.3050 C.2   224  LEU224      0.2260
    107  O        176.7370  102.2940   43.8560 O.2   224  LEU224     -0.2867
    108  CB       174.9850   99.5410   43.8170 C.3   224  LEU224      0.0270
    109  CG       173.5510   99.0540   43.6060 C.3   224  LEU224      0.0019
    110  CD1      173.1030   98.1770   44.7660 C.3   224  LEU224      0.0001
    111  CD2      172.6050  100.2300   43.4250 C.3   224  LEU224      0.0001
    112  N        176.5040  105.1500   43.8430 N.3   228  LEU228     -0.1245
    113  CA       176.6060  105.7180   45.1830 C.3   228  LEU228      0.1561
    114  C        178.0140  106.2090   45.5080 C.2   228  LEU228      0.2260
    115  O        178.2690  106.6630   46.6250 O.2   228  LEU228     -0.2867
    116  CB       176.1580  104.6940   46.2280 C.3   228  LEU228      0.0270
    117  CG       174.6620  104.3840   46.2340 C.3   228  LEU228      0.0019
    118  CD1      174.3330  103.3450   47.2900 C.3   228  LEU228      0.0001
    119  CD2      173.8660  105.6570   46.4620 C.3   228  LEU228      0.0001
    120  N        180.9550  104.6190   46.0080 N.3   230  MET230     -0.1245
    121  CA       181.4080  103.9280   47.2120 C.3   230  MET230      0.1570
    122  C        182.9230  103.9820   47.4110 C.2   230  MET230      0.2261
    123  O        183.4530  103.3930   48.3510 O.2   230  MET230     -0.2867
    124  CB       180.9380  102.4750   47.1900 C.3   230  MET230      0.0387
    125  CG       179.4300  102.3340   47.1040 C.3   230  MET230      0.0595
    126  SD       178.8460  100.6540   47.3900 S.3   230  MET230     -0.1393
    127  CE       177.0990  100.8510   47.0680 C.3   230  MET230      0.0692
    128  N        166.7980  111.1560   60.4780 N.3   246  PHE246     -0.1241
    129  CA       165.6170  110.2970   60.5700 C.3   246  PHE246      0.1605
    130  C        165.3750  109.8980   62.0300 C.2   246  PHE246      0.2264
    131  O        164.2830  110.1160   62.5940 O.2   246  PHE246     -0.2867
    132  CB       165.7850  109.0580   59.6850 C.3   246  PHE246      0.0534
    133  CG       164.7100  108.0220   59.8690 C.ar  246  PHE246     -0.0203
    134  CD1      163.3730  108.3620   59.7650 C.ar  246  PHE246     -0.0042
    135  CD2      165.0400  106.7020   60.1260 C.ar  246  PHE246     -0.0042
    136  CE1      162.3840  107.4080   59.9310 C.ar  246  PHE246     -0.0003
    137  CE2      164.0580  105.7450   60.2890 C.ar  246  PHE246     -0.0003
    138  CZ       162.7290  106.0980   60.1920 C.ar  246  PHE246     -0.0000
@<TRIPOS>BOND
     1   104   105    1
     2    99   100    2
     3    99    98    1
     4   101    98    1
     5   101   102    1
     6    98    97    1
     7   105   106    1
     8   105   108    1
     9   106   107    2
    10   111   109    1
    11   109   108    1
    12   109   110    1
    13   102   103    1
    14   112   113    1
    15    93    92    2
    16    97    92   am
    17    97   103    1
    18    92    91    1
    19   113   114    1
    20   113   116    1
    21   114   115    2
    22   120   121    1
    23    91    94    1
    24    91    90    1
    25    82    81    2
    26   116   117    1
    27   117   119    1
    28   117   118    1
    29    83    84    1
    30    83    80    1
    31    94    95    1
    32    81    90   am
    33    81    80    1
    34    90    96    1
    35    84    85    1
    36   127   126    1
    37   125   124    1
    38   125   126    1
    39   124   121    1
    40   121   122    1
    41    80    79    1
    42    96    95    1
    43   122   123    2
    44    77    76    1
    45    86    85    1
    46    86    87    2
    47    79    74   am
    48    89    87    1
    49    87    88    1
    50    74    73    1
    51    74    75    2
    52    76    78    1
    53    76    73    1
    54    73    72    1
    55    61    59   ar
    56    61    60   ar
    57    59    57   ar
    58     6     7    1
    59     6     5    1
    60     7     1    1
    61    60    58   ar
    62     5     2    1
    63    57    56   ar
    64    58    56   ar
    65     1     2    1
    66    56    55    1
    67     2     3    1
    68    54    53    2
    69    70    68   ar
    70    70    71   ar
    71    68    67   ar
    72     3     4    2
    73    71    69   ar
    74    53    52    1
    75    53    62   am
    76    55    52    1
    77    65    64    2
    78    52    51    1
    79    63    64    1
    80    63    62    1
    81    63    66    1
    82    67    69   ar
    83    67    66    1
    84    15    17   ar
    85    15    13   ar
    86    17    18   ar
    87    12    13    1
    88    12     9    1
    89    13    14   ar
    90    49    48    2
    91    18    16   ar
    92     8     9    1
    93    14    16   ar
    94     9    10    1
    95    47    48    1
    96    47    50    1
    97    47    46    1
    98    41    40    2
    99    10    11    2
   100    46    40   am
   101    40    39    1
   102    26    24    1
   103    42    39    1
   104    42    43    1
   105    39    38    1
   106    44    43    1
   107    32    31    1
   108   132   133    1
   109   132   129    1
   110   134   133   ar
   111   134   136   ar
   112   133   135   ar
   113    24    23    1
   114    24    25    1
   115   136   138   ar
   116    23    20    1
   117    43    45    1
   118    30    29    2
   119   135   137   ar
   120   138   137   ar
   121   128   129    1
   122    37    36    2
   123   129   130    1
   124    29    28    1
   125    29    34   am
   126    31    33    1
   127    31    28    1
   128    19    20    1
   129    20    21    1
   130    28    27    1
   131    36    35    1
   132    35    34    1
   133   130   131    2
   134    21    22    2
