@<TRIPOS>MOLECULE
tmp/4yuuU17.pdb
 88 86 0 0 0
SMALL
GASTEIGER

@<TRIPOS>ATOM
      1  N        174.3800  155.2200   32.9890 N.3   130  ARG130     -0.1245
      2  CA       172.9410  155.3550   32.8270 C.3   130  ARG130      0.1563
      3  C        172.3510  155.6940   34.1990 C.2   130  ARG130      0.2260
      4  O        172.8570  155.2300   35.2240 O.2   130  ARG130     -0.2867
      5  CB       172.3470  154.0780   32.2310 C.3   130  ARG130      0.0307
      6  CG       172.5570  153.9870   30.7240 C.3   130  ARG130      0.0489
      7  CD       172.6890  152.5570   30.2310 C.3   130  ARG130      0.2205
      8  NE       171.5070  151.7520   30.5180 N.pl3 130  ARG130     -0.0865
      9  CZ       170.4060  151.7470   29.7730 C.cat 130  ARG130      0.5346
     10  NH1      170.3280  152.5150   28.6930 N.pl3 130  ARG130      0.1354
     11  NH2      169.3800  150.9780   30.1120 N.pl3 130  ARG130      0.1354
     12  N        169.4190  155.3930   36.0940 N.3   132  TRP132     -0.1241
     13  CA       168.1760  154.8830   36.6730 C.3   132  TRP132      0.1605
     14  C        168.3570  153.9960   37.9010 C.2   132  TRP132      0.2264
     15  O        167.5160  153.1450   38.1870 O.2   132  TRP132     -0.2867
     16  CB       167.3910  154.1270   35.6020 C.3   132  TRP132      0.0550
     17  CG       166.9420  155.0180   34.4890 C.ar  132  TRP132      0.0003
     18  CD1      166.4480  156.2840   34.6040 C.ar  132  TRP132      0.0946
     19  CD2      166.9750  154.7260   33.0880 C.ar  132  TRP132      0.0152
     20  NE1      166.1530  156.7930   33.3650 N.ar  132  TRP132     -0.2442
     21  CE2      166.4690  155.8550   32.4150 C.ar  132  TRP132      0.0810
     22  CE3      167.3770  153.6160   32.3370 C.ar  132  TRP132      0.0012
     23  CZ2      166.3550  155.9100   31.0280 C.ar  132  TRP132      0.0191
     24  CZ3      167.2620  153.6720   30.9580 C.ar  132  TRP132      0.0001
     25  CH2      166.7550  154.8120   30.3190 C.ar  132  TRP132      0.0015
     26  N        165.9740  155.5190   40.6850 N.3   135  VAL135     -0.1231
     27  CA       164.5740  155.1280   40.5500 C.3   135  VAL135      0.1692
     28  C        164.2970  153.8810   41.4130 C.2   135  VAL135      0.2591
     29  O        163.3950  153.8470   42.3070 O.2   135  VAL135     -0.2718
     30  CB       164.2460  154.8620   39.0420 C.3   135  VAL135      0.0266
     31  CG1      162.8460  154.3610   38.8420 C.3   135  VAL135      0.0020
     32  CG2      164.4880  156.1160   38.1950 C.3   135  VAL135      0.0020
     33  N        165.1140  152.8650   41.1430 N.am  136  ALA136     -0.1980
     34  CA       165.1990  151.6770   41.9810 C.3   136  ALA136      0.1597
     35  C        165.2350  152.0630   43.4610 C.2   136  ALA136      0.2287
     36  O        164.4720  151.5250   44.2700 O.2   136  ALA136     -0.2864
     37  CB       166.4080  150.8790   41.6300 C.3   136  ALA136      0.0319
     38  N        167.1790  143.4540   33.9050 N.3   263  PHE263     -0.1241
     39  CA       166.1210  144.4540   33.9410 C.3   263  PHE263      0.1605
     40  C        164.9400  143.9390   34.7510 C.2   263  PHE263      0.2264
     41  O        164.3950  144.6540   35.5870 O.2   263  PHE263     -0.2867
     42  CB       165.6400  144.8400   32.5460 C.3   263  PHE263      0.0534
     43  CG       164.3140  145.5470   32.5590 C.ar  263  PHE263     -0.0203
     44  CD1      164.2160  146.8550   33.0130 C.ar  263  PHE263     -0.0042
     45  CD2      163.1580  144.8950   32.1550 C.ar  263  PHE263     -0.0042
     46  CE1      162.9940  147.5020   33.0480 C.ar  263  PHE263     -0.0003
     47  CE2      161.9360  145.5380   32.1870 C.ar  263  PHE263     -0.0003
     48  CZ       161.8530  146.8430   32.6330 C.ar  263  PHE263     -0.0000
     49  N        165.6200  143.9280   38.4200 N.3   266  GLY266     -0.1210
     50  CA       165.4830  145.2450   39.0120 C.3   266  GLY266      0.1956
     51  C        164.0310  145.6920   39.0960 C.2   266  GLY266      0.2611
     52  O        163.6420  146.3860   40.0300 O.2   266  GLY266     -0.2717
     53  N        163.2250  145.2700   38.1260 N.am  267  LEU267     -0.1979
     54  CA       161.8810  145.8080   37.9430 C.3   267  LEU267      0.1596
     55  C        160.8490  145.2190   38.8980 C.2   267  LEU267      0.2287
     56  O        160.0530  145.9550   39.4800 O.2   267  LEU267     -0.2864
     57  CB       161.4180  145.5900   36.5000 C.3   267  LEU267      0.0297
     58  CG       160.0720  146.1670   36.0860 C.3   267  LEU267      0.0022
     59  CD1      160.1360  147.6860   35.9870 C.3   267  LEU267      0.0001
     60  CD2      159.6200  145.5710   34.7550 C.3   267  LEU267      0.0001
     61  N        161.0050  146.5110   42.6720 N.3   270  VAL270     -0.1231
     62  CA       160.8340  147.9600   42.7030 C.3   270  VAL270      0.1692
     63  C        159.3760  148.3370   42.4590 C.2   270  VAL270      0.2591
     64  O        158.8350  149.2240   43.1260 O.2   270  VAL270     -0.2718
     65  CB       161.7470  148.6610   41.6660 C.3   270  VAL270      0.0266
     66  CG1      161.2830  150.0850   41.4060 C.3   270  VAL270      0.0020
     67  CG2      163.1860  148.6570   42.1480 C.3   270  VAL270      0.0020
     68  N        158.7330  147.6540   41.5180 N.am  271  VAL271     -0.1980
     69  CA       157.3230  147.9030   41.2570 C.3   271  VAL271      0.1595
     70  C        156.4850  147.4560   42.4490 C.2   271  VAL271      0.2287
     71  O        155.6050  148.1950   42.9050 O.2   271  VAL271     -0.2864
     72  CB       156.8460  147.1910   39.9730 C.3   271  VAL271      0.0276
     73  CG1      155.3360  147.2870   39.8430 C.3   271  VAL271      0.0022
     74  CG2      157.5260  147.7990   38.7570 C.3   271  VAL271      0.0022
     75  N        156.8820  149.9810   45.1400 N.3   274  TRP274     -0.1241
     76  CA       156.1770  151.1830   44.7000 C.3   274  TRP274      0.1605
     77  C        154.7020  151.0940   45.0600 C.2   274  TRP274      0.2264
     78  O        154.1380  151.9840   45.7200 O.2   274  TRP274     -0.2867
     79  CB       156.3410  151.3820   43.1930 C.3   274  TRP274      0.0550
     80  CG       157.5490  152.1850   42.8040 C.ar  274  TRP274      0.0003
     81  CD1      158.2840  153.0050   43.6110 C.ar  274  TRP274      0.0946
     82  CD2      158.1590  152.2500   41.5100 C.ar  274  TRP274      0.0152
     83  NE1      159.3100  153.5780   42.8990 N.ar  274  TRP274     -0.2442
     84  CE2      159.2570  153.1260   41.6030 C.ar  274  TRP274      0.0810
     85  CE3      157.8830  151.6510   40.2730 C.ar  274  TRP274      0.0012
     86  CZ2      160.0740  153.4230   40.5200 C.ar  274  TRP274      0.0191
     87  CZ3      158.6990  151.9420   39.1980 C.ar  274  TRP274      0.0001
     88  CH2      159.7800  152.8200   39.3270 C.ar  274  TRP274      0.0015
@<TRIPOS>BOND
     1    10     9    1
     2     9    11    1
     3     9     8    2
     4     7     8    1
     5     7     6    1
     6    25    24   ar
     7    25    23   ar
     8     6     5    1
     9    24    22   ar
    10    23    21   ar
    11    45    47   ar
    12    45    43   ar
    13    47    48   ar
    14     5     2    1
    15    22    19   ar
    16    21    19   ar
    17    21    20   ar
    18    42    43    1
    19    42    39    1
    20    43    44   ar
    21    48    46   ar
    22     2     1    1
    23     2     3    1
    24    44    46   ar
    25    19    17   ar
    26    20    18   ar
    27    38    39    1
    28    39    40    1
    29     3     4    2
    30    17    18   ar
    31    17    16    1
    32    40    41    2
    33    60    58    1
    34    16    13    1
    35    59    58    1
    36    58    57    1
    37    12    13    1
    38    57    54    1
    39    13    14    1
    40    14    15    2
    41    54    53    1
    42    54    55    1
    43    53    51   am
    44    32    30    1
    45    49    50    1
    46    74    72    1
    47    31    30    1
    48    55    56    2
    49    50    51    1
    50    30    27    1
    51    51    52    2
    52    87    88   ar
    53    87    85   ar
    54    88    86   ar
    55    73    72    1
    56    72    69    1
    57    85    82   ar
    58    86    84   ar
    59    27    26    1
    60    27    28    1
    61    33    28   am
    62    33    34    1
    63    69    68    1
    64    69    70    1
    65    66    65    1
    66    28    29    2
    67    82    84   ar
    68    82    80   ar
    69    68    63   am
    70    84    83   ar
    71    37    34    1
    72    65    67    1
    73    65    62    1
    74    34    35    1
    75    70    71    2
    76    63    62    1
    77    63    64    2
    78    61    62    1
    79    80    79    1
    80    80    81   ar
    81    83    81   ar
    82    79    76    1
    83    35    36    2
    84    76    77    1
    85    76    75    1
    86    77    78    2
