@<TRIPOS>MOLECULE
tmp/4yuuB08.pdb
 98 95 0 0 0
SMALL
GASTEIGER

@<TRIPOS>ATOM
      1  N        203.5620  160.7970   67.1080 N.3    19  ILE19      -0.1245
      2  CA       202.4970  161.7740   67.2970 C.3    19  ILE19       0.1561
      3  C        201.1290  161.1170   67.1470 C.2    19  ILE19       0.2260
      4  O        200.2260  161.3740   67.9390 O.2    19  ILE19      -0.2867
      5  CB       202.6260  162.9400   66.2980 C.3    19  ILE19       0.0252
      6  CG1      203.8750  163.7670   66.6120 C.3    19  ILE19       0.0019
      7  CG2      201.3920  163.8250   66.3330 C.3    19  ILE19       0.0019
      8  CD1      204.1270  164.8890   65.6320 C.3    19  ILE19       0.0001
      9  N        198.2850  160.7400   69.9770 N.3    23  LEU23      -0.1245
     10  CA       196.9380  161.2020   69.7020 C.3    23  LEU23       0.1561
     11  C        195.9350  160.1220   70.0760 C.2    23  LEU23       0.2260
     12  O        194.8840  160.4120   70.6420 O.2    23  LEU23      -0.2867
     13  CB       196.7870  161.5880   68.2280 C.3    23  LEU23       0.0270
     14  CG       197.3470  162.9470   67.8150 C.3    23  LEU23       0.0019
     15  CD1      197.4220  163.0520   66.3030 C.3    23  LEU23       0.0001
     16  CD2      196.4830  164.0570   68.3870 C.3    23  LEU23       0.0001
     17  N        187.6960  163.5890   67.5500 N.3   105  LEU105     -0.1231
     18  CA       188.5780  164.4080   66.7230 C.3   105  LEU105      0.1693
     19  C        190.0340  163.9570   66.8370 C.2   105  LEU105      0.2591
     20  O        190.7310  163.8210   65.8290 O.2   105  LEU105     -0.2718
     21  CB       188.4450  165.8830   67.1030 C.3   105  LEU105      0.0284
     22  CG       187.0920  166.5080   66.7560 C.3   105  LEU105      0.0019
     23  CD1      187.0330  167.9630   67.1960 C.3   105  LEU105      0.0001
     24  CD2      186.8190  166.3830   65.2650 C.3   105  LEU105      0.0001
     25  N        190.4840  163.7130   68.0630 N.am  106  LEU106     -0.1980
     26  CA       191.8380  163.2230   68.2900 C.3   106  LEU106      0.1596
     27  C        192.0390  161.8580   67.6350 C.2   106  LEU106      0.2287
     28  O        193.1300  161.5380   67.1650 O.2   106  LEU106     -0.2864
     29  CB       192.1400  163.1410   69.7870 C.3   106  LEU106      0.0297
     30  CG       192.1350  164.4580   70.5690 C.3   106  LEU106      0.0022
     31  CD1      192.1810  164.1870   72.0610 C.3   106  LEU106      0.0001
     32  CD2      193.2910  165.3500   70.1540 C.3   106  LEU106      0.0001
     33  N        192.4370  162.4840   63.8610 N.3   109  ALA109     -0.1245
     34  CA       193.7620  163.0800   63.7000 C.3   109  ALA109      0.1562
     35  C        194.8650  162.0290   63.8320 C.2   109  ALA109      0.2260
     36  O        195.8550  162.0540   63.0980 O.2   109  ALA109     -0.2867
     37  CB       193.9660  164.1930   64.7150 C.3   109  ALA109      0.0290
     38  N        195.0510  160.1160   60.6520 N.3   112  TRP112     -0.1227
     39  CA       195.7350  160.8960   59.6230 C.3   112  TRP112      0.1737
     40  C        197.2500  160.8710   59.8080 C.2   112  TRP112      0.2595
     41  O        197.9930  160.6320   58.8570 O.2   112  TRP112     -0.2718
     42  CB       195.2450  162.3450   59.6050 C.3   112  TRP112      0.0564
     43  CG       195.7560  163.1120   58.4150 C.ar  112  TRP112      0.0003
     44  CD1      195.1330  163.2650   57.2110 C.ar  112  TRP112      0.0946
     45  CD2      197.0070  163.8100   58.3100 C.ar  112  TRP112      0.0152
     46  NE1      195.9110  164.0210   56.3650 N.ar  112  TRP112     -0.2442
     47  CE2      197.0660  164.3670   57.0150 C.ar  112  TRP112      0.0810
     48  CE3      198.0780  164.0220   59.1860 C.ar  112  TRP112      0.0012
     49  CZ2      198.1550  165.1210   56.5750 C.ar  112  TRP112      0.0191
     50  CZ3      199.1580  164.7710   58.7450 C.ar  112  TRP112      0.0001
     51  CH2      199.1870  165.3110   57.4510 C.ar  112  TRP112      0.0015
     52  N        197.7080  161.1170   61.0310 N.am  113  HIS113     -0.1975
     53  CA       199.1460  161.1430   61.2940 C.3   113  HIS113      0.1656
     54  C        199.7910  159.7740   61.1860 C.2   113  HIS113      0.2291
     55  O        201.0000  159.6660   61.0020 O.2   113  HIS113     -0.2864
     56  CB       199.4310  161.7270   62.6680 C.3   113  HIS113      0.0771
     57  CG       199.5690  163.2100   62.6600 C.ar  113  HIS113      0.0820
     58  ND1      200.6920  163.8490   62.1800 N.ar  113  HIS113     -0.2267
     59  CD2      198.7210  164.1870   63.0600 C.ar  113  HIS113      0.1154
     60  CE1      200.5320  165.1570   62.2910 C.ar  113  HIS113      0.1986
     61  NE2      199.3440  165.3820   62.8240 N.ar  113  HIS113     -0.2212
     62  N        206.3060  163.1580   56.7070 N.3   119  LEU119     -0.1245
     63  CA       206.2820  164.6040   56.5430 C.3   119  LEU119      0.1561
     64  C        207.7080  165.1450   56.4750 C.2   119  LEU119      0.2260
     65  O        208.6090  164.6290   57.1410 O.2   119  LEU119     -0.2867
     66  CB       205.5070  165.2640   57.6850 C.3   119  LEU119      0.0270
     67  CG       204.0810  164.7550   57.9070 C.3   119  LEU119      0.0019
     68  CD1      203.4040  165.5300   59.0230 C.3   119  LEU119      0.0001
     69  CD2      203.2620  164.8310   56.6250 C.3   119  LEU119      0.0001
     70  N        208.7580  167.8180   57.6090 N.3   121  LEU121     -0.1231
     71  CA       209.0440  168.4990   58.8690 C.3   121  LEU121      0.1693
     72  C        209.8960  167.6490   59.8090 C.2   121  LEU121      0.2592
     73  O        210.6210  168.1730   60.6540 O.2   121  LEU121     -0.2718
     74  CB       207.7320  168.8850   59.5550 C.3   121  LEU121      0.0284
     75  CG       207.8150  169.6270   60.8880 C.3   121  LEU121      0.0019
     76  CD1      208.5940  170.9230   60.7290 C.3   121  LEU121      0.0001
     77  CD2      206.4210  169.8940   61.4360 C.3   121  LEU121      0.0001
     78  N        209.8120  166.3330   59.6510 N.am  122  PHE122     -0.1976
     79  CA       210.5000  165.4100   60.5460 C.3   122  PHE122      0.1639
     80  C        211.8860  165.0420   60.0330 C.2   122  PHE122      0.2290
     81  O        212.6810  164.4440   60.7540 O.2   122  PHE122     -0.2864
     82  CB       209.6600  164.1460   60.7430 C.3   122  PHE122      0.0560
     83  CG       208.2430  164.4210   61.1570 C.ar  122  PHE122     -0.0200
     84  CD1      207.9540  165.4250   62.0680 C.ar  122  PHE122     -0.0042
     85  CD2      207.1980  163.6850   60.6270 C.ar  122  PHE122     -0.0042
     86  CE1      206.6490  165.6840   62.4460 C.ar  122  PHE122     -0.0003
     87  CE2      205.8920  163.9400   61.0000 C.ar  122  PHE122     -0.0003
     88  CZ       205.6170  164.9400   61.9110 C.ar  122  PHE122     -0.0000
     89  N        207.1100  173.8980   73.9940 N.3   141  HIS141     -0.1241
     90  CA       206.1480  173.2560   74.8850 C.3   141  HIS141      0.1621
     91  C        206.1330  173.8900   76.2660 C.2   141  HIS141      0.2264
     92  O        205.0860  173.9860   76.9010 O.2   141  HIS141     -0.2867
     93  CB       206.4460  171.7640   75.0050 C.3   141  HIS141      0.0745
     94  CG       206.1560  170.9970   73.7580 C.ar  141  HIS141      0.0817
     95  ND1      206.3380  169.6370   73.6580 N.ar  141  HIS141     -0.2268
     96  CD2      205.6880  171.4060   72.5550 C.ar  141  HIS141      0.1154
     97  CE1      205.9980  169.2380   72.4460 C.ar  141  HIS141      0.1986
     98  NE2      205.6040  170.2890   71.7580 N.ar  141  HIS141     -0.2212
@<TRIPOS>BOND
     1    46    47   ar
     2    46    44   ar
     3    64    63    1
     4    64    65    2
     5    63    62    1
     6    63    66    1
     7    49    47   ar
     8    49    51   ar
     9    69    67    1
    10    47    45   ar
    11    44    43   ar
    12    51    50   ar
    13    70    71    1
    14    66    67    1
    15    67    68    1
    16    45    43   ar
    17    45    48   ar
    18    43    42    1
    19    50    48   ar
    20    41    40    2
    21    71    74    1
    22    71    72    1
    23    74    75    1
    24    42    39    1
    25    39    40    1
    26    39    38    1
    27    78    72   am
    28    78    79    1
    29    40    52   am
    30    72    73    2
    31    80    79    1
    32    80    81    2
    33    79    82    1
    34    85    87   ar
    35    85    83   ar
    36    76    75    1
    37    82    83    1
    38    75    77    1
    39    87    88   ar
    40    55    54    2
    41    52    53    1
    42    83    84   ar
    43    54    53    1
    44    53    56    1
    45    88    86   ar
    46    84    86   ar
    47    58    60   ar
    48    58    57   ar
    49    60    61   ar
    50    57    56    1
    51    57    59   ar
    52    61    59   ar
    53    36    35    2
    54    34    35    1
    55    34    33    1
    56    34    37    1
    57    24    22    1
    58     8     6    1
    59    20    19    2
    60     5     7    1
    61     5     6    1
    62     5     2    1
    63    15    14    1
    64    18    19    1
    65    18    21    1
    66    18    17    1
    67    22    21    1
    68    22    23    1
    69    19    25   am
    70     1     2    1
    71     3     2    1
    72     3     4    2
    73    28    27    2
    74    27    26    1
    75    14    13    1
    76    14    16    1
    77    25    26    1
    78    13    10    1
    79    26    29    1
    80    10     9    1
    81    10    11    1
    82    29    30    1
    83    11    12    2
    84    32    30    1
    85    30    31    1
    86    98    97   ar
    87    98    96   ar
    88    97    95   ar
    89    96    94   ar
    90    95    94   ar
    91    94    93    1
    92    89    90    1
    93    90    93    1
    94    90    91    1
    95    91    92    2
