@<TRIPOS>MOLECULE
tmp/4yuuA03.pdb
 115 106 0 0 0
SMALL
GASTEIGER

@<TRIPOS>ATOM
      1  N        197.2400  109.7770  116.5080 N.3    91  LEU91      -0.1231
      2  CA       198.2470  109.2180  115.6150 C.3    91  LEU91       0.1693
      3  C        197.8710  107.8140  115.1580 C.2    91  LEU91       0.2592
      4  O        198.6990  107.0900  114.6090 O.2    91  LEU91      -0.2718
      5  CB       199.6180  109.1950  116.2910 C.3    91  LEU91       0.0284
      6  CG       200.2730  110.5540  116.5370 C.3    91  LEU91       0.0019
      7  CD1      201.6010  110.3840  117.2620 C.3    91  LEU91       0.0001
      8  CD2      200.4700  111.2950  115.2290 C.3    91  LEU91       0.0001
      9  N        196.6200  107.4320  115.3850 N.am   92  HIS92      -0.1976
     10  CA       196.1330  106.1290  114.9490 C.3    92  HIS92       0.1656
     11  C        196.0330  106.0580  113.4280 C.2    92  HIS92       0.2291
     12  O        195.6030  107.0140  112.7840 O.2    92  HIS92      -0.2864
     13  CB       194.7690  105.8320  115.5800 C.3    92  HIS92       0.0771
     14  CG       194.8330  105.5150  117.0430 C.ar   92  HIS92       0.0820
     15  ND1      194.3090  104.3600  117.5780 N.ar   92  HIS92      -0.2267
     16  CD2      195.3710  106.1990  118.0810 C.ar   92  HIS92       0.1154
     17  CE1      194.5160  104.3460  118.8830 C.ar   92  HIS92       0.1986
     18  NE2      195.1580  105.4500  119.2120 N.ar   92  HIS92      -0.2212
     19  N        200.4480  110.6920  103.9430 N.3   117  LEU117     -0.1245
     20  CA       201.3410  109.5370  103.9160 C.3   117  LEU117      0.1561
     21  C        201.8110  109.2330  102.4920 C.2   117  LEU117      0.2260
     22  O        203.0210  109.1130  102.2350 O.2   117  LEU117     -0.2867
     23  CB       200.6580  108.3150  104.5300 C.3   117  LEU117      0.0270
     24  CG       200.3680  108.4450  106.0280 C.3   117  LEU117      0.0019
     25  CD1      199.8440  107.1400  106.5960 C.3   117  LEU117      0.0001
     26  CD2      201.6070  108.9060  106.7800 C.3   117  LEU117      0.0001
     27  N        204.2330  111.9610  101.1880 N.3   120  LEU120     -0.1231
     28  CA       205.5750  111.8660  101.7610 C.3   120  LEU120      0.1693
     29  C        206.3520  110.7060  101.1420 C.2   120  LEU120      0.2591
     30  O        207.5210  110.8630  100.7700 O.2   120  LEU120     -0.2718
     31  CB       205.5120  111.7140  103.2790 C.3   120  LEU120      0.0284
     32  CG       205.1270  112.9890  104.0310 C.3   120  LEU120      0.0019
     33  CD1      205.1080  112.7340  105.5270 C.3   120  LEU120      0.0001
     34  CD2      206.0720  114.1290  103.6790 C.3   120  LEU120      0.0001
     35  N        205.6970  109.5520  101.0200 N.am  121  LEU121     -0.1980
     36  CA       206.3110  108.4080  100.3540 C.3   121  LEU121      0.1596
     37  C        206.7590  108.7610   98.9360 C.2   121  LEU121      0.2287
     38  O        207.9250  108.5730   98.5760 O.2   121  LEU121     -0.2864
     39  CB       205.3440  107.2270  100.3100 C.3   121  LEU121      0.0297
     40  CG       205.3990  106.2580  101.4890 C.3   121  LEU121      0.0022
     41  CD1      204.2540  105.2720  101.4320 C.3   121  LEU121      0.0001
     42  CD2      206.7300  105.5280  101.5010 C.3   121  LEU121      0.0001
     43  N        209.6940  111.2650   98.8230 N.3   124  ALA124     -0.1245
     44  CA       210.9450  110.5900   99.1500 C.3   124  ALA124      0.1562
     45  C        211.4250  109.8150   97.9230 C.2   124  ALA124      0.2260
     46  O        212.6040  109.8730   97.5400 O.2   124  ALA124     -0.2867
     47  CB       210.7640  109.6640  100.3420 C.3   124  ALA124      0.0290
     48  N        212.9340  112.0820   95.4220 N.3   127  MET127     -0.1245
     49  CA       214.3300  112.3440   95.7730 C.3   127  MET127      0.1570
     50  C        215.2600  111.2230   95.2780 C.2   127  MET127      0.2261
     51  O        216.2680  111.4580   94.5690 O.2   127  MET127     -0.2867
     52  CB       214.4380  112.5110   97.2910 C.3   127  MET127      0.0387
     53  CG       215.7640  113.0190   97.8100 C.3   127  MET127      0.0595
     54  SD       215.6510  113.3450   99.5840 S.3   127  MET127     -0.1393
     55  CE       215.0140  111.7800  100.1820 C.3   127  MET127      0.0692
     56  N        216.6890  117.3580   99.1360 N.3   148  SER148     -0.1217
     57  CA       216.3970  116.7290  100.4220 C.3   148  SER148      0.1889
     58  C        215.9710  117.8040  101.3800 C.2   148  SER148      0.2288
     59  O        215.1770  117.5310  102.2950 O.2   148  SER148     -0.2866
     60  CB       217.5900  115.9620  101.0030 C.3   148  SER148      0.2089
     61  OG       218.5730  116.8520  101.5190 O.3   148  SER148     -0.2183
     62  N        212.0560  118.3060  101.0620 N.3   151  VAL151     -0.1231
     63  CA       211.4590  117.0630  101.5440 C.3   151  VAL151      0.1692
     64  C        211.4430  117.0440  103.0660 C.2   151  VAL151      0.2591
     65  O        210.4620  116.6410  103.6930 O.2   151  VAL151     -0.2718
     66  CB       212.2280  115.8370  101.0240 C.3   151  VAL151      0.0266
     67  CG1      211.6560  114.5490  101.6050 C.3   151  VAL151      0.0020
     68  CG2      212.1940  115.8080   99.5160 C.3   151  VAL151      0.0020
     69  N        212.5430  117.5020  103.6500 N.am  152  ALA152     -0.1980
     70  CA       212.6590  117.5950  105.0950 C.3   152  ALA152      0.1597
     71  C        211.6280  118.5550  105.6540 C.2   152  ALA152      0.2287
     72  O        211.0140  118.2760  106.6860 O.2   152  ALA152     -0.2864
     73  CB       214.0510  118.0310  105.4900 C.3   152  ALA152      0.0319
     74  N        208.1970  116.8840  105.4730 N.3   155  THR155     -0.1218
     75  CA       208.1620  115.8080  106.4560 C.3   155  THR155      0.1862
     76  C        207.9870  116.3820  107.8560 C.2   155  THR155      0.2287
     77  O        207.3050  115.8010  108.7030 O.2   155  THR155     -0.2866
     78  CB       209.4430  114.9660  106.4050 C.3   155  THR155      0.1770
     79  OG1      209.7180  114.6060  105.0450 O.3   155  THR155     -0.2211
     80  CG2      209.2940  113.7080  107.2410 C.3   155  THR155      0.0375
     81  N        204.4150  115.2000  109.2310 N.3   159  LEU159     -0.1231
     82  CA       204.6070  113.9360  109.9380 C.3   159  LEU159      0.1693
     83  C        205.2240  114.0950  111.3240 C.2   159  LEU159      0.2591
     84  O        204.6490  113.6480  112.3150 O.2   159  LEU159     -0.2718
     85  CB       205.4700  112.9890  109.1020 C.3   159  LEU159      0.0284
     86  CG       205.6050  111.5600  109.6360 C.3   159  LEU159      0.0019
     87  CD1      204.2380  110.9500  109.9040 C.3   159  LEU159      0.0001
     88  CD2      206.3870  110.7030  108.6610 C.3   159  LEU159      0.0001
     89  N        206.3910  114.7270  111.3920 N.am  160  ILE160     -0.1980
     90  CA       207.1220  114.8240  112.6500 C.3   160  ILE160      0.1595
     91  C        206.3610  115.6180  113.7060 C.2   160  ILE160      0.2287
     92  O        206.2460  115.1820  114.8510 O.2   160  ILE160     -0.2864
     93  CB       208.5010  115.4660  112.4620 C.3   160  ILE160      0.0276
     94  CG1      209.2900  114.7290  111.3790 C.3   160  ILE160      0.0022
     95  CG2      209.2630  115.4450  113.7770 C.3   160  ILE160      0.0022
     96  CD1      209.5600  113.2760  111.7030 C.3   160  ILE160      0.0001
     97  N        203.6710  113.7720  115.2090 N.3   163  ILE163     -0.1245
     98  CA       204.2260  112.7430  116.0820 C.3   163  ILE163      0.1561
     99  C        204.5720  113.3170  117.4560 C.2   163  ILE163      0.2260
    100  O        204.2140  112.7480  118.4860 O.2   163  ILE163     -0.2867
    101  CB       205.4750  112.0950  115.4580 C.3   163  ILE163      0.0252
    102  CG1      205.0800  111.2270  114.2620 C.3   163  ILE163      0.0019
    103  CG2      206.2110  111.2480  116.4830 C.3   163  ILE163      0.0019
    104  CD1      206.2560  110.7790  113.4180 C.3   163  ILE163      0.0001
    105  N        197.6290  113.9060  114.2480 N.3   168  PHE168     -0.1241
    106  CA       197.7040  114.4370  112.8870 C.3   168  PHE168      0.1605
    107  C        196.8630  115.7010  112.7170 C.2   168  PHE168      0.2264
    108  O        196.9830  116.4010  111.7160 O.2   168  PHE168     -0.2867
    109  CB       197.2590  113.3840  111.8690 C.3   168  PHE168      0.0534
    110  CG       198.3290  112.3950  111.5130 C.ar  168  PHE168     -0.0203
    111  CD1      199.4130  112.7800  110.7380 C.ar  168  PHE168     -0.0042
    112  CD2      198.2460  111.0790  111.9410 C.ar  168  PHE168     -0.0042
    113  CE1      200.4000  111.8740  110.4050 C.ar  168  PHE168     -0.0003
    114  CE2      199.2260  110.1660  111.6060 C.ar  168  PHE168     -0.0003
    115  CZ       200.3080  110.5650  110.8370 C.ar  168  PHE168     -0.0000
@<TRIPOS>BOND
     1    51    50    2
     2    50    49    1
     3    48    49    1
     4    49    52    1
     5    52    53    1
     6    46    45    2
     7    53    54    1
     8    45    44    1
     9    38    37    2
    10    43    44    1
    11    37    36    1
    12    56    57    1
    13    44    47    1
    14    68    66    1
    15    54    55    1
    16    39    36    1
    17    39    40    1
    18    36    35    1
    19    57    60    1
    20    57    58    1
    21    30    29    2
    22    60    61    1
    23    35    29   am
    24    66    63    1
    25    66    67    1
    26    62    63    1
    27    29    28    1
    28    27    28    1
    29    58    59    2
    30    41    40    1
    31    40    42    1
    32    63    64    1
    33    28    31    1
    34    22    21    2
    35    21    20    1
    36    64    69   am
    37    64    65    2
    38    31    32    1
    39    69    70    1
    40    34    32    1
    41    20    19    1
    42    20    23    1
    43    32    33    1
    44    23    24    1
    45    79    78    1
    46    70    73    1
    47    70    71    1
    48    74    75    1
    49    71    72    2
    50    24    25    1
    51    24    26    1
    52    78    75    1
    53    78    80    1
    54    75    76    1
    55    76    77    2
    56    88    86    1
    57    85    86    1
    58    85    82    1
    59    81    82    1
    60    86    87    1
    61    82    83    1
    62   113   111   ar
    63   113   115   ar
    64   111   110   ar
    65   115   114   ar
    66    83    89   am
    67    83    84    2
    68    94    96    1
    69    94    93    1
    70    89    90    1
    71   110   109    1
    72   110   112   ar
    73   114   112   ar
    74   108   107    2
    75   109   106    1
    76    93    90    1
    77    93    95    1
    78    90    91    1
    79   107   106    1
    80    12    11    2
    81   106   105    1
    82   104   102    1
    83    11    10    1
    84    91    92    2
    85   102   101    1
    86     4     3    2
    87    10     9    1
    88    10    13    1
    89     3     9   am
    90     3     2    1
    91    97    98    1
    92     8     6    1
    93   101    98    1
    94   101   103    1
    95    13    14    1
    96     2     5    1
    97     2     1    1
    98    98    99    1
    99     5     6    1
   100     6     7    1
   101    14    15   ar
   102    14    16   ar
   103    99   100    2
   104    15    17   ar
   105    16    18   ar
   106    17    18   ar
