@<TRIPOS>MOLECULE
tmp/4yuuA14.pdb
 86 85 0 0 0
SMALL
GASTEIGER

@<TRIPOS>ATOM
      1  N        209.6160  132.5740  115.8530 N.3   193  LEU193     -0.1245
      2  CA       210.3650  133.7460  115.4100 C.3   193  LEU193      0.1561
      3  C        211.6230  133.9470  116.2500 C.2   193  LEU193      0.2260
      4  O        212.6490  134.3910  115.7450 O.2   193  LEU193     -0.2867
      5  CB       209.4930  135.0000  115.4670 C.3   193  LEU193      0.0270
      6  CG       208.3200  135.0780  114.4870 C.3   193  LEU193      0.0019
      7  CD1      207.5250  136.3550  114.7170 C.3   193  LEU193      0.0001
      8  CD2      208.8020  134.9960  113.0430 C.3   193  LEU193      0.0001
      9  N        214.9380  129.0920  112.8380 N.3   198  HIS198     -0.1226
     10  CA       214.0110  129.7550  111.9400 C.3   198  HIS198      0.1752
     11  C        214.6460  131.0110  111.3690 C.2   198  HIS198      0.2595
     12  O        214.4120  131.3700  110.2150 O.2   198  HIS198     -0.2718
     13  CB       212.7060  130.1070  112.6390 C.3   198  HIS198      0.0759
     14  CG       211.7420  130.8190  111.7480 C.ar  198  HIS198      0.0818
     15  ND1      211.6910  132.1910  111.6550 N.ar  198  HIS198     -0.2268
     16  CD2      210.8270  130.3450  110.8720 C.ar  198  HIS198      0.1154
     17  CE1      210.7660  132.5370  110.7730 C.ar  198  HIS198      0.1986
     18  NE2      210.2310  131.4330  110.2870 N.ar  198  HIS198     -0.2212
     19  N        215.4440  131.6800  112.1920 N.am  199  MET199     -0.1979
     20  CA       216.2150  132.8280  111.7420 C.3   199  MET199      0.1605
     21  C        217.1770  132.3820  110.6500 C.2   199  MET199      0.2287
     22  O        217.3930  133.0860  109.6620 O.2   199  MET199     -0.2864
     23  CB       216.9760  133.4560  112.9100 C.3   199  MET199      0.0413
     24  CG       216.1020  133.8130  114.1070 C.3   199  MET199      0.0598
     25  SD       217.0640  134.3250  115.5410 S.3   199  MET199     -0.1393
     26  CE       215.7750  134.6510  116.7340 C.3   199  MET199      0.0692
     27  N        215.1700  131.9690  107.4780 N.3   202  VAL202     -0.1231
     28  CA       214.9340  133.2740  106.8770 C.3   202  VAL202      0.1692
     29  C        216.1950  133.7660  106.1740 C.2   202  VAL202      0.2591
     30  O        216.1250  134.3610  105.1030 O.2   202  VAL202     -0.2718
     31  CB       214.4840  134.3100  107.9250 C.3   202  VAL202      0.0266
     32  CG1      214.3780  135.6950  107.3010 C.3   202  VAL202      0.0020
     33  CG2      213.1540  133.8950  108.5370 C.3   202  VAL202      0.0020
     34  N        217.3490  133.5060  106.7790 N.am  203  ALA203     -0.1980
     35  CA       218.6220  133.8330  106.1520 C.3   203  ALA203      0.1597
     36  C        218.7980  133.0350  104.8680 C.2   203  ALA203      0.2287
     37  O        219.3600  133.5240  103.8870 O.2   203  ALA203     -0.2864
     38  CB       219.7690  133.5700  107.1040 C.3   203  ALA203      0.0319
     39  N        215.9040  134.5940  102.2390 N.3   206  PHE206     -0.1227
     40  CA       216.2450  135.9730  101.9050 C.3   206  PHE206      0.1736
     41  C        217.5700  135.9880  101.1650 C.2   206  PHE206      0.2596
     42  O        217.7040  136.6300  100.1250 O.2   206  PHE206     -0.2718
     43  CB       216.3380  136.8500  103.1570 C.3   206  PHE206      0.0547
     44  CG       215.0170  137.3850  103.6370 C.ar  206  PHE206     -0.0202
     45  CD1      213.8440  137.1090  102.9530 C.ar  206  PHE206     -0.0042
     46  CD2      214.9530  138.1800  104.7720 C.ar  206  PHE206     -0.0042
     47  CE1      212.6290  137.6050  103.3990 C.ar  206  PHE206     -0.0003
     48  CE2      213.7420  138.6810  105.2180 C.ar  206  PHE206     -0.0003
     49  CZ       212.5810  138.3920  104.5310 C.ar  206  PHE206     -0.0000
     50  N        218.5450  135.2730  101.7180 N.am  207  GLY207     -0.1957
     51  CA       219.8580  135.1660  101.1150 C.3   207  GLY207      0.1869
     52  C        219.8010  134.4500   99.7840 C.2   207  GLY207      0.2309
     53  O        220.4900  134.8270   98.8440 O.2   207  GLY207     -0.2863
     54  N        218.4360  136.8120   97.3210 N.3   210  LEU210     -0.1231
     55  CA       219.4570  137.8340   97.1190 C.3   210  LEU210      0.1693
     56  C        220.4940  137.3520   96.1200 C.2   210  LEU210      0.2592
     57  O        220.8040  138.0450   95.1570 O.2   210  LEU210     -0.2718
     58  CB       220.1320  138.2030   98.4460 C.3   210  LEU210      0.0284
     59  CG       220.9570  139.4950   98.5570 C.3   210  LEU210      0.0019
     60  CD1      221.2090  139.8390  100.0180 C.3   210  LEU210      0.0001
     61  CD2      222.2860  139.4290   97.8150 C.3   210  LEU210      0.0001
     62  N        221.0270  136.1610   96.3610 N.am  211  PHE211     -0.1976
     63  CA       222.0890  135.6090   95.5330 C.3   211  PHE211      0.1639
     64  C        221.5660  135.2150   94.1550 C.2   211  PHE211      0.2290
     65  O        222.2990  135.2570   93.1700 O.2   211  PHE211     -0.2864
     66  CB       222.7300  134.4080   96.2310 C.3   211  PHE211      0.0560
     67  CG       223.3350  134.7380   97.5680 C.ar  211  PHE211     -0.0200
     68  CD1      223.8940  135.9840   97.8000 C.ar  211  PHE211     -0.0042
     69  CD2      223.3360  133.8080   98.5950 C.ar  211  PHE211     -0.0042
     70  CE1      224.4470  136.2950   99.0290 C.ar  211  PHE211     -0.0003
     71  CE2      223.8860  134.1160   99.8320 C.ar  211  PHE211     -0.0003
     72  CZ       224.4440  135.3600  100.0460 C.ar  211  PHE211     -0.0000
     73  N        223.9690  127.6750  100.3910 N.3   278  TRP278     -0.1241
     74  CA       223.3510  128.6100  101.3310 C.3   278  TRP278      0.1605
     75  C        221.8590  128.2970  101.6300 C.2   278  TRP278      0.2264
     76  O        221.4990  128.0270  102.7950 O.2   278  TRP278     -0.2867
     77  CB       223.5160  130.0430  100.8130 C.3   278  TRP278      0.0550
     78  CG       223.0410  131.0980  101.7480 C.ar  278  TRP278      0.0003
     79  CD1      221.7840  131.6180  101.8270 C.ar  278  TRP278      0.0946
     80  CD2      223.8270  131.7910  102.7240 C.ar  278  TRP278      0.0152
     81  NE1      221.7360  132.5850  102.8010 N.ar  278  TRP278     -0.2442
     82  CE2      222.9730  132.7100  103.3650 C.ar  278  TRP278      0.0810
     83  CE3      225.1640  131.7170  103.1200 C.ar  278  TRP278      0.0012
     84  CZ2      223.4190  133.5490  104.3850 C.ar  278  TRP278      0.0191
     85  CZ3      225.6020  132.5530  104.1310 C.ar  278  TRP278      0.0001
     86  CH2      224.7330  133.4560  104.7520 C.ar  278  TRP278      0.0015
@<TRIPOS>BOND
     1    65    64    2
     2    64    63    1
     3    57    56    2
     4    63    66    1
     5    63    62    1
     6    56    62   am
     7    56    55    1
     8    66    67    1
     9    55    54    1
    10    55    58    1
    11    67    68   ar
    12    67    69   ar
    13    68    70   ar
    14    61    59    1
    15    58    59    1
    16    59    60    1
    17    69    71   ar
    18    53    52    2
    19    70    72   ar
    20    52    51    1
    21    71    72   ar
    22    42    41    2
    23    73    74    1
    24    77    74    1
    25    77    78    1
    26    51    50    1
    27    41    50   am
    28    41    40    1
    29    74    75    1
    30    75    76    2
    31    78    79   ar
    32    78    80   ar
    33    79    81   ar
    34    40    39    1
    35    40    43    1
    36    80    83   ar
    37    80    82   ar
    38    81    82   ar
    39    45    47   ar
    40    45    44   ar
    41    83    85   ar
    42    43    44    1
    43    82    84   ar
    44    47    49   ar
    45    44    46   ar
    46    37    36    2
    47    85    86   ar
    48    84    86   ar
    49    49    48   ar
    50    46    48   ar
    51    36    35    1
    52    30    29    2
    53    35    34    1
    54    35    38    1
    55    29    34   am
    56    29    28    1
    57    28    27    1
    58    28    31    1
    59    32    31    1
    60    31    33    1
    61    22    21    2
    62    12    11    2
    63    18    17   ar
    64    18    16   ar
    65    21    20    1
    66    17    15   ar
    67    16    14   ar
    68    11    10    1
    69    11    19   am
    70    15    14   ar
    71    20    19    1
    72    20    23    1
    73    14    13    1
    74    10    13    1
    75    10     9    1
    76    23    24    1
    77     8     6    1
    78    24    25    1
    79     6     7    1
    80     6     5    1
    81     2     5    1
    82     2     1    1
    83     2     3    1
    84    25    26    1
    85     4     3    2
