@<TRIPOS>MOLECULE
tmp/4yuuA13.pdb
 199 190 0 0 0
SMALL
GASTEIGER

@<TRIPOS>ATOM
      1  N        201.8430  111.1630   99.8770 N.3   119  PHE119     -0.1241
      2  CA       202.6450  112.2660   99.3740 C.3   119  PHE119      0.1605
      3  C        204.0720  112.1910   99.8870 C.2   119  PHE119      0.2264
      4  O        205.0140  112.3440   99.1150 O.2   119  PHE119     -0.2867
      5  CB       202.0230  113.6070   99.7600 C.3   119  PHE119      0.0534
      6  CG       202.9200  114.7810   99.5160 C.ar  119  PHE119     -0.0203
      7  CD1      203.0870  115.2860   98.2390 C.ar  119  PHE119     -0.0042
      8  CD2      203.5910  115.3860  100.5640 C.ar  119  PHE119     -0.0042
      9  CE1      203.9110  116.3700   98.0110 C.ar  119  PHE119     -0.0003
     10  CE2      204.4150  116.4710  100.3420 C.ar  119  PHE119     -0.0003
     11  CZ       204.5750  116.9630   99.0650 C.ar  119  PHE119     -0.0000
     12  N        207.2780  111.5670   97.5000 N.3   123  VAL123     -0.1245
     13  CA       208.2550  112.6460   97.4190 C.3   123  VAL123      0.1561
     14  C        209.6470  112.1520   97.8320 C.2   123  VAL123      0.2260
     15  O        210.6620  112.5520   97.2460 O.2   123  VAL123     -0.2867
     16  CB       207.8060  113.8520   98.2830 C.3   123  VAL123      0.0252
     17  CG1      208.9700  114.4810   99.0150 C.3   123  VAL123      0.0019
     18  CG2      207.0980  114.8780   97.4150 C.3   123  VAL123      0.0019
     19  N        217.5100  118.7380   96.9870 N.3   147  PHE147     -0.1241
     20  CA       216.0730  118.5050   97.0710 C.3   147  PHE147      0.1605
     21  C        215.7000  117.8780   98.4100 C.2   147  PHE147      0.2264
     22  O        214.5230  117.8670   98.7870 O.2   147  PHE147     -0.2867
     23  CB       215.5960  117.6200   95.9160 C.3   147  PHE147      0.0534
     24  CG       214.1280  117.2920   95.9660 C.ar  147  PHE147     -0.0203
     25  CD1      213.1820  118.3000   95.9240 C.ar  147  PHE147     -0.0042
     26  CD2      213.6970  115.9780   96.0690 C.ar  147  PHE147     -0.0042
     27  CE1      211.8370  118.0120   95.9810 C.ar  147  PHE147     -0.0003
     28  CE2      212.3500  115.6830   96.1210 C.ar  147  PHE147     -0.0003
     29  CZ       211.4180  116.7020   96.0790 C.ar  147  PHE147     -0.0000
     30  N        213.8150  120.5600  100.8870 N.3   150  PRO150     -0.2102
     31  CA       212.3510  120.7190  100.8880 C.3   150  PRO150      0.1504
     32  C        211.5720  119.5000  101.3920 C.2   150  PRO150      0.2575
     33  O        210.5380  119.6600  102.0580 O.2   150  PRO150     -0.2718
     34  CB       212.0330  120.9680   99.4160 C.3   150  PRO150      0.0282
     35  CG       213.2650  121.5730   98.8710 C.3   150  PRO150      0.0208
     36  CD       214.3800  120.8570   99.5530 C.3   150  PRO150      0.0893
     37  N        212.0560  118.3060  101.0620 N.am  151  VAL151     -0.1980
     38  CA       211.4590  117.0630  101.5440 C.3   151  VAL151      0.1595
     39  C        211.4430  117.0440  103.0660 C.2   151  VAL151      0.2287
     40  O        210.4620  116.6410  103.6930 O.2   151  VAL151     -0.2864
     41  CB       212.2280  115.8370  101.0240 C.3   151  VAL151      0.0276
     42  CG1      211.6560  114.5490  101.6050 C.3   151  VAL151      0.0022
     43  CG2      212.1940  115.8080   99.5160 C.3   151  VAL151      0.0022
     44  N        211.4400  119.6870  104.9850 N.3   153  ALA153     -0.1231
     45  CA       210.4140  120.6280  105.4380 C.3   153  ALA153      0.1694
     46  C        209.0050  119.9990  105.4350 C.2   153  ALA153      0.2591
     47  O        208.2620  120.0500  106.4430 O.2   153  ALA153     -0.2718
     48  CB       210.4400  121.8730  104.5860 C.3   153  ALA153      0.0304
     49  N        208.6510  119.3910  104.3050 N.am  154  ALA154     -0.1980
     50  CA       207.3490  118.7450  104.1700 C.3   154  ALA154      0.1597
     51  C        207.1480  117.6670  105.2400 C.2   154  ALA154      0.2287
     52  O        206.0710  117.5500  105.8370 O.2   154  ALA154     -0.2864
     53  CB       207.1980  118.1490  102.7900 C.3   154  ALA154      0.0319
     54  N        206.4220  119.3030  108.6760 N.3   157  VAL157     -0.1245
     55  CA       205.0870  119.8310  108.9650 C.3   157  VAL157      0.1561
     56  C        203.9560  118.8180  108.7640 C.2   157  VAL157      0.2260
     57  O        202.8430  119.0380  109.2420 O.2   157  VAL157     -0.2867
     58  CB       204.7750  121.0860  108.1270 C.3   157  VAL157      0.0252
     59  CG1      205.7810  122.1910  108.4360 C.3   157  VAL157      0.0019
     60  CG2      204.7630  120.7560  106.6370 C.3   157  VAL157      0.0019
     61  N        200.0850  120.3480  109.2830 N.3   172  MET172     -0.1245
     62  CA       199.7150  121.5240  108.5050 C.3   172  MET172      0.1570
     63  C        198.5740  121.1950  107.5530 C.2   172  MET172      0.2261
     64  O        198.6430  120.2170  106.8090 O.2   172  MET172     -0.2867
     65  CB       200.9120  122.0700  107.7200 C.3   172  MET172      0.0387
     66  CG       200.6850  123.4840  107.2040 C.3   172  MET172      0.0595
     67  SD       201.9430  124.1030  106.0690 S.3   172  MET172     -0.1393
     68  CE       201.6880  123.0310  104.6600 C.3   172  MET172      0.0692
     69  N        198.1380  127.3230  110.8240 N.3   182  PHE182     -0.1227
     70  CA       199.2610  126.5280  111.3060 C.3   182  PHE182      0.1736
     71  C        200.4040  127.4190  111.7840 C.2   182  PHE182      0.2595
     72  O        200.9240  127.2340  112.8890 O.2   182  PHE182     -0.2718
     73  CB       199.7390  125.5880  110.1970 C.3   182  PHE182      0.0547
     74  CG       200.8850  124.7020  110.5900 C.ar  182  PHE182     -0.0202
     75  CD1      200.6570  123.5030  111.2450 C.ar  182  PHE182     -0.0042
     76  CD2      202.1910  125.0500  110.2720 C.ar  182  PHE182     -0.0042
     77  CE1      201.7120  122.6760  111.5970 C.ar  182  PHE182     -0.0003
     78  CE2      203.2470  124.2270  110.6200 C.ar  182  PHE182     -0.0003
     79  CZ       203.0060  123.0400  111.2850 C.ar  182  PHE182     -0.0000
     80  N        200.7770  128.3940  110.9560 N.am  183  MET183     -0.1965
     81  CA       201.8630  129.3100  111.2950 C.3   183  MET183      0.1736
     82  C        201.5760  130.1010  112.5700 C.2   183  MET183      0.2616
     83  O        202.4210  130.1760  113.4670 O.2   183  MET183     -0.2715
     84  CB       202.1320  130.2770  110.1400 C.3   183  MET183      0.0427
     85  CG       202.4370  129.5820  108.8280 C.3   183  MET183      0.0599
     86  SD       202.8270  130.6930  107.4710 S.3   183  MET183     -0.1393
     87  CE       204.5290  131.1150  107.8450 C.3   183  MET183      0.0692
     88  N        200.3850  130.6860  112.6480 N.am  184  LEU184     -0.1977
     89  CA       200.0210  131.5200  113.7910 C.3   184  LEU184      0.1596
     90  C        200.0190  130.7240  115.0940 C.2   184  LEU184      0.2287
     91  O        200.6360  131.1370  116.0870 O.2   184  LEU184     -0.2864
     92  CB       198.6550  132.1660  113.5630 C.3   184  LEU184      0.0297
     93  CG       198.6310  133.2530  112.4830 C.3   184  LEU184      0.0022
     94  CD1      197.2190  133.7640  112.2550 C.3   184  LEU184      0.0001
     95  CD2      199.5620  134.3980  112.8570 C.3   184  LEU184      0.0001
     96  N        201.5000  127.9200  115.6830 N.3   186  PHE186     -0.1227
     97  CA       202.8860  127.5300  115.9120 C.3   186  PHE186      0.1736
     98  C        203.6630  128.6390  116.6150 C.2   186  PHE186      0.2595
     99  O        204.4290  128.3770  117.5410 O.2   186  PHE186     -0.2718
    100  CB       203.5730  127.1670  114.5910 C.3   186  PHE186      0.0547
    101  CG       204.7320  126.2290  114.7530 C.ar  186  PHE186     -0.0202
    102  CD1      205.9790  126.7040  115.1290 C.ar  186  PHE186     -0.0042
    103  CD2      204.5710  124.8710  114.5450 C.ar  186  PHE186     -0.0042
    104  CE1      207.0430  125.8410  115.2850 C.ar  186  PHE186     -0.0003
    105  CE2      205.6290  124.0040  114.7010 C.ar  186  PHE186     -0.0003
    106  CZ       206.8680  124.4880  115.0710 C.ar  186  PHE186     -0.0000
    107  N        203.4610  129.8770  116.1690 N.am  187  GLN187     -0.1979
    108  CA       204.1090  131.0270  116.7930 C.3   187  GLN187      0.1601
    109  C        203.6550  131.1890  118.2360 C.2   187  GLN187      0.2287
    110  O        204.4580  131.4920  119.1180 O.2   187  GLN187     -0.2864
    111  CB       203.8210  132.3080  116.0110 C.3   187  GLN187      0.0394
    112  CG       204.2310  133.5900  116.7290 C.3   187  GLN187      0.0908
    113  CD       205.7280  133.6750  116.9900 C.2   187  GLN187      0.2608
    114  OE1      206.5270  133.0000  116.3410 O.2   187  GLN187     -0.2717
    115  NE2      206.1130  134.5130  117.9460 N.am  187  GLN187     -0.0878
    116  N        208.3800  130.6150  117.3820 N.3   192  ILE192     -0.1231
    117  CA       209.3120  130.2010  116.3400 C.3   192  ILE192      0.1692
    118  C        210.1580  131.3610  115.8080 C.2   192  ILE192      0.2591
    119  O        211.2950  131.1590  115.3810 O.2   192  ILE192     -0.2718
    120  CB       208.5520  129.5210  115.1670 C.3   192  ILE192      0.0266
    121  CG1      209.5140  129.0940  114.0560 C.3   192  ILE192      0.0019
    122  CG2      207.4620  130.4290  114.6280 C.3   192  ILE192      0.0020
    123  CD1      208.8460  128.3570  112.9280 C.3   192  ILE192      0.0001
    124  N        209.6160  132.5740  115.8530 N.am  193  LEU193     -0.1980
    125  CA       210.3650  133.7460  115.4100 C.3   193  LEU193      0.1596
    126  C        211.6230  133.9470  116.2500 C.2   193  LEU193      0.2287
    127  O        212.6490  134.3910  115.7450 O.2   193  LEU193     -0.2864
    128  CB       209.4930  135.0000  115.4670 C.3   193  LEU193      0.0297
    129  CG       208.3200  135.0780  114.4870 C.3   193  LEU193      0.0022
    130  CD1      207.5250  136.3550  114.7170 C.3   193  LEU193      0.0001
    131  CD2      208.8020  134.9960  113.0430 C.3   193  LEU193      0.0001
    132  N        214.9380  129.0920  112.8380 N.3   198  HIS198     -0.1241
    133  CA       214.0110  129.7550  111.9400 C.3   198  HIS198      0.1621
    134  C        214.6460  131.0110  111.3690 C.2   198  HIS198      0.2264
    135  O        214.4120  131.3700  110.2150 O.2   198  HIS198     -0.2867
    136  CB       212.7060  130.1070  112.6390 C.3   198  HIS198      0.0745
    137  CG       211.7420  130.8190  111.7480 C.ar  198  HIS198      0.0817
    138  ND1      211.6910  132.1910  111.6550 N.ar  198  HIS198     -0.2268
    139  CD2      210.8270  130.3450  110.8720 C.ar  198  HIS198      0.1154
    140  CE1      210.7660  132.5370  110.7730 C.ar  198  HIS198      0.1986
    141  NE2      210.2310  131.4330  110.2870 N.ar  198  HIS198     -0.2212
    142  N        216.6560  129.8790  108.6730 N.3   201  GLY201     -0.1210
    143  CA       215.8190  129.6410  107.5080 C.3   201  GLY201      0.1956
    144  C        215.5220  130.9180  106.7440 C.2   201  GLY201      0.2611
    145  O        215.6070  130.9550  105.5160 O.2   201  GLY201     -0.2717
    146  N        215.1700  131.9690  107.4780 N.am  202  VAL202     -0.1979
    147  CA       214.9340  133.2740  106.8770 C.3   202  VAL202      0.1595
    148  C        216.1950  133.7660  106.1740 C.2   202  VAL202      0.2287
    149  O        216.1250  134.3610  105.1030 O.2   202  VAL202     -0.2864
    150  CB       214.4840  134.3100  107.9250 C.3   202  VAL202      0.0276
    151  CG1      214.3780  135.6950  107.3010 C.3   202  VAL202      0.0022
    152  CG2      213.1540  133.8950  108.5370 C.3   202  VAL202      0.0022
    153  N        216.3400  131.8470  102.8280 N.3   205  VAL205     -0.1231
    154  CA       215.4390  132.2410  101.7500 C.3   205  VAL205      0.1692
    155  C        215.6800  133.6840  101.2930 C.2   205  VAL205      0.2592
    156  O        215.6760  133.9640  100.0950 O.2   205  VAL205     -0.2718
    157  CB       213.9530  132.0500  102.1580 C.3   205  VAL205      0.0266
    158  CG1      213.6550  130.5700  102.3380 C.3   205  VAL205      0.0020
    159  CG2      213.6210  132.8150  103.4300 C.3   205  VAL205      0.0020
    160  N        215.9040  134.5940  102.2390 N.am  206  PHE206     -0.1976
    161  CA       216.2450  135.9730  101.9050 C.3   206  PHE206      0.1639
    162  C        217.5700  135.9880  101.1650 C.2   206  PHE206      0.2290
    163  O        217.7040  136.6300  100.1250 O.2   206  PHE206     -0.2864
    164  CB       216.3380  136.8500  103.1570 C.3   206  PHE206      0.0560
    165  CG       215.0170  137.3850  103.6370 C.ar  206  PHE206     -0.0200
    166  CD1      213.8440  137.1090  102.9530 C.ar  206  PHE206     -0.0042
    167  CD2      214.9530  138.1800  104.7720 C.ar  206  PHE206     -0.0042
    168  CE1      212.6290  137.6050  103.3990 C.ar  206  PHE206     -0.0003
    169  CE2      213.7420  138.6810  105.2180 C.ar  206  PHE206     -0.0003
    170  CZ       212.5810  138.3920  104.5310 C.ar  206  PHE206     -0.0000
    171  N        217.2940  125.9540  104.8550 N.3   283  ILE283     -0.1245
    172  CA       216.0780  125.1570  104.8940 C.3   283  ILE283      0.1561
    173  C        216.2610  123.9090  105.7540 C.2   283  ILE283      0.2260
    174  O        215.3480  123.5240  106.4840 O.2   283  ILE283     -0.2867
    175  CB       215.6270  124.7560  103.4680 C.3   283  ILE283      0.0252
    176  CG1      215.2550  126.0040  102.6660 C.3   283  ILE283      0.0019
    177  CG2      214.4500  123.7940  103.5160 C.3   283  ILE283      0.0019
    178  CD1      214.1950  126.8570  103.3240 C.3   283  ILE283      0.0001
    179  N        215.8760  125.0890  109.2930 N.3   286  THR286     -0.1203
    180  CA       214.4820  125.4120  109.6260 C.3   286  THR286      0.1994
    181  C        213.6230  124.1590  109.7870 C.2   286  THR286      0.2618
    182  O        212.7490  124.1020  110.6570 O.2   286  THR286     -0.2717
    183  CB       213.8240  126.3120  108.5720 C.3   286  THR286      0.1784
    184  OG1      214.7680  126.6240  107.5400 O.3   286  THR286     -0.2211
    185  CG2      213.3340  127.5960  109.2100 C.3   286  THR286      0.0376
    186  N        213.8640  123.1660  108.9350 N.am  287  SER287     -0.1951
    187  CA       213.1510  121.8950  109.0220 C.3   287  SER287      0.1924
    188  C        213.4210  121.2330  110.3660 C.2   287  SER287      0.2314
    189  O        212.4910  120.7700  111.0600 O.2   287  SER287     -0.2863
    190  CB       213.5590  120.9670  107.8740 C.3   287  SER287      0.2116
    191  OG       213.3170  121.5560  106.6230 O.3   287  SER287     -0.2180
    192  N        211.5000  123.0310  113.0430 N.3   290  ILE290     -0.1245
    193  CA       210.1020  122.6350  113.1020 C.3   290  ILE290      0.1561
    194  C        209.9330  121.2950  113.8080 C.2   290  ILE290      0.2260
    195  O        209.0060  121.1320  114.6030 O.2   290  ILE290     -0.2867
    196  CB       209.4570  122.5700  111.6900 C.3   290  ILE290      0.0252
    197  CG1      209.4570  123.9580  111.0430 C.3   290  ILE290      0.0019
    198  CG2      208.0250  122.0560  111.7850 C.3   290  ILE290      0.0019
    199  CD1      208.6530  124.9670  111.8000 C.3   290  ILE290      0.0001
@<TRIPOS>BOND
     1    23    24    1
     2    23    20    1
     3    25    24   ar
     4    25    27   ar
     5    24    26   ar
     6    27    29   ar
     7    26    28   ar
     8    29    28   ar
     9    19    20    1
    10    20    21    1
    11    15    14    2
    12    18    16    1
    13    13    12    1
    14    13    14    1
    15    13    16    1
    16     9     7   ar
    17     9    11   ar
    18     7     6   ar
    19    16    17    1
    20    21    22    2
    21    35    34    1
    22    35    36    1
    23    11    10   ar
    24     4     3    2
    25     2     5    1
    26     2     1    1
    27     2     3    1
    28    34    31    1
    29     6     5    1
    30     6     8   ar
    31    43    41    1
    32    36    30    1
    33   156   155    2
    34   163   162    2
    35    10     8   ar
    36    30    31    1
    37    31    32    1
    38    41    38    1
    39    41    42    1
    40    37    32   am
    41    37    38    1
    42   162   161    1
    43   155   154    1
    44   155   160   am
    45    32    33    2
    46    38    39    1
    47   154   157    1
    48   154   153    1
    49   161   160    1
    50   161   164    1
    51   157   158    1
    52   157   159    1
    53   176   178    1
    54   176   175    1
    55    53    50    1
    56   166   168   ar
    57   166   165   ar
    58    39    40    2
    59   164   165    1
    60   168   170   ar
    61   175   177    1
    62   175   172    1
    63   165   167   ar
    64    50    49    1
    65    50    51    1
    66    49    46   am
    67   170   169   ar
    68    48    45    1
    69    68    67    1
    70   167   169   ar
    71   171   172    1
    72   172   173    1
    73    44    45    1
    74   149   148    2
    75    51    52    2
    76    46    45    1
    77    46    47    2
    78   145   144    2
    79   173   174    2
    80    67    66    1
    81   148   147    1
    82   191   190    1
    83    60    58    1
    84   144   146   am
    85   144   143    1
    86    64    63    2
    87   147   146    1
    88   147   150    1
    89    66    65    1
    90   151   150    1
    91    86    87    1
    92    86    85    1
    93   143   142    1
    94   184   183    1
    95    63    62    1
    96    65    62    1
    97   190   187    1
    98   150   152    1
    99    58    59    1
   100    58    55    1
   101    62    61    1
   102   183   185    1
   103   183   180    1
   104    54    55    1
   105    56    55    1
   106    56    57    2
   107    85    84    1
   108   186   187    1
   109   186   181   am
   110   187   188    1
   111   179   180    1
   112   180   181    1
   113   181   182    2
   114    84    81    1
   115    73    74    1
   116    73    70    1
   117   135   134    2
   118    76    74   ar
   119    76    78   ar
   120   141   140   ar
   121   141   139   ar
   122   188   189    2
   123    74    75   ar
   124    78    79   ar
   125   140   138   ar
   126    69    70    1
   127   139   137   ar
   128    80    81    1
   129    80    71   am
   130   197   196    1
   131   197   199    1
   132    75    77   ar
   133    79    77   ar
   134    81    82    1
   135    70    71    1
   136   134   133    1
   137   138   137   ar
   138   196   198    1
   139   196   193    1
   140   137   136    1
   141    71    72    2
   142   133   136    1
   143   133   132    1
   144    94    93    1
   145    93    95    1
   146    93    92    1
   147    82    88   am
   148    82    83    2
   149    88    89    1
   150   123   121    1
   151   131   129    1
   152   192   193    1
   153   193   194    1
   154    92    89    1
   155    89    90    1
   156   194   195    2
   157   121   120    1
   158   129   130    1
   159   129   128    1
   160   103   105   ar
   161   103   101   ar
   162   100   101    1
   163   100    97    1
   164   122   120    1
   165   105   106   ar
   166   101   102   ar
   167   106   104   ar
   168    90    91    2
   169   102   104   ar
   170   120   117    1
   171   119   118    2
   172   125   128    1
   173   125   124    1
   174   125   126    1
   175    96    97    1
   176   127   126    2
   177   118   124   am
   178   118   117    1
   179    97    98    1
   180   111   112    1
   181   111   108    1
   182   107    98   am
   183   107   108    1
   184   117   116    1
   185   114   113    2
   186    98    99    2
   187   112   113    1
   188   108   109    1
   189   113   115   am
   190   109   110    2
