@<TRIPOS>MOLECULE
tmp/4yuuV28.pdb
 214 202 0 0 0
SMALL
GASTEIGER

@<TRIPOS>ATOM
      1  N        186.4320  114.0800   69.0990 N.3    25  HIS25      -0.1226
      2  CA       185.0080  114.3840   69.2130 C.3    25  HIS25       0.1752
      3  C        184.3270  113.5180   70.2760 C.2    25  HIS25       0.2596
      4  O        183.5800  114.0170   71.1270 O.2    25  HIS25      -0.2718
      5  CB       184.3120  114.1950   67.8670 C.3    25  HIS25       0.0759
      6  CG       182.8460  114.4770   67.9090 C.ar   25  HIS25       0.0818
      7  ND1      181.9060  113.4940   68.1380 N.ar   25  HIS25      -0.2268
      8  CD2      182.1560  115.6340   67.7690 C.ar   25  HIS25       0.1154
      9  CE1      180.7000  114.0340   68.1370 C.ar   25  HIS25       0.1986
     10  NE2      180.8260  115.3300   67.9090 N.ar   25  HIS25      -0.2212
     11  N        184.6070  112.2190   70.2250 N.am   26  THR26      -0.1953
     12  CA       184.0220  111.2610   71.1560 C.3    26  THR26       0.1897
     13  C        184.4210  111.5850   72.5960 C.2    26  THR26       0.2313
     14  O        183.5870  111.5600   73.5090 O.2    26  THR26      -0.2863
     15  CB       184.4470  109.8210   70.8050 C.3    26  THR26       0.1794
     16  OG1      184.1820  109.5720   69.4190 O.3    26  THR26      -0.2208
     17  CG2      183.6850  108.8150   71.6420 C.3    26  THR26       0.0378
     18  N        182.4370  114.4500   73.7900 N.3    29  VAL29      -0.1231
     19  CA       181.0450  114.1200   74.0720 C.3    29  VAL29       0.1692
     20  C        180.9030  113.3930   75.4090 C.2    29  VAL29       0.2592
     21  O        180.0820  113.7740   76.2560 O.2    29  VAL29      -0.2718
     22  CB       180.4340  113.2610   72.9510 C.3    29  VAL29       0.0266
     23  CG1      179.0440  112.7950   73.3380 C.3    29  VAL29       0.0020
     24  CG2      180.3910  114.0530   71.6540 C.3    29  VAL29       0.0020
     25  N        181.7110  112.3550   75.6040 N.am   30  SER30      -0.1952
     26  CA       181.6770  111.6050   76.8570 C.3    30  SER30       0.1924
     27  C        182.0440  112.5020   78.0400 C.2    30  SER30       0.2314
     28  O        181.4240  112.4380   79.1180 O.2    30  SER30      -0.2863
     29  CB       182.6180  110.4050   76.7870 C.3    30  SER30       0.2116
     30  OG       183.9510  110.8280   76.5750 O.3    30  SER30      -0.2180
     31  N        181.5480  115.6730   78.1810 N.3    32  TRP32      -0.1227
     32  CA       180.3630  116.4820   78.4290 C.3    32  TRP32       0.1737
     33  C        179.3470  115.7130   79.2590 C.2    32  TRP32       0.2595
     34  O        178.7290  116.2780   80.1510 O.2    32  TRP32      -0.2718
     35  CB       179.7010  116.9420   77.1290 C.3    32  TRP32       0.0564
     36  CG       178.4120  117.6610   77.4030 C.ar   32  TRP32       0.0003
     37  CD1      178.2570  118.9900   77.6610 C.ar   32  TRP32       0.0946
     38  CD2      177.1010  117.0810   77.4880 C.ar   32  TRP32       0.0152
     39  NE1      176.9320  119.2760   77.8930 N.ar   32  TRP32      -0.2442
     40  CE2      176.2020  118.1220   77.7900 C.ar   32  TRP32       0.0810
     41  CE3      176.6020  115.7850   77.3340 C.ar   32  TRP32       0.0012
     42  CZ2      174.8320  117.9070   77.9390 C.ar   32  TRP32       0.0191
     43  CZ3      175.2420  115.5740   77.4820 C.ar   32  TRP32       0.0001
     44  CH2      174.3740  116.6280   77.7880 C.ar   32  TRP32       0.0015
     45  N        179.1600  114.4330   78.9490 N.am   33  ALA33      -0.1980
     46  CA       178.2180  113.6080   79.7020 C.3    33  ALA33       0.1597
     47  C        178.5840  113.5790   81.1870 C.2    33  ALA33       0.2287
     48  O        177.7430  113.8540   82.0580 O.2    33  ALA33      -0.2864
     49  CB       178.1770  112.1980   79.1340 C.3    33  ALA33       0.0319
     50  N        176.5410  115.4400   84.2090 N.3    37  ALA37      -0.1245
     51  CA       176.0640  114.6070   85.3080 C.3    37  ALA37       0.1562
     52  C        176.5190  115.1740   86.6490 C.2    37  ALA37       0.2260
     53  O        175.7290  115.2590   87.5930 O.2    37  ALA37      -0.2867
     54  CB       176.5470  113.1760   85.1460 C.3    37  ALA37       0.0290
     55  N        168.5410  117.0230   82.8170 N.3    60  PHE60      -0.1227
     56  CA       168.4810  116.6320   81.4120 C.3    60  PHE60       0.1736
     57  C        169.1430  115.2810   81.1320 C.2    60  PHE60       0.2595
     58  O        168.6890  114.5400   80.2640 O.2    60  PHE60      -0.2718
     59  CB       169.1180  117.7140   80.5380 C.3    60  PHE60       0.0547
     60  CG       169.0810  117.4050   79.0700 C.ar   60  PHE60      -0.0202
     61  CD1      167.8770  117.1880   78.4260 C.ar   60  PHE60      -0.0042
     62  CD2      170.2510  117.3340   78.3340 C.ar   60  PHE60      -0.0042
     63  CE1      167.8390  116.8990   77.0810 C.ar   60  PHE60      -0.0003
     64  CE2      170.2180  117.0490   76.9870 C.ar   60  PHE60      -0.0003
     65  CZ       169.0120  116.8320   76.3600 C.ar   60  PHE60      -0.0000
     66  N        170.2060  114.9510   81.8590 N.am   61  VAL61      -0.1980
     67  CA       170.8450  113.6500   81.6790 C.3    61  VAL61       0.1595
     68  C        170.4500  112.6580   82.7750 C.2    61  VAL61       0.2287
     69  O        170.6030  111.4470   82.6050 O.2    61  VAL61      -0.2864
     70  CB       172.3930  113.7630   81.6360 C.3    61  VAL61       0.0276
     71  CG1      172.8370  114.5630   80.4250 C.3    61  VAL61       0.0022
     72  CG2      172.9350  114.3690   82.9170 C.3    61  VAL61       0.0022
     73  N        167.9470  109.9230   81.7810 N.3    64  PHE64      -0.1227
     74  CA       168.5200  108.9330   80.8790 C.3    64  PHE64       0.1736
     75  C        169.3330  107.8970   81.6440 C.2    64  PHE64       0.2595
     76  O        169.3860  106.7340   81.2510 O.2    64  PHE64      -0.2718
     77  CB       169.3710  109.6160   79.8090 C.3    64  PHE64       0.0547
     78  CG       168.5620  110.3920   78.8140 C.ar   64  PHE64      -0.0202
     79  CD1      168.0640  109.7780   77.6760 C.ar   64  PHE64      -0.0042
     80  CD2      168.2760  111.7300   79.0260 C.ar   64  PHE64      -0.0042
     81  CE1      167.3090  110.4870   76.7620 C.ar   64  PHE64      -0.0003
     82  CE2      167.5180  112.4440   78.1140 C.ar   64  PHE64      -0.0003
     83  CZ       167.0370  111.8220   76.9810 C.ar   64  PHE64      -0.0000
     84  N        169.9580  108.3160   82.7390 N.am   65  MET65      -0.1979
     85  CA       170.6300  107.3750   83.6280 C.3    65  MET65       0.1605
     86  C        169.5880  106.5460   84.3700 C.2    65  MET65       0.2287
     87  O        169.7790  105.3540   84.6100 O.2    65  MET65      -0.2864
     88  CB       171.5430  108.1020   84.6220 C.3    65  MET65       0.0413
     89  CG       172.8660  108.5490   84.0350 C.3    65  MET65       0.0598
     90  SD       173.8760  109.4900   85.1930 S.3    65  MET65      -0.1393
     91  CE       172.8940  110.9770   85.3620 C.3    65  MET65       0.0692
     92  N        166.5500  105.8430   83.2550 N.3    67  ARG67      -0.1231
     93  CA       165.7670  105.0380   82.3240 C.3    67  ARG67       0.1694
     94  C        166.3070  103.6210   82.1410 C.2    67  ARG67       0.2591
     95  O        165.5540  102.6990   81.8260 O.2    67  ARG67      -0.2718
     96  CB       165.6940  105.7360   80.9640 C.3    67  ARG67       0.0321
     97  CG       164.7900  105.0410   79.9590 C.3    67  ARG67       0.0489
     98  CD       164.6090  105.8660   78.6990 C.3    67  ARG67       0.2205
     99  NE       165.8150  105.9130   77.8770 N.pl3  67  ARG67      -0.0865
    100  CZ       165.8740  106.4980   76.6850 C.cat  67  ARG67       0.5346
    101  NH1      164.7970  107.0830   76.1850 N.pl3  67  ARG67       0.1354
    102  NH2      167.0050  106.4980   75.9940 N.pl3  67  ARG67       0.1354
    103  N        167.6070  103.4430   82.3440 N.am   68  LEU68      -0.1980
    104  CA       168.2330  102.1590   82.0520 C.3    68  LEU68       0.1596
    105  C        168.7760  101.4370   83.2840 C.2    68  LEU68       0.2287
    106  O        169.4010  100.3840   83.1550 O.2    68  LEU68      -0.2864
    107  CB       169.3610  102.3420   81.0310 C.3    68  LEU68       0.0297
    108  CG       168.9890  102.6690   79.5780 C.3    68  LEU68       0.0022
    109  CD1      168.6590  104.1460   79.3930 C.3    68  LEU68       0.0001
    110  CD2      170.1110  102.2520   78.6420 C.3    68  LEU68       0.0001
    111  N        170.4290  103.0660   86.3910 N.3    70  VAL70      -0.1245
    112  CA       171.1040  103.9170   87.3630 C.3    70  VAL70       0.1561
    113  C        170.1100  104.8620   88.0310 C.2    70  VAL70       0.2260
    114  O        169.7600  105.9050   87.4840 O.2    70  VAL70      -0.2867
    115  CB       172.2350  104.7340   86.7110 C.3    70  VAL70       0.0252
    116  CG1      172.9170  105.6210   87.7430 C.3    70  VAL70       0.0019
    117  CG2      173.2420  103.8050   86.0590 C.3    70  VAL70       0.0019
    118  N        178.0120  101.6380   89.8020 N.3    90  TRP90      -0.1241
    119  CA       177.1300  102.3220   88.8630 C.3    90  TRP90       0.1605
    120  C        176.0530  103.1580   89.5370 C.2    90  TRP90       0.2264
    121  O        174.8610  102.9220   89.3560 O.2    90  TRP90      -0.2867
    122  CB       176.4950  101.3080   87.9090 C.3    90  TRP90       0.0550
    123  CG       177.5220  100.5130   87.1690 C.ar   90  TRP90       0.0003
    124  CD1      177.6870   99.1660   87.1990 C.ar   90  TRP90       0.0946
    125  CD2      178.5530  101.0250   86.3120 C.ar   90  TRP90       0.0152
    126  NE1      178.7460   98.7960   86.4040 N.ar   90  TRP90      -0.2442
    127  CE2      179.2930   99.9180   85.8490 C.ar   90  TRP90       0.0810
    128  CE3      178.9110  102.3050   85.8870 C.ar   90  TRP90       0.0012
    129  CZ2      180.3770  100.0570   84.9800 C.ar   90  TRP90       0.0191
    130  CZ3      179.9880  102.4390   85.0240 C.ar   90  TRP90       0.0001
    131  CH2      180.7080  101.3220   84.5810 C.ar   90  TRP90       0.0015
    132  N        178.7850  106.7550   87.0670 N.3    95  VAL95      -0.1231
    133  CA       178.5850  106.9610   85.6350 C.3    95  VAL95       0.1692
    134  C        179.3510  108.1920   85.1570 C.2    95  VAL95       0.2591
    135  O        180.0740  108.1440   84.1490 O.2    95  VAL95      -0.2718
    136  CB       177.0890  107.1180   85.3000 C.3    95  VAL95       0.0266
    137  CG1      176.9060  107.6170   83.8780 C.3    95  VAL95       0.0020
    138  CG2      176.3590  105.8000   85.5100 C.3    95  VAL95       0.0020
    139  N        179.2080  109.2860   85.9030 N.am   96  ALA96      -0.1980
    140  CA       179.9080  110.5240   85.5790 C.3    96  ALA96       0.1597
    141  C        181.4250  110.3260   85.5200 C.2    96  ALA96       0.2287
    142  O        182.0700  110.6340   84.5050 O.2    96  ALA96      -0.2864
    143  CB       179.5600  111.6020   86.5870 C.3    96  ALA96       0.0319
    144  N        182.6570  108.1640   82.7450 N.3    99  HIS99      -0.1241
    145  CA       182.6160  108.9190   81.4970 C.3    99  HIS99       0.1621
    146  C        183.7960  109.8770   81.3710 C.2    99  HIS99       0.2264
    147  O        184.3390  110.0660   80.2780 O.2    99  HIS99      -0.2867
    148  CB       181.3030  109.6810   81.3790 C.3    99  HIS99       0.0745
    149  CG       180.2040  108.8700   80.7810 C.ar   99  HIS99       0.0817
    150  ND1      179.3960  108.0410   81.5300 N.ar   99  HIS99      -0.2268
    151  CD2      179.7900  108.7360   79.4990 C.ar   99  HIS99       0.1154
    152  CE1      178.5240  107.4440   80.7380 C.ar   99  HIS99       0.1986
    153  NE2      178.7470  107.8520   79.4990 N.ar   99  HIS99      -0.2212
    154  N        186.9300  107.7660   80.6280 N.3   102  LEU102     -0.1245
    155  CA       186.7870  107.3910   79.2280 C.3   102  LEU102      0.1561
    156  C        187.1930  108.5420   78.3140 C.2   102  LEU102      0.2260
    157  O        187.9220  108.3440   77.3390 O.2   102  LEU102     -0.2867
    158  CB       185.3500  106.9630   78.9290 C.3   102  LEU102      0.0270
    159  CG       185.0540  106.5730   77.4810 C.3   102  LEU102      0.0019
    160  CD1      185.9390  105.4190   77.0410 C.3   102  LEU102      0.0001
    161  CD2      183.5840  106.2160   77.3200 C.3   102  LEU102      0.0001
    162  N        190.2560  108.3860   75.6000 N.3   106  LEU106     -0.1245
    163  CA       189.9820  108.7020   74.1990 C.3   106  LEU106      0.1561
    164  C        190.8140  109.8980   73.7390 C.2   106  LEU106      0.2260
    165  O        191.2340  109.9670   72.5880 O.2   106  LEU106     -0.2867
    166  CB       188.4930  108.9790   73.9900 C.3   106  LEU106      0.0270
    167  CG       187.5340  107.8160   74.2530 C.3   106  LEU106      0.0019
    168  CD1      186.0970  108.3060   74.2670 C.3   106  LEU106      0.0001
    169  CD2      187.7130  106.7100   73.2270 C.3   106  LEU106      0.0001
    170  N        178.6590   96.9430   61.2830 N.3   142  LEU142     -0.1245
    171  CA       177.2770   96.4950   61.3650 C.3   142  LEU142      0.1561
    172  C        177.1830   95.2520   62.2350 C.2   142  LEU142      0.2260
    173  O        176.2200   95.0860   62.9790 O.2   142  LEU142     -0.2867
    174  CB       176.7080   96.2120   59.9750 C.3   142  LEU142      0.0270
    175  CG       175.2600   95.7250   59.9230 C.3   142  LEU142      0.0019
    176  CD1      174.3280   96.7330   60.5760 C.3   142  LEU142      0.0001
    177  CD2      174.8440   95.4560   58.4900 C.3   142  LEU142      0.0001
    178  N        177.5780   96.5680   65.8720 N.3   145  SER145     -0.1202
    179  CA       176.3680   97.2740   66.2790 C.3   145  SER145      0.2020
    180  C        175.1990   96.3240   66.5120 C.2   145  SER145      0.2619
    181  O        174.4750   96.4520   67.4960 O.2   145  SER145     -0.2717
    182  CB       175.9850   98.3180   65.2260 C.3   145  SER145      0.2103
    183  OG       175.5600   97.7610   64.0290 O.3   145  SER145     -0.2182
    184  N        175.0200   95.3730   65.6030 N.am  146  SER146     -0.1951
    185  CA       173.9050   94.4390   65.6880 C.3   146  SER146      0.1924
    186  C        174.0840   93.4780   66.8550 C.2   146  SER146      0.2314
    187  O        173.1220   93.1330   67.5380 O.2   146  SER146     -0.2863
    188  CB       173.7540   93.6620   64.3790 C.3   146  SER146      0.2116
    189  OG       173.5670   94.5450   63.2830 O.3   146  SER146     -0.2180
    190  N        173.3030   95.3320   69.8900 N.3   149  CYS149     -0.1235
    191  CA       171.8570   95.5290   69.9170 C.3   149  CYS149      0.1677
    192  C        171.1630   94.3050   70.4970 C.2   149  CYS149      0.2270
    193  O        170.3610   94.4090   71.4320 O.2   149  CYS149     -0.2867
    194  CB       171.3300   95.8130   68.5070 C.3   149  CYS149      0.0956
    195  SG       169.5490   96.1410   68.3830 S.3   149  CYS149     -0.0801
    196  N        165.7080   92.9420   65.8730 N.3   204  ALA204     -0.1245
    197  CA       166.4890   93.8030   64.9890 C.3   204  ALA204      0.1562
    198  C        167.9120   93.2890   65.0030 C.2   204  ALA204      0.2260
    199  O        168.5020   93.0190   63.9380 O.2   204  ALA204     -0.2867
    200  CB       166.4240   95.2460   65.4140 C.3   204  ALA204      0.0290
    201  N        170.0790   92.2380   61.9260 N.3   208  GLY208     -0.1225
    202  CA       171.2960   92.9800   61.6740 C.3   208  GLY208      0.1811
    203  C        172.4520   92.0220   61.4890 C.2   208  GLY208      0.2280
    204  O        173.1910   92.1120   60.5080 O.2   208  GLY208     -0.2866
    205  N        170.3520  108.9750   57.9590 N.3   243  ALA243     -0.1245
    206  CA       169.9090  108.0630   59.0080 C.3   243  ALA243      0.1562
    207  C        169.7560  108.7900   60.3440 C.2   243  ALA243      0.2260
    208  O        168.7710  108.6040   61.0710 O.2   243  ALA243     -0.2867
    209  CB       170.8830  106.9060   59.1450 C.3   243  ALA243      0.0290
    210  N        166.4150  109.3380   62.6430 N.3   247  ALA247     -0.1245
    211  CA       166.3530  108.9270   64.0430 C.3   247  ALA247      0.1562
    212  C        166.0090  110.1020   64.9630 C.2   247  ALA247      0.2260
    213  O        165.2550  109.9480   65.9300 O.2   247  ALA247     -0.2867
    214  CB       167.6690  108.2950   64.4610 C.3   247  ALA247      0.0290
@<TRIPOS>BOND
     1   205   206    1
     2   177   175    1
     3   206   209    1
     4   206   207    1
     5   175   174    1
     6   175   176    1
     7   174   171    1
     8   207   208    2
     9   204   203    2
    10   170   171    1
    11   171   172    1
    12   203   202    1
    13   202   201    1
    14   172   173    2
    15   210   211    1
    16   189   188    1
    17   199   198    2
    18   183   182    1
    19   211   214    1
    20   211   212    1
    21   188   185    1
    22   212   213    2
    23   197   198    1
    24   197   200    1
    25   197   196    1
    26   182   179    1
    27   184   185    1
    28   184   180   am
    29   185   186    1
    30   178   179    1
    31   179   180    1
    32   180   181    2
    33   186   187    2
    34     8    10   ar
    35     8     6   ar
    36     5     6    1
    37     5     2    1
    38    10     9   ar
    39     6     7   ar
    40     9     7   ar
    41   195   194    1
    42   194   191    1
    43     1     2    1
    44     2     3    1
    45    16    15    1
    46   190   191    1
    47   191   192    1
    48    11     3   am
    49    11    12    1
    50     3     4    2
    51   192   193    2
    52    15    12    1
    53    15    17    1
    54    12    13    1
    55    24    22    1
    56   165   164    2
    57    13    14    2
    58    22    23    1
    59    22    19    1
    60   169   167    1
    61   164   163    1
    62    18    19    1
    63   166   163    1
    64   166   167    1
    65    19    20    1
    66   163   162    1
    67   167   168    1
    68    20    25   am
    69    20    21    2
    70    25    26    1
    71   102   100    1
    72   101   100    1
    73    65    64   ar
    74    65    63   ar
    75    30    29    1
    76   100    99    2
    77    81    83   ar
    78    81    79   ar
    79    29    26    1
    80    26    27    1
    81    83    82   ar
    82    64    62   ar
    83   160   159    1
    84    63    61   ar
    85    35    36    1
    86    35    32    1
    87   161   159    1
    88    41    43   ar
    89    41    38   ar
    90   157   156    2
    91    36    38   ar
    92    36    37   ar
    93   159   158    1
    94    43    44   ar
    95    38    40   ar
    96    37    39   ar
    97    79    78   ar
    98    44    42   ar
    99    40    39   ar
   100    40    42   ar
   101    99    98    1
   102    27    28    2
   103    82    80   ar
   104    31    32    1
   105   156   155    1
   106    62    60   ar
   107    61    60   ar
   108    32    33    1
   109   110   108    1
   110    98    97    1
   111    78    80   ar
   112    78    77    1
   113   158   155    1
   114    45    33   am
   115    45    46    1
   116    60    59    1
   117    49    46    1
   118   155   154    1
   119    33    34    2
   120   109   108    1
   121   153   151   ar
   122   153   152   ar
   123   151   149   ar
   124   108   107    1
   125    46    47    1
   126    77    74    1
   127    97    96    1
   128    58    57    2
   129   147   146    2
   130    71    70    1
   131    59    56    1
   132   152   150   ar
   133   149   148    1
   134   149   150   ar
   135    74    75    1
   136    74    73    1
   137    96    93    1
   138   107   104    1
   139    57    56    1
   140    57    66   am
   141    47    48    2
   142    76    75    2
   143   146   145    1
   144   148   145    1
   145    56    55    1
   146   145   144    1
   147    70    67    1
   148    70    72    1
   149    75    84   am
   150    67    66    1
   151    67    68    1
   152    95    94    2
   153   104   103    1
   154   104   105    1
   155    94    93    1
   156    94   103   am
   157    93    92    1
   158    69    68    2
   159    84    85    1
   160   106   105    2
   161    85    86    1
   162    85    88    1
   163   137   136    1
   164    89    88    1
   165    89    90    1
   166   135   134    2
   167    50    51    1
   168    86    87    2
   169   142   141    2
   170   131   129   ar
   171   131   130   ar
   172   129   127   ar
   173   130   128   ar
   174    54    51    1
   175   134   133    1
   176   134   139   am
   177    90    91    1
   178   136   138    1
   179   136   133    1
   180    51    52    1
   181   141   140    1
   182   140   139    1
   183   140   143    1
   184   133   132    1
   185   127   125   ar
   186   127   126   ar
   187   128   125   ar
   188   117   115    1
   189   125   123   ar
   190   111   112    1
   191   126   124   ar
   192    52    53    2
   193   115   112    1
   194   115   116    1
   195   123   124   ar
   196   123   122    1
   197   112   113    1
   198   114   113    2
   199   122   119    1
   200   119   120    1
   201   119   118    1
   202   121   120    2
