@<TRIPOS>MOLECULE
tmp/4yuuW21.pdb
 160 159 0 0 0
SMALL
GASTEIGER

@<TRIPOS>ATOM
      1  N        160.1310  179.5790   24.5590 N.3   134  THR134     -0.1218
      2  CA       159.6620  180.6080   25.4870 C.3   134  THR134      0.1862
      3  C        158.4490  181.3510   24.9290 C.2   134  THR134      0.2287
      4  O        157.6110  181.8450   25.6880 O.2   134  THR134     -0.2866
      5  CB       160.7630  181.6320   25.8180 C.3   134  THR134      0.1770
      6  OG1      161.2830  182.1950   24.6060 O.3   134  THR134     -0.2211
      7  CG2      161.8880  180.9710   26.5910 C.3   134  THR134      0.0375
      8  N        155.4910  178.9140   25.4580 N.3   137  LEU137     -0.1245
      9  CA       155.2910  178.9840   26.9000 C.3   137  LEU137      0.1561
     10  C        154.5270  180.2460   27.2880 C.2   137  LEU137      0.2260
     11  O        153.5880  180.1930   28.0840 O.2   137  LEU137     -0.2867
     12  CB       156.6400  178.9370   27.6230 C.3   137  LEU137      0.0270
     13  CG       156.6490  179.1020   29.1450 C.3   137  LEU137      0.0019
     14  CD1      155.9280  177.9460   29.8170 C.3   137  LEU137      0.0001
     15  CD2      158.0720  179.2210   29.6580 C.3   137  LEU137      0.0001
     16  N        150.7870  180.4620   28.8340 N.3   141  LEU141     -0.1245
     17  CA       150.6990  181.1480   30.1160 C.3   141  LEU141      0.1561
     18  C        149.6000  182.2040   30.0780 C.2   141  LEU141      0.2260
     19  O        148.7970  182.3220   31.0140 O.2   141  LEU141     -0.2867
     20  CB       152.0410  181.7870   30.4810 C.3   141  LEU141      0.0270
     21  CG       153.0270  180.9020   31.2430 C.3   141  LEU141      0.0019
     22  CD1      154.3840  181.5790   31.3450 C.3   141  LEU141      0.0001
     23  CD2      152.4750  180.5880   32.6260 C.3   141  LEU141      0.0001
     24  N        146.3120  180.4820   30.3320 N.3   144  LEU144     -0.1245
     25  CA       146.0170  180.1380   31.7220 C.3   144  LEU144      0.1561
     26  C        145.5110  181.3510   32.5020 C.2   144  LEU144      0.2260
     27  O        144.5350  181.2550   33.2630 O.2   144  LEU144     -0.2867
     28  CB       147.2540  179.5500   32.4060 C.3   144  LEU144      0.0270
     29  CG       147.6970  178.1670   31.9250 C.3   144  LEU144      0.0019
     30  CD1      148.9490  177.7230   32.6610 C.3   144  LEU144      0.0001
     31  CD2      146.5790  177.1490   32.0970 C.3   144  LEU144      0.0001
     32  N        149.5200  187.7330   37.0380 N.3   219  THR219     -0.1203
     33  CA       150.8600  187.1600   37.0300 C.3   219  THR219      0.1994
     34  C        151.0960  186.3020   35.7910 C.2   219  THR219      0.2618
     35  O        152.1400  186.4110   35.1450 O.2   219  THR219     -0.2717
     36  CB       151.1190  186.3100   38.2920 C.3   219  THR219      0.1784
     37  OG1      150.9950  187.1310   39.4580 O.3   219  THR219     -0.2211
     38  CG2      152.5120  185.7100   38.2570 C.3   219  THR219      0.0376
     39  N        150.1260  185.4550   35.4570 N.am  220  CYS220     -0.1969
     40  CA       150.2520  184.5850   34.2880 C.3   220  CYS220      0.1712
     41  C        150.2560  185.3650   32.9760 C.2   220  CYS220      0.2296
     42  O        150.9960  185.0220   32.0520 O.2   220  CYS220     -0.2864
     43  CB       149.1290  183.5470   34.2640 C.3   220  CYS220      0.0983
     44  SG       149.3830  182.1510   35.3800 S.3   220  CYS220     -0.0798
     45  N        151.1280  188.6710   32.5590 N.3   222  ILE222     -0.1231
     46  CA       152.3660  189.4460   32.5310 C.3   222  ILE222      0.1692
     47  C        153.5760  188.5620   32.2410 C.2   222  ILE222      0.2592
     48  O        154.4880  188.9620   31.5190 O.2   222  ILE222     -0.2718
     49  CB       152.5960  190.1900   33.8620 C.3   222  ILE222      0.0266
     50  CG1      151.4790  191.2870   34.0020 C.3   222  ILE222      0.0019
     51  CG2      153.9700  190.8400   33.8710 C.3   222  ILE222      0.0020
     52  CD1      151.7310  192.2990   35.0560 C.3   222  ILE222      0.0001
     53  N        153.5750  187.3580   32.8050 N.am  223  GLY223     -0.1957
     54  CA       154.6450  186.4040   32.5760 C.3   223  GLY223      0.1869
     55  C        154.6390  185.8700   31.1590 C.2   223  GLY223      0.2309
     56  O        155.6950  185.6400   30.5630 O.2   223  GLY223     -0.2863
     57  N        155.9820  188.5040   29.0760 N.3   226  TRP226     -0.1227
     58  CA       157.4100  188.5440   29.3790 C.3   226  TRP226      0.1737
     59  C        158.1900  187.5080   28.5790 C.2   226  TRP226      0.2595
     60  O        159.2410  187.8110   28.0190 O.2   226  TRP226     -0.2718
     61  CB       157.6420  188.3240   30.8770 C.3   226  TRP226      0.0564
     62  CG       159.0730  188.0160   31.2430 C.ar  226  TRP226      0.0003
     63  CD1      159.6370  186.7790   31.3840 C.ar  226  TRP226      0.0946
     64  CD2      160.1130  188.9630   31.5230 C.ar  226  TRP226      0.0152
     65  NE1      160.9610  186.8980   31.7290 N.ar  226  TRP226     -0.2442
     66  CE2      161.2780  188.2280   31.8210 C.ar  226  TRP226      0.0810
     67  CE3      160.1710  190.3580   31.5480 C.ar  226  TRP226      0.0012
     68  CZ2      162.4880  188.8440   32.1390 C.ar  226  TRP226      0.0191
     69  CZ3      161.3760  190.9670   31.8660 C.ar  226  TRP226      0.0001
     70  CH2      162.5160  190.2100   32.1570 C.ar  226  TRP226      0.0015
     71  N        157.6710  186.2850   28.5220 N.am  227  HIS227     -0.1975
     72  CA       158.3750  185.2030   27.8400 C.3   227  HIS227      0.1656
     73  C        158.2170  185.2430   26.3290 C.2   227  HIS227      0.2291
     74  O        159.0720  184.7470   25.5960 O.2   227  HIS227     -0.2864
     75  CB       157.8990  183.8540   28.3660 C.3   227  HIS227      0.0771
     76  CG       158.6640  183.4030   29.5640 C.ar  227  HIS227      0.0820
     77  ND1      159.9020  183.8790   29.8780 N.ar  227  HIS227     -0.2267
     78  CD2      158.3370  182.4960   30.5370 C.ar  227  HIS227      0.1154
     79  CE1      160.3340  183.3000   30.9950 C.ar  227  HIS227      0.1986
     80  NE2      159.4020  182.4640   31.3980 N.ar  227  HIS227     -0.2212
     81  N        160.8110  188.1430   25.2290 N.3   230  THR230     -0.1203
     82  CA       162.1960  188.0880   25.7060 C.3   230  THR230      0.1994
     83  C        162.8650  186.7460   25.4090 C.2   230  THR230      0.2618
     84  O        162.2150  185.7880   24.9880 O.2   230  THR230     -0.2717
     85  CB       162.3070  188.3440   27.2300 C.3   230  THR230      0.1784
     86  OG1      161.5080  187.3890   27.9400 O.3   230  THR230     -0.2211
     87  CG2      161.8600  189.7570   27.5920 C.3   230  THR230      0.0376
     88  N        164.1730  186.6960   25.6380 N.am  231  ARG231     -0.1965
     89  CA       164.9510  185.4720   25.4930 C.3   231  ARG231      0.1714
     90  C        165.6380  185.1500   26.8180 C.2   231  ARG231      0.2458
     91  O        166.0250  186.0610   27.5480 O.2   231  ARG231     -0.2730
     92  CB       165.9820  185.6140   24.3700 C.3   231  ARG231      0.0347
     93  CG       166.9780  186.7320   24.5110 C.3   231  ARG231      0.0492
     94  CD       167.7840  186.8620   23.2100 C.3   231  ARG231      0.2205
     95  NE       168.9340  187.7390   23.3910 N.pl3 231  ARG231     -0.0865
     96  CZ       170.1880  187.3250   23.5590 C.cat 231  ARG231      0.5346
     97  NH1      170.5000  186.0340   23.5160 N.pl3 231  ARG231      0.1354
     98  NH2      171.1450  188.2220   23.7370 N.pl3 231  ARG231      0.1354
     99  N        165.7830  183.8520   27.1350 N.am  232  PRO232     -0.2716
    100  CA       166.3700  183.4130   28.4070 C.3   232  PRO232      0.1536
    101  C        167.7600  183.9940   28.6600 C.2   232  PRO232      0.2598
    102  O        168.5870  184.0320   27.7510 O.2   232  PRO232     -0.2715
    103  CB       166.4440  181.8910   28.2520 C.3   232  PRO232      0.0310
    104  CG       165.3830  181.5620   27.2710 C.3   232  PRO232      0.0237
    105  CD       165.3530  182.7110   26.3080 C.3   232  PRO232      0.0939
    106  N        168.0050  184.4380   29.8880 N.am  233  PHE233     -0.1974
    107  CA       169.2990  184.9990   30.2590 C.3   233  PHE233      0.1639
    108  C        170.4130  183.9620   30.1480 C.2   233  PHE233      0.2290
    109  O        170.1610  182.7840   29.8870 O.2   233  PHE233     -0.2864
    110  CB       169.2560  185.5620   31.6810 C.3   233  PHE233      0.0560
    111  CG       168.4710  186.8360   31.8110 C.ar  233  PHE233     -0.0200
    112  CD1      169.0810  188.0640   31.6170 C.ar  233  PHE233     -0.0042
    113  CD2      167.1260  186.8090   32.1390 C.ar  233  PHE233     -0.0042
    114  CE1      168.3610  189.2390   31.7410 C.ar  233  PHE233     -0.0003
    115  CE2      166.4010  187.9780   32.2630 C.ar  233  PHE233     -0.0003
    116  CZ       167.0190  189.1940   32.0640 C.ar  233  PHE233     -0.0000
    117  N        172.5120  182.7850   32.5250 N.3   235  TRP235     -0.1227
    118  CA       172.5730  181.8210   33.6190 C.3   235  TRP235      0.1737
    119  C        171.5700  180.6810   33.4360 C.2   235  TRP235      0.2595
    120  O        171.8720  179.5250   33.7410 O.2   235  TRP235     -0.2718
    121  CB       172.3480  182.5160   34.9670 C.3   235  TRP235      0.0564
    122  CG       171.0940  183.3380   35.0620 C.ar  235  TRP235      0.0003
    123  CD1      170.9590  184.6650   34.7720 C.ar  235  TRP235      0.0946
    124  CD2      169.8040  182.8910   35.5010 C.ar  235  TRP235      0.0152
    125  NE1      169.6630  185.0690   34.9930 N.ar  235  TRP235     -0.2442
    126  CE2      168.9350  183.9990   35.4410 C.ar  235  TRP235      0.0810
    127  CE3      169.2990  181.6620   35.9340 C.ar  235  TRP235      0.0012
    128  CZ2      167.5920  183.9130   35.7980 C.ar  235  TRP235      0.0191
    129  CZ3      167.9670  181.5800   36.2850 C.ar  235  TRP235      0.0001
    130  CH2      167.1280  182.6970   36.2130 C.ar  235  TRP235      0.0015
    131  N        170.3860  181.0010   32.9250 N.am  236  ALA236     -0.1980
    132  CA       169.3840  179.9760   32.6630 C.3   236  ALA236      0.1597
    133  C        169.8010  179.0990   31.4920 C.2   236  ALA236      0.2287
    134  O        169.5500  177.8950   31.4860 O.2   236  ALA236     -0.2864
    135  CB       168.0420  180.5990   32.3950 C.3   236  ALA236      0.0319
    136  N        170.2460  174.9880   32.4070 N.3   240  PHE240     -0.1241
    137  CA       169.2000  174.0580   31.9900 C.3   240  PHE240      0.1605
    138  C        169.6120  173.1590   30.8340 C.2   240  PHE240      0.2264
    139  O        170.4870  173.5000   30.0430 O.2   240  PHE240     -0.2867
    140  CB       167.9340  174.8300   31.6080 C.3   240  PHE240      0.0534
    141  CG       167.1520  175.3370   32.7860 C.ar  240  PHE240     -0.0203
    142  CD1      167.5850  176.4410   33.5010 C.ar  240  PHE240     -0.0042
    143  CD2      165.9770  174.7140   33.1720 C.ar  240  PHE240     -0.0042
    144  CE1      166.8660  176.9090   34.5840 C.ar  240  PHE240     -0.0003
    145  CE2      165.2520  175.1790   34.2510 C.ar  240  PHE240     -0.0003
    146  CZ       165.6970  176.2770   34.9590 C.ar  240  PHE240     -0.0000
    147  N        168.3950  171.7900   27.3810 N.3   242  TRP242     -0.1241
    148  CA       167.4320  172.2610   26.3940 C.3   242  TRP242      0.1605
    149  C        167.0840  171.1820   25.3790 C.2   242  TRP242      0.2264
    150  O        167.6830  171.1050   24.3090 O.2   242  TRP242     -0.2867
    151  CB       167.9720  173.5050   25.6930 C.3   242  TRP242      0.0550
    152  CG       168.3410  174.5870   26.6630 C.ar  242  TRP242      0.0003
    153  CD1      169.5370  174.7430   27.3000 C.ar  242  TRP242      0.0946
    154  CD2      167.5010  175.6500   27.1230 C.ar  242  TRP242      0.0152
    155  NE1      169.4970  175.8440   28.1220 N.ar  242  TRP242     -0.2442
    156  CE2      168.2550  176.4200   28.0320 C.ar  242  TRP242      0.0810
    157  CE3      166.1810  176.0330   26.8530 C.ar  242  TRP242      0.0012
    158  CZ2      167.7400  177.5440   28.6710 C.ar  242  TRP242      0.0191
    159  CZ3      165.6710  177.1520   27.4870 C.ar  242  TRP242      0.0001
    160  CH2      166.4470  177.8930   28.3860 C.ar  242  TRP242      0.0015
@<TRIPOS>BOND
     1    94    95    1
     2    94    93    1
     3    95    96    2
     4    97    96    1
     5    96    98    1
     6   150   149    2
     7    92    93    1
     8    92    89    1
     9     1     2    1
    10     6     5    1
    11     3     2    1
    12     3     4    2
    13    84    83    2
    14    81    82    1
    15   149   148    1
    16    83    88   am
    17    83    82    1
    18     8     9    1
    19     2     5    1
    20    89    88    1
    21    89    90    1
    22    74    73    2
    23   151   148    1
    24   151   152    1
    25    82    85    1
    26     5     7    1
    27   105    99    1
    28   105   104    1
    29    73    72    1
    30   148   147    1
    31   152   154   ar
    32   152   153   ar
    33    90    99   am
    34    90    91    2
    35   157   154   ar
    36   157   159   ar
    37     9    10    1
    38     9    12    1
    39   154   156   ar
    40    99   100    1
    41    85    87    1
    42    85    86    1
    43   104   103    1
    44    10    11    2
    45   153   155   ar
    46   159   160   ar
    47    12    13    1
    48   102   101    2
    49    72    75    1
    50    72    71    1
    51    60    59    2
    52   156   155   ar
    53   156   158   ar
    54   103   100    1
    55    75    76    1
    56   160   158   ar
    57   100   101    1
    58    71    59   am
    59    59    58    1
    60   101   106   am
    61    16    17    1
    62    57    58    1
    63    13    15    1
    64    13    14    1
    65    58    61    1
    66    76    77   ar
    67    76    78   ar
    68    77    79   ar
    69   109   108    2
    70   106   107    1
    71   139   138    2
    72    18    17    1
    73    18    19    2
    74    17    20    1
    75   108   107    1
    76   107   110    1
    77    24    25    1
    78    20    21    1
    79    78    80   ar
    80    56    55    2
    81   138   137    1
    82    61    62    1
    83    79    80   ar
    84    55    54    1
    85    62    63   ar
    86    62    64   ar
    87    21    22    1
    88    21    23    1
    89    63    65   ar
    90   134   133    2
    91   133   132    1
    92    48    47    2
    93    64    67   ar
    94    64    66   ar
    95    67    69   ar
    96   140   137    1
    97   140   141    1
    98   112   114   ar
    99   112   111   ar
   100   110   111    1
   101    25    28    1
   102    25    26    1
   103    65    66   ar
   104   114   116   ar
   105   111   113   ar
   106    66    68   ar
   107    69    70   ar
   108    29    31    1
   109    29    28    1
   110    29    30    1
   111   137   136    1
   112    42    41    2
   113   116   115   ar
   114   113   115   ar
   115    68    70   ar
   116    47    46    1
   117    47    53   am
   118   135   132    1
   119    26    27    2
   120   117   118    1
   121    46    45    1
   122    46    49    1
   123    54    53    1
   124   132   131    1
   125   141   143   ar
   126   141   142   ar
   127   131   119   am
   128    41    40    1
   129   143   145   ar
   130   119   118    1
   131   119   120    2
   132   142   144   ar
   133   118   121    1
   134    49    51    1
   135    49    50    1
   136    50    52    1
   137   145   146   ar
   138    43    40    1
   139    43    44    1
   140    40    39    1
   141   144   146   ar
   142   123   125   ar
   143   123   122   ar
   144   121   122    1
   145   125   126   ar
   146   122   124   ar
   147    35    34    2
   148   126   124   ar
   149   126   128   ar
   150    39    34   am
   151   124   127   ar
   152    34    33    1
   153   128   130   ar
   154   127   129   ar
   155   130   129   ar
   156    33    32    1
   157    33    36    1
   158    38    36    1
   159    36    37    1
