@<TRIPOS>MOLECULE
tmp/4yuuV00.pdb
 124 120 0 0 0
SMALL
GASTEIGER

@<TRIPOS>ATOM
      1  N        176.5040  105.1500   43.8430 N.3   228  LEU228     -0.1245
      2  CA       176.6060  105.7180   45.1830 C.3   228  LEU228      0.1561
      3  C        178.0140  106.2090   45.5080 C.2   228  LEU228      0.2260
      4  O        178.2690  106.6630   46.6250 O.2   228  LEU228     -0.2867
      5  CB       176.1580  104.6940   46.2280 C.3   228  LEU228      0.0270
      6  CG       174.6620  104.3840   46.2340 C.3   228  LEU228      0.0019
      7  CD1      174.3330  103.3450   47.2900 C.3   228  LEU228      0.0001
      8  CD2      173.8660  105.6570   46.4620 C.3   228  LEU228      0.0001
      9  N        180.1190  109.9220   50.7420 N.3   235  THR235     -0.1218
     10  CA       178.8240  109.2930   50.5110 C.3   235  THR235      0.1862
     11  C        178.3700  108.6060   51.7990 C.2   235  THR235      0.2287
     12  O        177.1750  108.6070   52.1400 O.2   235  THR235     -0.2866
     13  CB       178.8610  108.2830   49.3220 C.3   235  THR235      0.1770
     14  OG1      177.5310  108.0530   48.8450 O.3   235  THR235     -0.2211
     15  CG2      179.4900  106.9520   49.7030 C.3   235  THR235      0.0375
     16  N        177.0510  111.3410   53.8780 N.3   238  SER238     -0.1202
     17  CA       175.6970  111.7080   53.4600 C.3   238  SER238      0.2020
     18  C        174.6400  110.7430   53.9940 C.2   238  SER238      0.2619
     19  O        173.6560  111.1560   54.6350 O.2   238  SER238     -0.2717
     20  CB       175.6090  111.7630   51.9320 C.3   238  SER238      0.2103
     21  OG       176.6630  112.5350   51.3870 O.3   238  SER238     -0.2182
     22  N        174.8500  109.4570   53.7220 N.am  239  SER239     -0.1951
     23  CA       173.9130  108.4270   54.1640 C.3   239  SER239      0.1924
     24  C        173.7570  108.4230   55.6940 C.2   239  SER239      0.2314
     25  O        172.6340  108.3740   56.2210 O.2   239  SER239     -0.2863
     26  CB       174.3690  107.0540   53.6690 C.3   239  SER239      0.2116
     27  OG       175.6850  106.7630   54.1150 O.3   239  SER239     -0.2180
     28  N        171.7260  111.2660   56.8590 N.3   242  ALA242     -0.1231
     29  CA       170.3210  110.9670   56.5830 C.3   242  ALA242      0.1694
     30  C        169.7050  110.1090   57.6920 C.2   242  ALA242      0.2591
     31  O        168.6790  110.4780   58.2980 O.2   242  ALA242     -0.2718
     32  CB       170.1810  110.2740   55.2370 C.3   242  ALA242      0.0304
     33  N        170.3520  108.9750   57.9590 N.am  243  ALA243     -0.1980
     34  CA       169.9090  108.0630   59.0080 C.3   243  ALA243      0.1597
     35  C        169.7560  108.7900   60.3440 C.2   243  ALA243      0.2287
     36  O        168.7710  108.6040   61.0710 O.2   243  ALA243     -0.2864
     37  CB       170.8830  106.9060   59.1450 C.3   243  ALA243      0.0319
     38  N        169.2980  112.1010   61.0260 N.3   245  PHE245     -0.1227
     39  CA       168.1850  113.0420   61.1830 C.3   245  PHE245      0.1736
     40  C        166.8440  112.3000   61.1590 C.2   245  PHE245      0.2595
     41  O        165.8630  112.7600   61.7660 O.2   245  PHE245     -0.2718
     42  CB       168.2360  114.1750   60.1340 C.3   245  PHE245      0.0547
     43  CG       167.6330  113.8410   58.7850 C.ar  245  PHE245     -0.0202
     44  CD1      166.2580  113.8440   58.5910 C.ar  245  PHE245     -0.0042
     45  CD2      168.4490  113.6250   57.6870 C.ar  245  PHE245     -0.0042
     46  CE1      165.7130  113.5630   57.3470 C.ar  245  PHE245     -0.0003
     47  CE2      167.9070  113.3540   56.4390 C.ar  245  PHE245     -0.0003
     48  CZ       166.5410  113.3220   56.2720 C.ar  245  PHE245     -0.0000
     49  N        166.7980  111.1560   60.4780 N.am  246  PHE246     -0.1976
     50  CA       165.6170  110.2970   60.5700 C.3   246  PHE246      0.1639
     51  C        165.3750  109.8980   62.0300 C.2   246  PHE246      0.2290
     52  O        164.2830  110.1160   62.5940 O.2   246  PHE246     -0.2864
     53  CB       165.7850  109.0580   59.6850 C.3   246  PHE246      0.0560
     54  CG       164.7100  108.0220   59.8690 C.ar  246  PHE246     -0.0200
     55  CD1      163.3730  108.3620   59.7650 C.ar  246  PHE246     -0.0042
     56  CD2      165.0400  106.7020   60.1260 C.ar  246  PHE246     -0.0042
     57  CE1      162.3840  107.4080   59.9310 C.ar  246  PHE246     -0.0003
     58  CE2      164.0580  105.7450   60.2890 C.ar  246  PHE246     -0.0003
     59  CZ       162.7290  106.0980   60.1920 C.ar  246  PHE246     -0.0000
     60  N        168.9130  117.6250   57.8150 N.3   462  PHE462     -0.1241
     61  CA       168.3490  117.4140   56.4880 C.3   462  PHE462      0.1605
     62  C        169.1520  118.2500   55.4940 C.2   462  PHE462      0.2264
     63  O        169.6040  117.7400   54.4410 O.2   462  PHE462     -0.2867
     64  CB       166.8640  117.7850   56.4410 C.3   462  PHE462      0.0534
     65  CG       166.3250  117.9690   55.0490 C.ar  462  PHE462     -0.0203
     66  CD1      166.1830  116.8860   54.1990 C.ar  462  PHE462     -0.0042
     67  CD2      165.9500  119.2240   54.5970 C.ar  462  PHE462     -0.0042
     68  CE1      165.6900  117.0500   52.9260 C.ar  462  PHE462     -0.0003
     69  CE2      165.4540  119.3940   53.3220 C.ar  462  PHE462     -0.0003
     70  CZ       165.3250  118.3060   52.4850 C.ar  462  PHE462     -0.0000
     71  N        172.6370  116.7040   54.9860 N.3   465  HIS465     -0.1226
     72  CA       172.5080  115.5720   54.0900 C.3   465  HIS465      0.1752
     73  C        172.4620  116.0160   52.6320 C.2   465  HIS465      0.2595
     74  O        173.1720  115.4600   51.7830 O.2   465  HIS465     -0.2718
     75  CB       171.2600  114.7670   54.4150 C.3   465  HIS465      0.0759
     76  CG       170.8340  113.8760   53.2980 C.ar  465  HIS465      0.0818
     77  ND1      171.5850  112.8010   52.8820 N.ar  465  HIS465     -0.2268
     78  CD2      169.7540  113.9250   52.4810 C.ar  465  HIS465      0.1154
     79  CE1      170.9750  112.2090   51.8670 C.ar  465  HIS465      0.1986
     80  NE2      169.8670  112.8750   51.6090 N.ar  465  HIS465     -0.2212
     81  N        171.6190  117.0070   52.3350 N.am  466  LEU466     -0.1980
     82  CA       171.5570  117.5120   50.9580 C.3   466  LEU466      0.1596
     83  C        172.9200  118.0040   50.4640 C.2   466  LEU466      0.2287
     84  O        173.3380  117.6930   49.3460 O.2   466  LEU466     -0.2864
     85  CB       170.5320  118.6410   50.8400 C.3   466  LEU466      0.0297
     86  CG       169.0620  118.2270   50.9100 C.3   466  LEU466      0.0022
     87  CD1      168.1690  119.3850   50.5140 C.3   466  LEU466      0.0001
     88  CD2      168.8000  117.0210   50.0300 C.3   466  LEU466      0.0001
     89  N        175.5810  115.0730   50.1620 N.3   469  GLY469     -0.1210
     90  CA       175.1540  114.2360   49.0560 C.3   469  GLY469      0.1956
     91  C        175.4950  114.9180   47.7460 C.2   469  GLY469      0.2612
     92  O        175.9740  114.2820   46.7980 O.2   469  GLY469     -0.2717
     93  N        175.2570  116.2270   47.7060 N.am  470  SER470     -0.1952
     94  CA       175.5760  117.0330   46.5340 C.3   470  SER470      0.1924
     95  C        177.0630  116.9880   46.2240 C.2   470  SER470      0.2314
     96  O        177.4610  116.7240   45.0880 O.2   470  SER470     -0.2863
     97  CB       175.1350  118.4790   46.7410 C.3   470  SER470      0.2116
     98  OG       173.7560  118.5410   47.0450 O.3   470  SER470     -0.2180
     99  N        179.1120  114.7870   47.0580 N.3   472  THR472     -0.1203
    100  CA       179.4900  113.4320   46.6770 C.3   472  THR472      0.1994
    101  C        179.1810  113.1550   45.2130 C.2   472  THR472      0.2618
    102  O        180.0540  112.7270   44.4580 O.2   472  THR472     -0.2717
    103  CB       178.7790  112.3760   47.5370 C.3   472  THR472      0.1784
    104  OG1      179.2110  112.4900   48.8980 O.3   472  THR472     -0.2211
    105  CG2      179.1090  110.9840   47.0230 C.3   472  THR472      0.0376
    106  N        177.9380  113.4050   44.8150 N.am  473  LEU473     -0.1965
    107  CA       177.5020  113.0860   43.4570 C.3   473  LEU473      0.1728
    108  C        178.0870  114.0320   42.4090 C.2   473  LEU473      0.2616
    109  O        178.2020  113.6750   41.2390 O.2   473  LEU473     -0.2715
    110  CB       175.9770  113.1070   43.3820 C.3   473  LEU473      0.0311
    111  CG       175.2980  112.1480   44.3630 C.3   473  LEU473      0.0022
    112  CD1      173.7890  112.3240   44.3430 C.3   473  LEU473      0.0001
    113  CD2      175.6830  110.7140   44.0410 C.3   473  LEU473      0.0001
    114  N        178.4630  115.2330   42.8340 N.am  474  PHE474     -0.1974
    115  CA       178.9660  116.2450   41.9160 C.3   474  PHE474      0.1639
    116  C        180.4140  116.6070   42.2200 C.2   474  PHE474      0.2290
    117  O        180.8290  117.7480   42.0260 O.2   474  PHE474     -0.2864
    118  CB       178.0970  117.5020   41.9760 C.3   474  PHE474      0.0560
    119  CG       176.6890  117.2940   41.4980 C.ar  474  PHE474     -0.0200
    120  CD1      175.7590  116.6390   42.2900 C.ar  474  PHE474     -0.0042
    121  CD2      176.2910  117.7670   40.2610 C.ar  474  PHE474     -0.0042
    122  CE1      174.4630  116.4510   41.8530 C.ar  474  PHE474     -0.0003
    123  CE2      174.9960  117.5870   39.8180 C.ar  474  PHE474     -0.0003
    124  CZ       174.0800  116.9280   40.6140 C.ar  474  PHE474     -0.0000
@<TRIPOS>BOND
     1   123   121   ar
     2   123   124   ar
     3   121   119   ar
     4   124   122   ar
     5   109   108    2
     6   119   118    1
     7   119   120   ar
     8   122   120   ar
     9   115   118    1
    10   115   116    1
    11   115   114    1
    12   117   116    2
    13   108   114   am
    14   108   107    1
    15   110   107    1
    16   110   111    1
    17   107   106    1
    18     1     2    1
    19   113   111    1
    20   112   111    1
    21   102   101    2
    22   106   101   am
    23    96    95    2
    24     2     3    1
    25     2     5    1
    26   101   100    1
    27     3     4    2
    28    95    94    1
    29     5     6    1
    30     6     8    1
    31     6     7    1
    32    94    97    1
    33    94    93    1
    34   100    99    1
    35   100   103    1
    36    97    98    1
    37    92    91    2
    38   105   103    1
    39   103   104    1
    40    93    91   am
    41    91    90    1
    42    14    13    1
    43    90    89    1
    44    13    15    1
    45    13    10    1
    46    84    83    2
    47    88    86    1
    48    83    82    1
    49    10     9    1
    50    10    11    1
    51    87    86    1
    52    85    86    1
    53    85    82    1
    54    82    81    1
    55    21    20    1
    56    80    79   ar
    57    80    78   ar
    58    74    73    2
    59    11    12    2
    60    79    77   ar
    61    20    17    1
    62    81    73   am
    63    78    76   ar
    64    70    68   ar
    65    70    69   ar
    66    73    72    1
    67    77    76   ar
    68    68    66   ar
    69    76    75    1
    70    69    67   ar
    71    17    16    1
    72    17    18    1
    73    26    27    1
    74    26    23    1
    75    22    18   am
    76    22    23    1
    77    18    19    2
    78    72    75    1
    79    72    71    1
    80    23    24    1
    81    66    65   ar
    82    63    62    2
    83    67    65   ar
    84    65    64    1
    85    32    29    1
    86    62    61    1
    87    24    25    2
    88    48    47   ar
    89    48    46   ar
    90    47    45   ar
    91    64    61    1
    92    61    60    1
    93    29    28    1
    94    29    30    1
    95    46    44   ar
    96    45    43   ar
    97    30    33   am
    98    30    31    2
    99    33    34    1
   100    44    43   ar
   101    43    42    1
   102    34    37    1
   103    34    35    1
   104    53    54    1
   105    53    50    1
   106    55    54   ar
   107    55    57   ar
   108    54    56   ar
   109    57    59   ar
   110    56    58   ar
   111    42    39    1
   112    59    58   ar
   113    35    36    2
   114    49    50    1
   115    49    40   am
   116    50    51    1
   117    38    39    1
   118    40    39    1
   119    40    41    2
   120    51    52    2
