@<TRIPOS>MOLECULE
tmp/4yuuX10.pdb
 125 125 0 0 0
SMALL
GASTEIGER

@<TRIPOS>ATOM
      1  N        143.7490  121.5200   45.3810 N.3    35  TRP35      -0.1241
      2  CA       143.5190  122.9010   45.7880 C.3    35  TRP35       0.1605
      3  C        142.3980  123.5270   44.9660 C.2    35  TRP35       0.2264
      4  O        141.5000  124.1570   45.5370 O.2    35  TRP35      -0.2867
      5  CB       144.7870  123.7450   45.6780 C.3    35  TRP35       0.0550
      6  CG       144.5520  125.1660   46.0850 C.ar   35  TRP35       0.0003
      7  CD1      144.3770  125.6340   47.3490 C.ar   35  TRP35       0.0946
      8  CD2      144.4410  126.3020   45.2170 C.ar   35  TRP35       0.0152
      9  NE1      144.1710  126.9910   47.3300 N.ar   35  TRP35      -0.2442
     10  CE2      144.2050  127.4280   46.0310 C.ar   35  TRP35       0.0810
     11  CE3      144.5200  126.4780   43.8300 C.ar   35  TRP35       0.0012
     12  CZ2      144.0510  128.7120   45.5100 C.ar   35  TRP35       0.0191
     13  CZ3      144.3700  127.7520   43.3140 C.ar   35  TRP35       0.0001
     14  CH2      144.1360  128.8540   44.1530 C.ar   35  TRP35       0.0015
     15  N        138.2630  134.6050   45.2780 N.3    60  PHE60      -0.1227
     16  CA       139.6210  134.0670   45.3110 C.3    60  PHE60       0.1736
     17  C        140.3330  134.3700   46.6250 C.2    60  PHE60       0.2595
     18  O        141.1580  133.5820   47.0890 O.2    60  PHE60      -0.2718
     19  CB       140.4410  134.6150   44.1410 C.3    60  PHE60       0.0547
     20  CG       141.9230  134.4000   44.2860 C.ar   60  PHE60      -0.0202
     21  CD1      142.4560  133.1200   44.2720 C.ar   60  PHE60      -0.0042
     22  CD2      142.7820  135.4770   44.4310 C.ar   60  PHE60      -0.0042
     23  CE1      143.8200  132.9190   44.4070 C.ar   60  PHE60      -0.0003
     24  CE2      144.1460  135.2830   44.5630 C.ar   60  PHE60      -0.0003
     25  CZ       144.6650  134.0020   44.5520 C.ar   60  PHE60      -0.0000
     26  N        140.0010  135.5040   47.2300 N.am   61  LEU61      -0.1980
     27  CA       140.6510  135.9200   48.4660 C.3    61  LEU61       0.1596
     28  C        140.1470  135.1600   49.6920 C.2    61  LEU61       0.2287
     29  O        140.9260  134.8560   50.5940 O.2    61  LEU61      -0.2864
     30  CB       140.4630  137.4230   48.6750 C.3    61  LEU61       0.0297
     31  CG       140.9340  138.3010   47.5170 C.3    61  LEU61       0.0022
     32  CD1      140.7680  139.7650   47.8660 C.3    61  LEU61       0.0001
     33  CD2      142.3810  137.9910   47.1590 C.3    61  LEU61       0.0001
     34  N        160.6840  125.7430   54.8620 N.3   139  VAL139     -0.1231
     35  CA       159.4690  126.4850   55.2230 C.3   139  VAL139      0.1692
     36  C        158.2220  125.5890   55.2310 C.2   139  VAL139      0.2592
     37  O        157.4630  125.5740   56.2120 O.2   139  VAL139     -0.2718
     38  CB       159.2140  127.6740   54.2860 C.3   139  VAL139      0.0266
     39  CG1      157.8430  128.2740   54.5590 C.3   139  VAL139      0.0020
     40  CG2      160.2910  128.7180   54.4690 C.3   139  VAL139      0.0020
     41  N        158.0180  124.8260   54.1600 N.am  140  PHE140     -0.1976
     42  CA       156.8170  123.9950   54.0710 C.3   140  PHE140      0.1639
     43  C        156.7630  122.9250   55.1640 C.2   140  PHE140      0.2290
     44  O        155.7170  122.7090   55.7730 O.2   140  PHE140     -0.2864
     45  CB       156.7060  123.3260   52.6970 C.3   140  PHE140      0.0560
     46  CG       155.4430  122.5200   52.5210 C.ar  140  PHE140     -0.0200
     47  CD1      154.2340  123.1470   52.2570 C.ar  140  PHE140     -0.0042
     48  CD2      155.4620  121.1380   52.6320 C.ar  140  PHE140     -0.0042
     49  CE1      153.0700  122.4140   52.1020 C.ar  140  PHE140     -0.0003
     50  CE2      154.3020  120.3980   52.4800 C.ar  140  PHE140     -0.0003
     51  CZ       153.1030  121.0380   52.2140 C.ar  140  PHE140     -0.0000
     52  N        156.2670  124.6660   58.7500 N.3   143  VAL143     -0.1231
     53  CA       155.0030  125.3680   58.9740 C.3   143  VAL143      0.1692
     54  C        153.7590  124.5030   58.7390 C.2   143  VAL143      0.2592
     55  O        152.7970  124.5710   59.5040 O.2   143  VAL143     -0.2718
     56  CB       154.9120  126.6270   58.0880 C.3   143  VAL143      0.0266
     57  CG1      153.5750  127.3230   58.2750 C.3   143  VAL143      0.0020
     58  CG2      156.0470  127.5770   58.4230 C.3   143  VAL143      0.0020
     59  N        153.7810  123.6850   57.6920 N.am  144  PHE144     -0.1976
     60  CA       152.6010  122.9100   57.3150 C.3   144  PHE144      0.1639
     61  C        152.5930  121.4980   57.8880 C.2   144  PHE144      0.2290
     62  O        151.5760  120.8090   57.8290 O.2   144  PHE144     -0.2864
     63  CB       152.4740  122.8400   55.7880 C.3   144  PHE144      0.0560
     64  CG       152.0360  124.1260   55.1580 C.ar  144  PHE144     -0.0200
     65  CD1      152.9560  125.1160   54.8600 C.ar  144  PHE144     -0.0042
     66  CD2      150.7020  124.3500   54.8680 C.ar  144  PHE144     -0.0042
     67  CE1      152.5520  126.3050   54.2800 C.ar  144  PHE144     -0.0003
     68  CE2      150.2930  125.5370   54.2910 C.ar  144  PHE144     -0.0003
     69  CZ       151.2190  126.5160   53.9950 C.ar  144  PHE144     -0.0000
     70  N        145.0570  126.2430   53.1700 N.3   160  PHE160     -0.1241
     71  CA       145.4990  126.6490   51.8430 C.3   160  PHE160      0.1605
     72  C        144.5640  127.6790   51.2130 C.2   160  PHE160      0.2264
     73  O        143.6670  127.3300   50.4480 O.2   160  PHE160     -0.2867
     74  CB       145.6190  125.4280   50.9350 C.3   160  PHE160      0.0534
     75  CG       146.5570  124.3770   51.4530 C.ar  160  PHE160     -0.0203
     76  CD1      147.9280  124.5070   51.2840 C.ar  160  PHE160     -0.0042
     77  CD2      146.0700  123.2570   52.1040 C.ar  160  PHE160     -0.0042
     78  CE1      148.7960  123.5370   51.7580 C.ar  160  PHE160     -0.0003
     79  CE2      146.9310  122.2840   52.5770 C.ar  160  PHE160     -0.0003
     80  CZ       148.2960  122.4240   52.4060 C.ar  160  PHE160     -0.0000
     81  N        144.1330  132.4350   50.7430 N.3   162  VAL162     -0.1245
     82  CA       144.6210  133.7840   51.0120 C.3   162  VAL162      0.1561
     83  C        144.2480  134.2830   52.4100 C.2   162  VAL162      0.2260
     84  O        145.1130  134.4400   53.2810 O.2   162  VAL162     -0.2867
     85  CB       144.0830  134.7730   49.9510 C.3   162  VAL162      0.0252
     86  CG1      144.5070  136.1940   50.2670 C.3   162  VAL162      0.0019
     87  CG2      144.5620  134.3660   48.5650 C.3   162  VAL162      0.0019
     88  N        145.4320  132.0320   55.2130 N.3   165  ILE165     -0.1231
     89  CA       146.8300  132.2650   55.5440 C.3   165  ILE165      0.1692
     90  C        146.9420  133.5240   56.3950 C.2   165  ILE165      0.2592
     91  O        147.6820  133.5460   57.3820 O.2   165  ILE165     -0.2718
     92  CB       147.7010  132.3840   54.2760 C.3   165  ILE165      0.0266
     93  CG1      148.0360  130.9930   53.7300 C.3   165  ILE165      0.0019
     94  CG2      148.9930  133.1280   54.5660 C.3   165  ILE165      0.0020
     95  CD1      149.0400  130.2250   54.5650 C.3   165  ILE165      0.0001
     96  N        146.1870  134.5600   56.0310 N.am  166  PHE166     -0.1976
     97  CA       146.1310  135.7810   56.8420 C.3   166  PHE166      0.1639
     98  C        145.7120  135.4740   58.2830 C.2   166  PHE166      0.2290
     99  O        146.2660  136.0230   59.2500 O.2   166  PHE166     -0.2864
    100  CB       145.1670  136.7960   56.2260 C.3   166  PHE166      0.0560
    101  CG       145.6150  137.3350   54.8970 C.ar  166  PHE166     -0.0200
    102  CD1      146.9380  137.2340   54.4990 C.ar  166  PHE166     -0.0042
    103  CD2      144.7110  137.9480   54.0450 C.ar  166  PHE166     -0.0042
    104  CE1      147.3480  137.7290   53.2790 C.ar  166  PHE166     -0.0003
    105  CE2      145.1160  138.4460   52.8250 C.ar  166  PHE166     -0.0003
    106  CZ       146.4320  138.3360   52.4400 C.ar  166  PHE166     -0.0000
    107  N        146.1250  132.5700   59.8020 N.3   168  PHE168     -0.1227
    108  CA       147.2510  131.8690   60.4220 C.3   168  PHE168      0.1736
    109  C        148.2760  132.8690   60.9480 C.2   168  PHE168      0.2595
    110  O        148.8130  132.7210   62.0510 O.2   168  PHE168     -0.2718
    111  CB       147.9040  130.9110   59.4240 C.3   168  PHE168      0.0547
    112  CG       149.0790  130.1580   59.9820 C.ar  168  PHE168     -0.0202
    113  CD1      148.8870  129.0620   60.8080 C.ar  168  PHE168     -0.0042
    114  CD2      150.3750  130.5380   59.6700 C.ar  168  PHE168     -0.0042
    115  CE1      149.9670  128.3630   61.3210 C.ar  168  PHE168     -0.0003
    116  CE2      151.4580  129.8450   60.1760 C.ar  168  PHE168     -0.0003
    117  CZ       151.2540  128.7550   61.0040 C.ar  168  PHE168     -0.0000
    118  N        148.5250  133.8970   60.1450 N.am  169  LEU169     -0.1980
    119  CA       149.4030  134.9890   60.5290 C.3   169  LEU169      0.1596
    120  C        148.9680  135.6730   61.8170 C.2   169  LEU169      0.2287
    121  O        149.7010  135.6640   62.8130 O.2   169  LEU169     -0.2864
    122  CB       149.4710  136.0200   59.4120 C.3   169  LEU169      0.0297
    123  CG       150.6420  135.8800   58.4520 C.3   169  LEU169      0.0022
    124  CD1      150.2090  135.3920   57.0870 C.3   169  LEU169      0.0001
    125  CD2      151.2550  137.2260   58.3440 C.3   169  LEU169      0.0001
@<TRIPOS>BOND
     1    13    11   ar
     2    13    14   ar
     3    11     8   ar
     4    19    20    1
     5    19    16    1
     6    14    12   ar
     7    21    20   ar
     8    21    23   ar
     9    20    22   ar
    10    23    25   ar
    11    22    24   ar
    12    25    24   ar
    13     3     4    2
    14     3     2    1
    15     8    10   ar
    16     8     6   ar
    17    15    16    1
    18    16    17    1
    19     1     2    1
    20    12    10   ar
    21     5     2    1
    22     5     6    1
    23    10     9   ar
    24     6     7   ar
    25    17    18    2
    26    17    26   am
    27    33    31    1
    28    26    27    1
    29     9     7   ar
    30    31    32    1
    31    31    30    1
    32    27    30    1
    33    27    28    1
    34    87    85    1
    35    28    29    2
    36    85    86    1
    37    85    82    1
    38    73    72    2
    39    81    82    1
    40    74    75    1
    41    74    71    1
    42    82    83    1
    43    72    71    1
    44    76    75   ar
    45    76    78   ar
    46    75    77   ar
    47    78    80   ar
    48    71    70    1
    49    49    51   ar
    50    49    47   ar
    51    77    79   ar
    52    51    50   ar
    53    47    46   ar
    54    80    79   ar
    55    83    84    2
    56   106   105   ar
    57   106   104   ar
    58    50    48   ar
    59    46    48   ar
    60    46    45    1
    61    45    42    1
    62   105   103   ar
    63   104   102   ar
    64    93    92    1
    65    93    95    1
    66    69    67   ar
    67    69    68   ar
    68   103   101   ar
    69    42    41    1
    70    42    43    1
    71    41    36   am
    72    92    94    1
    73    92    89    1
    74    67    65   ar
    75    38    40    1
    76    38    39    1
    77    38    35    1
    78    68    66   ar
    79   102   101   ar
    80    65    64   ar
    81    34    35    1
    82    66    64   ar
    83   101   100    1
    84    64    63    1
    85    43    44    2
    86    88    89    1
    87    35    36    1
    88    36    37    2
    89    89    90    1
    90    63    60    1
    91    96    90   am
    92    96    97    1
    93   100    97    1
    94    90    91    2
    95    97    98    1
    96   124   123    1
    97    60    59    1
    98    60    61    1
    99    59    54   am
   100    62    61    2
   101    56    57    1
   102    56    58    1
   103    56    53    1
   104    98    99    2
   105   125   123    1
   106   123   122    1
   107    54    53    1
   108    54    55    2
   109    52    53    1
   110   122   119    1
   111   111   112    1
   112   111   108    1
   113   114   112   ar
   114   114   116   ar
   115   107   108    1
   116   112   113   ar
   117   118   119    1
   118   118   109   am
   119   116   117   ar
   120   108   109    1
   121   119   120    1
   122   113   115   ar
   123   109   110    2
   124   117   115   ar
   125   120   121    2
