@<TRIPOS>MOLECULE
tmp/4yuuV07.pdb
 155 147 0 0 0
SMALL
GASTEIGER

@<TRIPOS>ATOM
      1  N        193.1200  108.5800   56.8250 N.3    15  PRO15      -0.2116
      2  CA       192.3790  107.6750   57.7100 C.3    15  PRO15       0.1372
      3  C        192.8060  107.7800   59.1720 C.2    15  PRO15       0.2244
      4  O        191.9530  107.8330   60.0580 O.2    15  PRO15      -0.2868
      5  CB       192.7130  106.2910   57.1460 C.3    15  PRO15       0.0268
      6  CG       192.9710  106.5370   55.7090 C.3    15  PRO15       0.0207
      7  CD       193.6530  107.8770   55.6470 C.3    15  PRO15       0.0892
      8  N        191.7260  111.0470   60.6130 N.3    18  LEU18      -0.1231
      9  CA       190.2690  111.0060   60.6560 C.3    18  LEU18       0.1693
     10  C        189.8410  110.2960   61.9330 C.2    18  LEU18       0.2591
     11  O        188.9760  110.7780   62.6780 O.2    18  LEU18      -0.2718
     12  CB       189.6970  110.2960   59.4260 C.3    18  LEU18       0.0284
     13  CG       188.1910  110.0140   59.4290 C.3    18  LEU18       0.0019
     14  CD1      187.3800  111.2960   59.3140 C.3    18  LEU18       0.0001
     15  CD2      187.8170  109.0440   58.3220 C.3    18  LEU18       0.0001
     16  N        190.4680  109.1500   62.1820 N.am   19  ILE19      -0.1980
     17  CA       190.2320  108.3830   63.3980 C.3    19  ILE19       0.1595
     18  C        190.5970  109.2040   64.6320 C.2    19  ILE19       0.2287
     19  O        189.8590  109.2140   65.6140 O.2    19  ILE19      -0.2864
     20  CB       191.0340  107.0660   63.3920 C.3    19  ILE19       0.0276
     21  CG1      190.4930  106.1240   62.3140 C.3    19  ILE19       0.0022
     22  CG2      190.9770  106.3880   64.7560 C.3    19  ILE19       0.0022
     23  CD1      191.2630  104.8290   62.1890 C.3    19  ILE19       0.0001
     24  N        187.9820  111.8540   65.2060 N.3    22  HIS22      -0.1226
     25  CA       186.7650  111.2410   65.7260 C.3    22  HIS22       0.1752
     26  C        186.9190  110.8820   67.1970 C.2    22  HIS22       0.2595
     27  O        185.9730  110.9880   67.9810 O.2    22  HIS22      -0.2718
     28  CB       186.4010  109.9950   64.9250 C.3    22  HIS22       0.0759
     29  CG       185.8200  110.2910   63.5820 C.ar   22  HIS22       0.0818
     30  ND1      185.4090  109.3040   62.7160 N.ar   22  HIS22      -0.2268
     31  CD2      185.5770  111.4700   62.9590 C.ar   22  HIS22       0.1154
     32  CE1      184.9400  109.8610   61.6120 C.ar   22  HIS22       0.1986
     33  NE2      185.0380  111.1690   61.7330 N.ar   22  HIS22      -0.2212
     34  N        188.1180  110.4430   67.5580 N.am   23  LEU23      -0.1980
     35  CA       188.4420  110.1450   68.9400 C.3    23  LEU23       0.1596
     36  C        188.3260  111.4050   69.7770 C.2    23  LEU23       0.2287
     37  O        187.8300  111.3650   70.9000 O.2    23  LEU23      -0.2864
     38  CB       189.8470  109.5570   69.0530 C.3    23  LEU23       0.0297
     39  CG       190.0020  108.0790   68.6940 C.3    23  LEU23       0.0022
     40  CD1      191.4660  107.7190   68.5360 C.3    23  LEU23       0.0001
     41  CD2      189.3540  107.2180   69.7620 C.3    23  LEU23       0.0001
     42  N        184.6070  112.2190   70.2250 N.3    26  THR26      -0.1218
     43  CA       184.0220  111.2610   71.1560 C.3    26  THR26       0.1862
     44  C        184.4210  111.5850   72.5960 C.2    26  THR26       0.2287
     45  O        183.5870  111.5600   73.5090 O.2    26  THR26      -0.2866
     46  CB       184.4470  109.8210   70.8050 C.3    26  THR26       0.1770
     47  OG1      184.1820  109.5720   69.4190 O.3    26  THR26      -0.2211
     48  CG2      183.6850  108.8150   71.6420 C.3    26  THR26       0.0375
     49  N        186.9300  107.7660   80.6280 N.3   102  LEU102     -0.1245
     50  CA       186.7870  107.3910   79.2280 C.3   102  LEU102      0.1561
     51  C        187.1930  108.5420   78.3140 C.2   102  LEU102      0.2260
     52  O        187.9220  108.3440   77.3390 O.2   102  LEU102     -0.2867
     53  CB       185.3500  106.9630   78.9290 C.3   102  LEU102      0.0270
     54  CG       185.0540  106.5730   77.4810 C.3   102  LEU102      0.0019
     55  CD1      185.9390  105.4190   77.0410 C.3   102  LEU102      0.0001
     56  CD2      183.5840  106.2160   77.3200 C.3   102  LEU102      0.0001
     57  N        190.2560  108.3860   75.6000 N.3   106  LEU106     -0.1245
     58  CA       189.9820  108.7020   74.1990 C.3   106  LEU106      0.1561
     59  C        190.8140  109.8980   73.7390 C.2   106  LEU106      0.2260
     60  O        191.2340  109.9670   72.5880 O.2   106  LEU106     -0.2867
     61  CB       188.4930  108.9790   73.9900 C.3   106  LEU106      0.0270
     62  CG       187.5340  107.8160   74.2530 C.3   106  LEU106      0.0019
     63  CD1      186.0970  108.3060   74.2670 C.3   106  LEU106      0.0001
     64  CD2      187.7130  106.7100   73.2270 C.3   106  LEU106      0.0001
     65  N        196.9210  108.7280   67.6090 N.3   113  HIS113     -0.1241
     66  CA       196.5320  108.5320   66.2160 C.3   113  HIS113      0.1621
     67  C        196.7860  109.7530   65.3530 C.2   113  HIS113      0.2264
     68  O        196.8850  109.6440   64.1320 O.2   113  HIS113     -0.2867
     69  CB       195.0680  108.1390   66.1180 C.3   113  HIS113      0.0745
     70  CG       194.8440  106.6690   66.2140 C.ar  113  HIS113      0.0817
     71  ND1      195.1250  105.8050   65.1790 N.ar  113  HIS113     -0.2268
     72  CD2      194.3800  105.9040   67.2300 C.ar  113  HIS113      0.1154
     73  CE1      194.8370  104.5690   65.5520 C.ar  113  HIS113      0.1986
     74  NE2      194.3830  104.6080   66.7910 N.ar  113  HIS113     -0.2212
     75  N        198.3150  100.0040   57.5660 N.3   121  LEU121     -0.1231
     76  CA       196.9470   99.5020   57.4750 C.3   121  LEU121      0.1693
     77  C        196.0700  100.3580   56.5640 C.2   121  LEU121      0.2592
     78  O        195.0960   99.8750   55.9860 O.2   121  LEU121     -0.2718
     79  CB       196.3300   99.4300   58.8740 C.3   121  LEU121      0.0284
     80  CG       194.9030   98.9030   58.9990 C.3   121  LEU121      0.0019
     81  CD1      194.8040   97.4970   58.4360 C.3   121  LEU121      0.0001
     82  CD2      194.4500   98.9410   60.4510 C.3   121  LEU121      0.0001
     83  N        196.4280  101.6300   56.4300 N.am  122  PHE122     -0.1976
     84  CA       195.6230  102.5710   55.6620 C.3   122  PHE122      0.1639
     85  C        196.0580  102.6410   54.2010 C.2   122  PHE122      0.2290
     86  O        195.3660  103.2220   53.3680 O.2   122  PHE122     -0.2864
     87  CB       195.6940  103.9600   56.2990 C.3   122  PHE122      0.0560
     88  CG       195.3720  103.9680   57.7660 C.ar  122  PHE122     -0.0200
     89  CD1      194.3570  103.1740   58.2700 C.ar  122  PHE122     -0.0042
     90  CD2      196.0960  104.7590   58.6430 C.ar  122  PHE122     -0.0042
     91  CE1      194.0610  103.1750   59.6200 C.ar  122  PHE122     -0.0003
     92  CE2      195.8080  104.7620   59.9910 C.ar  122  PHE122     -0.0003
     93  CZ       194.7880  103.9710   60.4810 C.ar  122  PHE122     -0.0000
     94  N        193.6700  104.1760   51.3700 N.3   131  ALA131     -0.1231
     95  CA       192.4290  103.5620   50.9120 C.3   131  ALA131      0.1694
     96  C        191.6990  102.8260   52.0310 C.2   131  ALA131      0.2592
     97  O        192.3100  102.1120   52.8220 O.2   131  ALA131     -0.2718
     98  CB       192.7120  102.6120   49.7560 C.3   131  ALA131      0.0304
     99  N        190.3840  103.0080   52.0830 N.am  132  LEU132     -0.1966
    100  CA       189.5410  102.2930   53.0290 C.3   132  LEU132      0.1728
    101  C        188.4730  101.4950   52.2880 C.2   132  LEU132      0.2616
    102  O        187.7190  102.0490   51.4910 O.2   132  LEU132     -0.2715
    103  CB       188.8820  103.2650   54.0140 C.3   132  LEU132      0.0311
    104  CG       189.8000  104.0580   54.9460 C.3   132  LEU132      0.0022
    105  CD1      188.9880  104.9910   55.8310 C.3   132  LEU132      0.0001
    106  CD2      190.6480  103.1220   55.7950 C.3   132  LEU132      0.0001
    107  N        188.4170  100.1920   52.5450 N.am  133  ASP133     -0.1971
    108  CA       187.3970   99.3430   51.9410 C.3   133  ASP133      0.1709
    109  C        186.0720   99.5250   52.6760 C.2   133  ASP133      0.2293
    110  O        185.6580   98.6680   53.4570 O.2   133  ASP133     -0.2864
    111  CB       187.8360   97.8770   51.9630 C.3   133  ASP133      0.1436
    112  CG       186.9050   96.9740   51.1800 C.2   133  ASP133      0.3671
    113  OD1      186.1510   97.4860   50.3260 O.co2 133  ASP133     -0.2456
    114  OD2      186.9360   95.7480   51.4150 O.co2 133  ASP133     -0.2456
    115  N        184.2610   97.4620   55.8520 N.3   137  VAL137     -0.1245
    116  CA       184.2540   98.2090   57.1040 C.3   137  VAL137      0.1561
    117  C        182.8240   98.3170   57.6190 C.2   137  VAL137      0.2260
    118  O        182.5590   98.1150   58.8090 O.2   137  VAL137     -0.2867
    119  CB       184.8530   99.6170   56.9310 C.3   137  VAL137      0.0252
    120  CG1      184.7470  100.4020   58.2240 C.3   137  VAL137      0.0019
    121  CG2      186.3010   99.5300   56.4810 C.3   137  VAL137      0.0019
    122  N        181.8100   94.9790   59.1360 N.3   140  ILE140     -0.1231
    123  CA       182.3330   94.8150   60.4870 C.3   140  ILE140      0.1692
    124  C        181.5510   95.6470   61.5030 C.2   140  ILE140      0.2592
    125  O        181.0610   95.1220   62.5130 O.2   140  ILE140     -0.2718
    126  CB       183.8240   95.2050   60.5600 C.3   140  ILE140      0.0266
    127  CG1      184.6290   94.4310   59.5110 C.3   140  ILE140      0.0019
    128  CG2      184.3760   94.9610   61.9560 C.3   140  ILE140      0.0020
    129  CD1      186.0820   94.8520   59.4150 C.3   140  ILE140      0.0001
    130  N        181.4260   96.9410   61.2240 N.am  141  HIS141     -0.1976
    131  CA       180.7330   97.8520   62.1310 C.3   141  HIS141      0.1656
    132  C        179.2810   97.4560   62.3370 C.2   141  HIS141      0.2291
    133  O        178.7370   97.6150   63.4280 O.2   141  HIS141     -0.2864
    134  CB       180.8100   99.2840   61.6130 C.3   141  HIS141      0.0771
    135  CG       182.1780   99.8730   61.6870 C.ar  141  HIS141      0.0820
    136  ND1      182.4610  101.1610   61.2860 N.ar  141  HIS141     -0.2267
    137  CD2      183.3490   99.3470   62.1230 C.ar  141  HIS141      0.1154
    138  CE1      183.7460  101.4020   61.4700 C.ar  141  HIS141      0.1986
    139  NE2      184.3070  100.3200   61.9730 N.ar  141  HIS141     -0.2212
    140  N        179.2660   94.5180   64.7300 N.3   144  LEU144     -0.1245
    141  CA       179.4450   95.0390   66.0840 C.3   144  LEU144      0.1561
    142  C        178.1480   95.6370   66.6310 C.2   144  LEU144      0.2260
    143  O        177.6780   95.2600   67.7080 O.2   144  LEU144     -0.2867
    144  CB       180.5480   96.0970   66.1080 C.3   144  LEU144      0.0270
    145  CG       181.9440   95.6650   65.6710 C.3   144  LEU144      0.0019
    146  CD1      182.8120   96.8910   65.4610 C.3   144  LEU144      0.0001
    147  CD2      182.5670   94.7290   66.6950 C.3   144  LEU144      0.0001
    148  N        184.3220  108.6360   50.6810 N.3   233  ILE233     -0.1245
    149  CA       183.8370  108.4970   52.0530 C.3   233  ILE233      0.1561
    150  C        182.6960  109.4830   52.3650 C.2   233  ILE233      0.2260
    151  O        181.8840  109.2780   53.2880 O.2   233  ILE233     -0.2867
    152  CB       185.0080  108.6860   53.0510 C.3   233  ILE233      0.0252
    153  CG1      184.5960  108.2910   54.4700 C.3   233  ILE233      0.0019
    154  CG2      185.5580  110.1100   52.9850 C.3   233  ILE233      0.0019
    155  CD1      185.7570  108.2290   55.4290 C.3   233  ILE233      0.0001
@<TRIPOS>BOND
     1    98    95    1
     2   113   112   ar
     3   148   149    1
     4    95    94    1
     5    95    96    1
     6   112   114   ar
     7   112   111    1
     8   102   101    2
     9   108   111    1
    10   108   107    1
    11   108   109    1
    12    96    99   am
    13    96    97    2
    14   149   150    1
    15   149   152    1
    16    99   100    1
    17   101   107   am
    18   101   100    1
    19   150   151    2
    20   109   110    2
    21   154   152    1
    22   100   103    1
    23   152   153    1
    24    86    85    2
    25   103   104    1
    26    85    84    1
    27   153   155    1
    28   104   106    1
    29   104   105    1
    30     7     6    1
    31     7     1    1
    32    84    87    1
    33    84    83    1
    34     6     5    1
    35   115   116    1
    36    78    77    2
    37    87    88    1
    38    83    77   am
    39   121   119    1
    40    77    76    1
    41     1     2    1
    42   119   116    1
    43   119   120    1
    44   116   117    1
    45     5     2    1
    46    76    75    1
    47    76    79    1
    48   117   118    2
    49     2     3    1
    50    88    89   ar
    51    88    90   ar
    52    89    91   ar
    53    15    13    1
    54    81    80    1
    55    90    92   ar
    56    79    80    1
    57    80    82    1
    58   122   123    1
    59     3     4    2
    60    14    13    1
    61   129   127    1
    62    12    13    1
    63    12     9    1
    64   127   126    1
    65    91    93   ar
    66    92    93   ar
    67   123   126    1
    68   123   124    1
    69   126   128    1
    70     8     9    1
    71     9    10    1
    72   130   124   am
    73   130   131    1
    74   136   138   ar
    75   136   135   ar
    76   138   139   ar
    77   124   125    2
    78    32    33   ar
    79    32    30   ar
    80   134   135    1
    81   134   131    1
    82   135   137   ar
    83    33    31   ar
    84    10    16   am
    85    10    11    2
    86   139   137   ar
    87   131   132    1
    88    16    17    1
    89    23    21    1
    90    21    20    1
    91   132   133    2
    92    30    29   ar
    93    31    29   ar
    94    20    17    1
    95    20    22    1
    96    17    18    1
    97    29    28    1
    98    68    67    2
    99    18    19    2
   100   140   141    1
   101    28    25    1
   102    71    73   ar
   103    71    70   ar
   104    24    25    1
   105    67    66    1
   106   146   145    1
   107    73    74   ar
   108   145   144    1
   109   145   147    1
   110    25    26    1
   111   141   144    1
   112   141   142    1
   113    69    70    1
   114    69    66    1
   115    70    72   ar
   116    66    65    1
   117   142   143    2
   118    74    72   ar
   119    26    34   am
   120    26    27    2
   121    34    35    1
   122    40    39    1
   123    39    38    1
   124    39    41    1
   125    35    38    1
   126    35    36    1
   127    47    46    1
   128    36    37    2
   129    42    43    1
   130    46    43    1
   131    46    48    1
   132    43    44    1
   133    60    59    2
   134    44    45    2
   135    64    62    1
   136    59    58    1
   137    61    58    1
   138    61    62    1
   139    58    57    1
   140    62    63    1
   141    55    54    1
   142    56    54    1
   143    52    51    2
   144    54    53    1
   145    51    50    1
   146    53    50    1
   147    50    49    1
