@<TRIPOS>MOLECULE
tmp/4yuuA04.pdb
 98 95 0 0 0
SMALL
GASTEIGER

@<TRIPOS>ATOM
      1  N        216.4840  130.4390  116.7600 N.3   196  PRO196     -0.2102
      2  CA       217.6270  130.7340  115.8880 C.3   196  PRO196      0.1504
      3  C        217.6390  129.9250  114.5880 C.2   196  PRO196      0.2575
      4  O        218.2020  130.3870  113.5940 O.2   196  PRO196     -0.2718
      5  CB       218.8390  130.3810  116.7640 C.3   196  PRO196      0.0282
      6  CG       218.3080  129.4780  117.8210 C.3   196  PRO196      0.0208
      7  CD       216.9110  129.9450  118.0790 C.3   196  PRO196      0.0893
      8  N        217.0310  128.7420  114.5920 N.am  197  PHE197     -0.1977
      9  CA       216.9900  127.9190  113.3850 C.3   197  PHE197      0.1639
     10  C        216.0140  128.4840  112.3570 C.2   197  PHE197      0.2290
     11  O        216.2340  128.3790  111.1470 O.2   197  PHE197     -0.2864
     12  CB       216.6260  126.4710  113.7220 C.3   197  PHE197      0.0560
     13  CG       217.8010  125.6360  114.1420 C.ar  197  PHE197     -0.0200
     14  CD1      219.0410  126.2200  114.3560 C.ar  197  PHE197     -0.0042
     15  CD2      217.6740  124.2660  114.3040 C.ar  197  PHE197     -0.0042
     16  CE1      220.1290  125.4560  114.7390 C.ar  197  PHE197     -0.0003
     17  CE2      218.7580  123.4960  114.6850 C.ar  197  PHE197     -0.0003
     18  CZ       219.9900  124.0940  114.9030 C.ar  197  PHE197     -0.0000
     19  N        215.4440  131.6800  112.1920 N.3   199  MET199     -0.1230
     20  CA       216.2150  132.8280  111.7420 C.3   199  MET199      0.1702
     21  C        217.1770  132.3820  110.6500 C.2   199  MET199      0.2592
     22  O        217.3930  133.0860  109.6620 O.2   199  MET199     -0.2718
     23  CB       216.9760  133.4560  112.9100 C.3   199  MET199      0.0401
     24  CG       216.1020  133.8130  114.1070 C.3   199  MET199      0.0596
     25  SD       217.0640  134.3250  115.5410 S.3   199  MET199     -0.1393
     26  CE       215.7750  134.6510  116.7340 C.3   199  MET199      0.0692
     27  N        217.7450  131.1960  110.8360 N.am  200  ALA200     -0.1980
     28  CA       218.6460  130.6170  109.8520 C.3   200  ALA200      0.1597
     29  C        217.9000  130.3370  108.5520 C.2   200  ALA200      0.2287
     30  O        218.4390  130.5340  107.4630 O.2   200  ALA200     -0.2864
     31  CB       219.2780  129.3440  110.3930 C.3   200  ALA200      0.0319
     32  N        217.3490  133.5060  106.7790 N.3   203  ALA203     -0.1245
     33  CA       218.6220  133.8330  106.1520 C.3   203  ALA203      0.1562
     34  C        218.7980  133.0350  104.8680 C.2   203  ALA203      0.2260
     35  O        219.3600  133.5240  103.8870 O.2   203  ALA203     -0.2867
     36  CB       219.7690  133.5700  107.1040 C.3   203  ALA203      0.0290
     37  N        223.9690  127.6750  100.3910 N.3   278  TRP278     -0.1241
     38  CA       223.3510  128.6100  101.3310 C.3   278  TRP278      0.1605
     39  C        221.8590  128.2970  101.6300 C.2   278  TRP278      0.2264
     40  O        221.4990  128.0270  102.7950 O.2   278  TRP278     -0.2867
     41  CB       223.5160  130.0430  100.8130 C.3   278  TRP278      0.0550
     42  CG       223.0410  131.0980  101.7480 C.ar  278  TRP278      0.0003
     43  CD1      221.7840  131.6180  101.8270 C.ar  278  TRP278      0.0946
     44  CD2      223.8270  131.7910  102.7240 C.ar  278  TRP278      0.0152
     45  NE1      221.7360  132.5850  102.8010 N.ar  278  TRP278     -0.2442
     46  CE2      222.9730  132.7100  103.3650 C.ar  278  TRP278      0.0810
     47  CE3      225.1640  131.7170  103.1200 C.ar  278  TRP278      0.0012
     48  CZ2      223.4190  133.5490  104.3850 C.ar  278  TRP278      0.0191
     49  CZ3      225.6020  132.5530  104.1310 C.ar  278  TRP278      0.0001
     50  CH2      224.7330  133.4560  104.7520 C.ar  278  TRP278      0.0015
     51  N        221.1780  124.7080  103.2450 N.3   281  VAL281     -0.1245
     52  CA       221.5230  124.6350  104.6550 C.3   281  VAL281      0.1561
     53  C        220.4830  125.3790  105.4780 C.2   281  VAL281      0.2260
     54  O        219.9990  124.8570  106.4880 O.2   281  VAL281     -0.2867
     55  CB       222.9340  125.2010  104.9300 C.3   281  VAL281      0.0252
     56  CG1      223.1900  125.3060  106.4280 C.3   281  VAL281      0.0019
     57  CG2      223.9830  124.3210  104.2740 C.3   281  VAL281      0.0019
     58  N        218.1480  123.6030  108.3860 N.3   285  LEU285     -0.1245
     59  CA       218.0520  124.0620  109.7620 C.3   285  LEU285      0.1561
     60  C        216.6120  124.3830  110.1490 C.2   285  LEU285      0.2260
     61  O        216.1670  123.9800  111.2180 O.2   285  LEU285     -0.2867
     62  CB       218.9530  125.2770  109.9900 C.3   285  LEU285      0.0270
     63  CG       220.4490  124.9560  109.9220 C.3   285  LEU285      0.0019
     64  CD1      221.2940  126.1750  110.2570 C.3   285  LEU285      0.0001
     65  CD2      220.7940  123.7930  110.8450 C.3   285  LEU285      0.0001
     66  N        213.7360  131.1790  121.9710 N.3   300  LEU300     -0.1231
     67  CA       214.2860  131.8690  123.1330 C.3   300  LEU300      0.1693
     68  C        213.2400  132.7010  123.8680 C.2   300  LEU300      0.2592
     69  O        212.5070  133.4840  123.2610 O.2   300  LEU300     -0.2718
     70  CB       215.4620  132.7480  122.7060 C.3   300  LEU300      0.0284
     71  CG       216.6550  131.9360  122.1980 C.3   300  LEU300      0.0019
     72  CD1      217.7150  132.8300  121.5960 C.3   300  LEU300      0.0001
     73  CD2      217.2370  131.1030  123.3270 C.3   300  LEU300      0.0001
     74  N        213.1820  132.5120  125.1840 N.am  301  ASN301     -0.1960
     75  CA       212.1970  133.1760  126.0310 C.3   301  ASN301      0.1819
     76  C        212.8310  134.2960  126.8530 C.2   301  ASN301      0.2621
     77  O        213.5400  134.0430  127.8260 O.2   301  ASN301     -0.2715
     78  CB       211.5250  132.1500  126.9520 C.3   301  ASN301      0.1195
     79  CG       210.3090  132.7050  127.6720 C.2   301  ASN301      0.2630
     80  OD1      210.1830  133.9140  127.8730 O.2   301  ASN301     -0.2716
     81  ND2      209.4050  131.8130  128.0730 N.am  301  ASN301     -0.0877
     82  N        212.5630  135.5370  126.4620 N.am  302  PHE302     -0.1974
     83  CA       213.0940  136.6910  127.1750 C.3   302  PHE302      0.1639
     84  C        211.9790  137.4980  127.8330 C.2   302  PHE302      0.2290
     85  O        212.1100  138.7080  128.0320 O.2   302  PHE302     -0.2864
     86  CB       213.8990  137.5760  126.2250 C.3   302  PHE302      0.0560
     87  CG       215.1330  136.9130  125.6850 C.ar  302  PHE302     -0.0200
     88  CD1      216.0210  136.2770  126.5380 C.ar  302  PHE302     -0.0042
     89  CD2      215.3990  136.9110  124.3240 C.ar  302  PHE302     -0.0042
     90  CE1      217.1590  135.6610  126.0460 C.ar  302  PHE302     -0.0003
     91  CE2      216.5350  136.2960  123.8240 C.ar  302  PHE302     -0.0003
     92  CZ       217.4160  135.6700  124.6870 C.ar  302  PHE302     -0.0000
     93  N        212.7100  139.6150  131.2630 N.3   305  SER305     -0.1217
     94  CA       214.1150  139.3570  131.5590 C.3   305  SER305      0.1889
     95  C        214.7970  140.5900  132.1380 C.2   305  SER305      0.2288
     96  O        215.8020  140.4790  132.8380 O.2   305  SER305     -0.2866
     97  CB       214.8590  138.8910  130.3040 C.3   305  SER305      0.2089
     98  OG       214.5720  137.5330  130.0170 O.3   305  SER305     -0.2183
@<TRIPOS>BOND
     1    37    38    1
     2    41    38    1
     3    41    42    1
     4    38    39    1
     5    39    40    2
     6    42    43   ar
     7    42    44   ar
     8    43    45   ar
     9    44    47   ar
    10    44    46   ar
    11    45    46   ar
    12    47    49   ar
    13    51    52    1
    14    46    48   ar
    15    35    34    2
    16    49    50   ar
    17    57    55    1
    18    48    50   ar
    19    52    55    1
    20    52    53    1
    21    34    33    1
    22    55    56    1
    23    53    54    2
    24    33    32    1
    25    33    36    1
    26    30    29    2
    27    58    59    1
    28    29    28    1
    29    22    21    2
    30    59    62    1
    31    59    60    1
    32    28    31    1
    33    28    27    1
    34    63    62    1
    35    63    64    1
    36    63    65    1
    37    60    61    2
    38    21    27   am
    39    21    20    1
    40    11    10    2
    41    20    19    1
    42    20    23    1
    43    10     9    1
    44    23    24    1
    45     9    12    1
    46     9     8    1
    47     4     3    2
    48    12    13    1
    49    24    25    1
    50    13    15   ar
    51    13    14   ar
    52    15    17   ar
    53    14    16   ar
    54     3     8   am
    55     3     2    1
    56    17    18   ar
    57    16    18   ar
    58    25    26    1
    59     2     1    1
    60     2     5    1
    61     1     7    1
    62     5     6    1
    63     6     7    1
    64    72    71    1
    65    66    67    1
    66    71    70    1
    67    71    73    1
    68    70    67    1
    69    67    68    1
    70    69    68    2
    71    91    89   ar
    72    91    92   ar
    73    68    74   am
    74    89    87   ar
    75    92    90   ar
    76    74    75    1
    77    87    86    1
    78    87    88   ar
    79    75    76    1
    80    75    78    1
    81    90    88   ar
    82    86    83    1
    83    82    76   am
    84    82    83    1
    85    76    77    2
    86    78    79    1
    87    83    84    1
    88    79    80    2
    89    79    81   am
    90    84    85    2
    91    98    97    1
    92    97    94    1
    93    93    94    1
    94    94    95    1
    95    95    96    2
