@<TRIPOS>MOLECULE
tmp/4yuuW08.pdb
 109 104 0 0 0
SMALL
GASTEIGER

@<TRIPOS>ATOM
      1  N        138.6900  165.6270   27.2860 N.3    37  VAL37      -0.1245
      2  CA       137.3870  166.2730   27.1650 C.3    37  VAL37       0.1561
      3  C        136.2840  165.2270   26.9840 C.2    37  VAL37       0.2260
      4  O        135.1750  165.3850   27.5060 O.2    37  VAL37      -0.2867
      5  CB       137.3650  167.2750   25.9950 C.3    37  VAL37       0.0252
      6  CG1      136.1100  168.1030   26.0420 C.3    37  VAL37       0.0019
      7  CG2      138.5670  168.1960   26.0710 C.3    37  VAL37       0.0019
      8  N        126.0970  176.1760   40.0660 N.3    73  TRP73      -0.1241
      9  CA       125.0800  175.7630   39.1050 C.3    73  TRP73       0.1605
     10  C        124.0800  174.7950   39.7260 C.2    73  TRP73       0.2264
     11  O        124.4620  173.7650   40.2780 O.2    73  TRP73      -0.2867
     12  CB       125.7240  175.1220   37.8750 C.3    73  TRP73       0.0550
     13  CG       126.1520  176.1120   36.8310 C.ar   73  TRP73       0.0003
     14  CD1      125.3390  176.9010   36.0710 C.ar   73  TRP73       0.0946
     15  CD2      127.4940  176.4060   36.4210 C.ar   73  TRP73       0.0152
     16  NE1      126.0900  177.6740   35.2190 N.ar   73  TRP73      -0.2442
     17  CE2      127.4170  177.3890   35.4140 C.ar   73  TRP73       0.0810
     18  CE3      128.7530  175.9380   36.8090 C.ar   73  TRP73       0.0012
     19  CZ2      128.5490  177.9110   34.7910 C.ar   73  TRP73       0.0191
     20  CZ3      129.8760  176.4570   36.1880 C.ar   73  TRP73       0.0001
     21  CH2      129.7660  177.4340   35.1920 C.ar   73  TRP73       0.0015
     22  N        118.3140  172.0450   40.3050 N.3    83  ASN83      -0.1240
     23  CA       118.4110  172.0000   38.8540 C.3    83  ASN83       0.1653
     24  C        119.6440  171.2280   38.3860 C.2    83  ASN83       0.2266
     25  O        120.7790  171.6690   38.5770 O.2    83  ASN83      -0.2867
     26  CB       118.4280  173.4180   38.2830 C.3    83  ASN83       0.1155
     27  CG       118.2290  173.4430   36.7830 C.2    83  ASN83       0.2627
     28  OD1      117.7020  172.4930   36.1990 O.2    83  ASN83      -0.2716
     29  ND2      118.6490  174.5330   36.1480 N.am   83  ASN83      -0.0877
     30  N        120.1840  170.4350   35.2240 N.3    85  TYR85      -0.1228
     31  CA       120.2620  170.6520   33.7790 C.3    85  TYR85       0.1721
     32  C        121.5610  171.3280   33.2910 C.2    85  TYR85       0.2437
     33  O        122.0960  170.9340   32.2470 O.2    85  TYR85      -0.2733
     34  CB       119.0500  171.4640   33.3000 C.3    85  TYR85       0.0547
     35  CG       118.9860  171.6000   31.7960 C.ar   85  TYR85      -0.0200
     36  CD1      118.6110  170.5250   31.0000 C.ar   85  TYR85      -0.0009
     37  CD2      119.3030  172.8000   31.1700 C.ar   85  TYR85      -0.0009
     38  CE1      118.5560  170.6400   29.6220 C.ar   85  TYR85       0.0417
     39  CE2      119.2480  172.9260   29.7920 C.ar   85  TYR85       0.0417
     40  CZ       118.8750  171.8430   29.0240 C.ar   85  TYR85       0.1957
     41  OH       118.8200  171.9610   27.6520 O.3    85  TYR85      -0.2866
     42  N        122.0640  172.3530   34.0150 N.am   86  PRO86      -0.2729
     43  CA       123.3300  172.9380   33.5480 C.3    86  PRO86       0.1401
     44  C        124.4790  171.9250   33.5050 C.2    86  PRO86       0.2269
     45  O        125.3780  172.0430   32.6620 O.2    86  PRO86      -0.2865
     46  CB       123.6070  174.0340   34.5800 C.3    86  PRO86       0.0296
     47  CG       122.2700  174.4080   35.0980 C.3    86  PRO86       0.0237
     48  CD       121.4920  173.1250   35.1350 C.3    86  PRO86       0.0939
     49  N        124.2250  170.2610   30.3740 N.3    89  ALA89      -0.1231
     50  CA       124.6960  171.1800   29.3430 C.3    89  ALA89       0.1694
     51  C        126.2150  171.1150   29.1920 C.2    89  ALA89       0.2592
     52  O        126.7340  170.9230   28.0810 O.2    89  ALA89      -0.2718
     53  CB       124.2510  172.5990   29.6600 C.3    89  ALA89       0.0304
     54  N        126.9250  171.2670   30.3100 N.am   90  THR90      -0.1953
     55  CA       128.3860  171.2180   30.2920 C.3    90  THR90       0.1897
     56  C        128.8910  169.8690   29.7720 C.2    90  THR90       0.2313
     57  O        129.8350  169.8090   28.9670 O.2    90  THR90      -0.2863
     58  CB       128.9840  171.4820   31.6910 C.3    90  THR90       0.1794
     59  OG1      128.5120  170.4920   32.6130 O.3    90  THR90      -0.2208
     60  CG2      128.5880  172.8660   32.1930 C.3    90  THR90       0.0378
     61  N        128.3750  169.7490   25.9450 N.3    93  ILE93      -0.1231
     62  CA       129.3530  170.6340   25.3120 C.3    93  ILE93       0.1692
     63  C        130.7270  169.9650   25.2350 C.2    93  ILE93       0.2592
     64  O        131.3290  169.8440   24.1460 O.2    93  ILE93      -0.2718
     65  CB       129.4790  171.9730   26.0720 C.3    93  ILE93       0.0266
     66  CG1      128.1840  172.7800   25.9570 C.3    93  ILE93       0.0019
     67  CG2      130.6430  172.7880   25.5280 C.3    93  ILE93       0.0020
     68  CD1      128.2370  174.1250   26.6520 C.3    93  ILE93       0.0001
     69  N        131.2030  169.5040   26.3900 N.am   94  HIS94      -0.1976
     70  CA       132.4780  168.8010   26.4460 C.3    94  HIS94       0.1656
     71  C        132.5200  167.6150   25.4820 C.2    94  HIS94       0.2291
     72  O        133.4610  167.4930   24.7170 O.2    94  HIS94      -0.2864
     73  CB       132.7790  168.3370   27.8730 C.3    94  HIS94       0.0771
     74  CG       133.4380  169.3800   28.7160 C.ar   94  HIS94       0.0820
     75  ND1      132.7280  170.3410   29.4050 N.ar   94  HIS94      -0.2267
     76  CD2      134.7460  169.6300   28.9740 C.ar   94  HIS94       0.1154
     77  CE1      133.5670  171.1290   30.0540 C.ar   94  HIS94       0.1986
     78  NE2      134.7970  170.7160   29.8040 N.ar   94  HIS94      -0.2212
     79  N        132.6790  168.7650   21.7380 N.3    97  SER97      -0.1217
     80  CA       134.0340  169.2920   21.5630 C.3    97  SER97       0.1889
     81  C        135.0460  168.1450   21.4500 C.2    97  SER97       0.2288
     82  O        136.0140  168.2240   20.6880 O.2    97  SER97      -0.2866
     83  CB       134.4080  170.2190   22.7170 C.3    97  SER97       0.2089
     84  OG       133.5110  171.3100   22.8000 O.3    97  SER97      -0.2183
     85  N        138.0990  167.7430   18.7220 N.3   101  LEU101     -0.1245
     86  CA       139.4950  167.5030   19.0770 C.3   101  LEU101      0.1561
     87  C        139.9720  166.1240   18.6280 C.2   101  LEU101      0.2260
     88  O        141.1330  165.9440   18.2600 O.2   101  LEU101     -0.2867
     89  CB       139.6990  167.6460   20.5860 C.3   101  LEU101      0.0270
     90  CG       139.5070  169.0480   21.1630 C.3   101  LEU101      0.0019
     91  CD1      139.6670  169.0340   22.6700 C.3   101  LEU101      0.0001
     92  CD2      140.4870  170.0160   20.5290 C.3   101  LEU101      0.0001
     93  N        133.2190  184.7910   36.3640 N.3   154  LYS154     -0.1245
     94  CA       132.0920  183.9480   36.7530 C.3   154  LYS154      0.1561
     95  C        131.6570  184.2010   38.1940 C.2   154  LYS154      0.2260
     96  O        130.4660  184.1740   38.5050 O.2   154  LYS154     -0.2867
     97  CB       132.4460  182.4700   36.5710 C.3   154  LYS154      0.0271
     98  CG       131.4110  181.5020   37.1280 C.3   154  LYS154      0.0035
     99  CD       130.0770  181.6420   36.4200 C.3   154  LYS154      0.0206
    100  CE       129.0460  180.6780   36.9870 C.3   154  LYS154      0.1093
    101  NZ       128.7660  180.9380   38.4260 N.3   154  LYS154     -0.1314
    102  N        128.6910  186.8210   36.9860 N.3   158  ILE158     -0.1245
    103  CA       127.7070  185.8720   36.4690 C.3   158  ILE158      0.1561
    104  C        127.1870  184.9210   37.5480 C.2   158  ILE158      0.2260
    105  O        127.6560  183.7880   37.6710 O.2   158  ILE158     -0.2867
    106  CB       128.2890  185.0440   35.3070 C.3   158  ILE158      0.0252
    107  CG1      129.0370  185.9550   34.3330 C.3   158  ILE158      0.0019
    108  CG2      127.1860  184.2740   34.5890 C.3   158  ILE158      0.0019
    109  CD1      129.6920  185.2180   33.1890 C.3   158  ILE158      0.0001
@<TRIPOS>BOND
     1    88    87    2
     2    87    86    1
     3    85    86    1
     4    86    89    1
     5    92    90    1
     6    89    90    1
     7    82    81    2
     8    90    91    1
     9    81    80    1
    10    80    79    1
    11    80    83    1
    12    83    84    1
    13    64    63    2
    14    72    71    2
    15    63    62    1
    16    63    69   am
    17    62    61    1
    18    62    65    1
    19    71    70    1
    20    67    65    1
    21    66    65    1
    22    66    68    1
    23     5     6    1
    24     5     7    1
    25     5     2    1
    26    69    70    1
    27    70    73    1
    28     3     2    1
    29     3     4    2
    30     2     1    1
    31    41    40    1
    32    73    74    1
    33    52    51    2
    34    74    76   ar
    35    74    75   ar
    36    57    56    2
    37    76    78   ar
    38    40    38   ar
    39    40    39   ar
    40    51    50    1
    41    51    54   am
    42    50    53    1
    43    50    49    1
    44    75    77   ar
    45    38    36   ar
    46    56    55    1
    47    39    37   ar
    48    78    77   ar
    49    55    54    1
    50    55    58    1
    51    36    35   ar
    52    37    35   ar
    53    58    60    1
    54    58    59    1
    55    35    34    1
    56    33    32    2
    57    45    44    2
    58   109   107    1
    59    32    31    1
    60    32    42   am
    61    34    31    1
    62    44    43    1
    63    43    42    1
    64    43    46    1
    65    31    30    1
    66    42    48    1
    67   107   106    1
    68    46    47    1
    69   108   106    1
    70    19    21   ar
    71    19    17   ar
    72    47    48    1
    73    21    20   ar
    74    16    17   ar
    75    16    14   ar
    76   106   103    1
    77    17    15   ar
    78    14    13   ar
    79    29    27   am
    80    20    18   ar
    81    28    27    2
    82    93    94    1
    83    99   100    1
    84    99    98    1
    85    15    18   ar
    86    15    13   ar
    87   103   102    1
    88   103   104    1
    89    97    94    1
    90    97    98    1
    91    94    95    1
    92    27    26    1
    93    13    12    1
    94   100   101    1
    95   104   105    2
    96    12     9    1
    97    95    96    2
    98    26    23    1
    99    24    25    2
   100    24    23    1
   101    23    22    1
   102     9    10    1
   103     9     8    1
   104    10    11    2
