@<TRIPOS>MOLECULE
tmp/4yuuC13.pdb
 96 95 0 0 0
SMALL
GASTEIGER

@<TRIPOS>ATOM
      1  N        207.9640   93.1870  116.9160 N.3   189  LEU189     -0.1231
      2  CA       208.6520   93.5680  115.6810 C.3   189  LEU189      0.1693
      3  C        207.7110   93.8820  114.5030 C.2   189  LEU189      0.2592
      4  O        207.9270   94.8630  113.7870 O.2   189  LEU189     -0.2718
      5  CB       209.6320   92.4930  115.2650 C.3   189  LEU189      0.0284
      6  CG       211.1100   92.8240  115.4660 C.3   189  LEU189      0.0019
      7  CD1      211.9710   91.7660  114.7950 C.3   189  LEU189      0.0001
      8  CD2      211.4940   94.2220  114.9590 C.3   189  LEU189      0.0001
      9  N        206.6600   93.0830  114.3250 N.am  190  LEU190     -0.1966
     10  CA       205.8070   93.2000  113.1410 C.3   190  LEU190      0.1728
     11  C        204.5440   94.0260  113.3780 C.2   190  LEU190      0.2616
     12  O        203.5120   93.7870  112.7490 O.2   190  LEU190     -0.2715
     13  CB       205.4130   91.8120  112.6390 C.3   190  LEU190      0.0311
     14  CG       206.5590   90.8500  112.3260 C.3   190  LEU190      0.0022
     15  CD1      206.0180   89.4850  111.9420 C.3   190  LEU190      0.0001
     16  CD2      207.4510   91.4120  111.2290 C.3   190  LEU190      0.0001
     17  N        204.6340   95.0000  114.2760 N.am  191  LYS191     -0.1963
     18  CA       203.4750   95.7970  114.6640 C.3   191  LYS191      0.1728
     19  C        203.5780   97.2190  114.1180 C.2   191  LYS191      0.2617
     20  O        204.6750   97.7570  113.9710 O.2   191  LYS191     -0.2715
     21  CB       203.3400   95.8090  116.1890 C.3   191  LYS191      0.0311
     22  CG       202.1260   96.5360  116.7270 C.3   191  LYS191      0.0038
     23  CD       201.9980   96.3310  118.2260 C.3   191  LYS191      0.0206
     24  CE       203.2360   96.7960  118.9680 C.3   191  LYS191      0.1093
     25  NZ       203.0790   96.6400  120.4420 N.3   191  LYS191     -0.1314
     26  N        202.4270   97.8130  113.8170 N.am  192  SER192     -0.1936
     27  CA       202.3530   99.1710  113.2890 C.3   192  SER192      0.2040
     28  C        203.0270  100.1910  114.2030 C.2   192  SER192      0.2485
     29  O        203.0540  100.0160  115.4170 O.2   192  SER192     -0.2729
     30  CB       200.8890   99.5580  113.0670 C.3   192  SER192      0.2129
     31  OG       200.7390  100.9600  112.9570 O.3   192  SER192     -0.2179
     32  N        203.5920  101.2540  113.6160 N.am  193  PRO193     -0.2715
     33  CA       204.2120  102.3250  114.4000 C.3   193  PRO193      0.1536
     34  C        203.2310  103.4340  114.7650 C.2   193  PRO193      0.2598
     35  O        203.6240  104.4460  115.3470 O.2   193  PRO193     -0.2715
     36  CB       205.2920  102.8520  113.4570 C.3   193  PRO193      0.0310
     37  CG       204.6970  102.6660  112.1050 C.3   193  PRO193      0.0237
     38  CD       203.8590  101.4090  112.1750 C.3   193  PRO193      0.0939
     39  N        201.9620  103.2440  114.4270 N.am  194  PHE194     -0.1974
     40  CA       200.9650  104.2930  114.6180 C.3   194  PHE194      0.1639
     41  C        200.3220  104.2360  116.0020 C.2   194  PHE194      0.2290
     42  O        200.6500  103.3730  116.8160 O.2   194  PHE194     -0.2864
     43  CB       199.8930  104.2060  113.5280 C.3   194  PHE194      0.0560
     44  CG       200.4120  104.4930  112.1470 C.ar  194  PHE194     -0.0200
     45  CD1      200.6900  105.7920  111.7550 C.ar  194  PHE194     -0.0042
     46  CD2      200.6220  103.4650  111.2400 C.ar  194  PHE194     -0.0042
     47  CE1      201.1700  106.0590  110.4830 C.ar  194  PHE194     -0.0003
     48  CE2      201.1010  103.7250  109.9710 C.ar  194  PHE194     -0.0003
     49  CZ       201.3760  105.0250  109.5920 C.ar  194  PHE194     -0.0000
     50  N        199.5630  101.4010  118.7860 N.3   197  GLU197     -0.1245
     51  CA       200.4260  100.2710  118.4640 C.3   197  GLU197      0.1567
     52  C        201.8430  100.5200  118.9710 C.2   197  GLU197      0.2260
     53  O        202.2860   99.8790  119.9210 O.2   197  GLU197     -0.2867
     54  CB       200.4260  100.0150  116.9560 C.3   197  GLU197      0.0388
     55  CG       199.0390   99.9300  116.3070 C.3   197  GLU197      0.1160
     56  CD       198.1970   98.7580  116.7940 C.2   197  GLU197      0.3649
     57  OE1      198.7590   97.7110  117.1690 O.co2 197  GLU197     -0.2457
     58  OE2      196.9610   98.8770  116.7900 O.co2 197  GLU197     -0.2457
     59  N        204.8440  100.0600  117.6120 N.3   199  TRP199     -0.1241
     60  CA       205.9340   99.2120  117.1240 C.3   199  TRP199      0.1605
     61  C        206.7440   98.6300  118.2890 C.2   199  TRP199      0.2264
     62  O        206.2070   97.9050  119.1250 O.2   199  TRP199     -0.2867
     63  CB       206.8440  100.0030  116.1690 C.3   199  TRP199      0.0550
     64  CG       207.8370   99.1620  115.4080 C.ar  199  TRP199      0.0003
     65  CD1      207.6620   97.8840  114.9610 C.ar  199  TRP199      0.0946
     66  CD2      209.1670   99.5410  115.0280 C.ar  199  TRP199      0.0152
     67  NE1      208.7960   97.4480  114.3170 N.ar  199  TRP199     -0.2442
     68  CE2      209.7340   98.4450  114.3460 C.ar  199  TRP199      0.0810
     69  CE3      209.9300  100.7010  115.1950 C.ar  199  TRP199      0.0012
     70  CZ2      211.0300   98.4780  113.8310 C.ar  199  TRP199      0.0191
     71  CZ3      211.2160  100.7300  114.6830 C.ar  199  TRP199      0.0001
     72  CH2      211.7530   99.6250  114.0080 C.ar  199  TRP199      0.0015
     73  N        218.2650  105.8600  111.0310 N.3   257  LEU257     -0.1245
     74  CA       217.0890  105.1150  111.4650 C.3   257  LEU257      0.1561
     75  C        217.0870  104.9230  112.9870 C.2   257  LEU257      0.2260
     76  O        216.0820  105.1820  113.6670 O.2   257  LEU257     -0.2867
     77  CB       217.0320  103.7610  110.7530 C.3   257  LEU257      0.0270
     78  CG       215.8660  102.8360  111.0950 C.3   257  LEU257      0.0019
     79  CD1      214.5360  103.5190  110.8190 C.3   257  LEU257      0.0001
     80  CD2      215.9750  101.5370  110.3140 C.3   257  LEU257      0.0001
     81  N        216.3250  108.1730  114.9130 N.3   260  GLN260     -0.1231
     82  CA       214.8880  108.4340  114.9480 C.3   260  GLN260      0.1698
     83  C        214.1820  107.5410  115.9710 C.2   260  GLN260      0.2592
     84  O        213.3720  108.0200  116.7860 O.2   260  GLN260     -0.2718
     85  CB       214.2740  108.2370  113.5600 C.3   260  GLN260      0.0381
     86  CG       214.7420  109.2450  112.5250 C.3   260  GLN260      0.0905
     87  CD       214.3380  110.6630  112.8700 C.2   260  GLN260      0.2608
     88  OE1      213.1870  110.9240  113.2220 O.2   260  GLN260     -0.2717
     89  NE2      215.2880  111.5870  112.7820 N.am  260  GLN260     -0.0878
     90  N        214.4970  106.2480  115.9280 N.am  261  THR261     -0.1953
     91  CA       213.9080  105.2860  116.8610 C.3   261  THR261      0.1897
     92  C        214.1730  105.6690  118.3220 C.2   261  THR261      0.2313
     93  O        213.2790  105.6010  119.1640 O.2   261  THR261     -0.2863
     94  CB       214.4400  103.8620  116.6060 C.3   261  THR261      0.1794
     95  OG1      214.0510  103.4310  115.2950 O.3   261  THR261     -0.2208
     96  CG2      213.8840  102.8890  117.6370 C.3   261  THR261      0.0378
@<TRIPOS>BOND
     1    49    48   ar
     2    49    47   ar
     3    48    46   ar
     4    80    78    1
     5    47    45   ar
     6    77    78    1
     7    77    74    1
     8    79    78    1
     9    73    74    1
    10    16    14    1
    11    46    44   ar
    12    74    75    1
    13    45    44   ar
    14    15    14    1
    15    37    38    1
    16    37    36    1
    17    44    43    1
    18    38    32    1
    19    14    13    1
    20    86    87    1
    21    86    85    1
    22    13    10    1
    23    12    11    2
    24    89    87   am
    25    87    88    2
    26    31    30    1
    27    75    76    2
    28    30    27    1
    29    10    11    1
    30    10     9    1
    31    27    26    1
    32    27    28    1
    33    11    17   am
    34    36    33    1
    35    43    40    1
    36    85    82    1
    37    32    28   am
    38    32    33    1
    39     4     3    2
    40    26    19   am
    41    70    72   ar
    42    70    68   ar
    43    20    19    2
    44    72    71   ar
    45    19    18    1
    46    28    29    2
    47    17    18    1
    48    67    68   ar
    49    67    65   ar
    50     9     3   am
    51    68    66   ar
    52    33    34    1
    53    39    40    1
    54    39    34   am
    55     3     2    1
    56    40    41    1
    57    18    21    1
    58    71    69   ar
    59    34    35    2
    60     7     6    1
    61    81    82    1
    62    82    83    1
    63     8     6    1
    64    65    64   ar
    65    66    69   ar
    66    66    64   ar
    67     5     6    1
    68     5     2    1
    69    95    94    1
    70    64    63    1
    71     2     1    1
    72    90    83   am
    73    90    91    1
    74    83    84    2
    75    41    42    2
    76    63    60    1
    77    21    22    1
    78    55    56    1
    79    55    54    1
    80    94    91    1
    81    94    96    1
    82    22    23    1
    83    58    56   ar
    84    56    57   ar
    85    91    92    1
    86    54    51    1
    87    60    59    1
    88    60    61    1
    89    23    24    1
    90    61    62    2
    91    92    93    2
    92    51    50    1
    93    51    52    1
    94    24    25    1
    95    52    53    2
