@<TRIPOS>MOLECULE
tmp/4yuuV02.pdb
 166 156 0 0 0
SMALL
GASTEIGER

@<TRIPOS>ATOM
      1  N        191.7260  111.0470   60.6130 N.3    18  LEU18      -0.1245
      2  CA       190.2690  111.0060   60.6560 C.3    18  LEU18       0.1561
      3  C        189.8410  110.2960   61.9330 C.2    18  LEU18       0.2260
      4  O        188.9760  110.7780   62.6780 O.2    18  LEU18      -0.2867
      5  CB       189.6970  110.2960   59.4260 C.3    18  LEU18       0.0270
      6  CG       188.1910  110.0140   59.4290 C.3    18  LEU18       0.0019
      7  CD1      187.3800  111.2960   59.3140 C.3    18  LEU18       0.0001
      8  CD2      187.8170  109.0440   58.3220 C.3    18  LEU18       0.0001
      9  N        187.9820  111.8540   65.2060 N.3    22  HIS22      -0.1241
     10  CA       186.7650  111.2410   65.7260 C.3    22  HIS22       0.1621
     11  C        186.9190  110.8820   67.1970 C.2    22  HIS22       0.2264
     12  O        185.9730  110.9880   67.9810 O.2    22  HIS22      -0.2867
     13  CB       186.4010  109.9950   64.9250 C.3    22  HIS22       0.0745
     14  CG       185.8200  110.2910   63.5820 C.ar   22  HIS22       0.0817
     15  ND1      185.4090  109.3040   62.7160 N.ar   22  HIS22      -0.2268
     16  CD2      185.5770  111.4700   62.9590 C.ar   22  HIS22       0.1154
     17  CE1      184.9400  109.8610   61.6120 C.ar   22  HIS22       0.1986
     18  NE2      185.0380  111.1690   61.7330 N.ar   22  HIS22      -0.2212
     19  N        190.3840  103.0080   52.0830 N.3   132  LEU132     -0.1245
     20  CA       189.5410  102.2930   53.0290 C.3   132  LEU132      0.1561
     21  C        188.4730  101.4950   52.2880 C.2   132  LEU132      0.2260
     22  O        187.7190  102.0490   51.4910 O.2   132  LEU132     -0.2867
     23  CB       188.8820  103.2650   54.0140 C.3   132  LEU132      0.0270
     24  CG       189.8000  104.0580   54.9460 C.3   132  LEU132      0.0019
     25  CD1      188.9880  104.9910   55.8310 C.3   132  LEU132      0.0001
     26  CD2      190.6480  103.1220   55.7950 C.3   132  LEU132      0.0001
     27  N        185.4170  100.6510   52.4080 N.3   134  LEU134     -0.1231
     28  CA       184.1960  101.0550   53.1080 C.3   134  LEU134      0.1678
     29  C        183.0690  100.0080   53.1710 C.2   134  LEU134      0.2434
     30  O        182.3630   99.9420   54.1750 O.2   134  LEU134     -0.2733
     31  CB       183.6560  102.3410   52.4790 C.3   134  LEU134      0.0284
     32  CG       184.6440  103.5110   52.5170 C.3   134  LEU134      0.0019
     33  CD1      184.0700  104.7460   51.8420 C.3   134  LEU134      0.0001
     34  CD2      185.0500  103.8190   53.9500 C.3   134  LEU134      0.0001
     35  N        182.8740   99.2030   52.1060 N.am  135  PRO135     -0.2729
     36  CA       181.8490   98.1590   52.2540 C.3   135  PRO135      0.1401
     37  C        182.1480   97.1400   53.3590 C.2   135  PRO135      0.2269
     38  O        181.2690   96.8430   54.1750 O.2   135  PRO135     -0.2865
     39  CB       181.8480   97.4820   50.8810 C.3   135  PRO135      0.0296
     40  CG       182.2720   98.5500   49.9490 C.3   135  PRO135      0.0237
     41  CD       183.2970   99.3480   50.7010 C.3   135  PRO135      0.0939
     42  N        184.2610   97.4620   55.8520 N.3   137  VAL137     -0.1231
     43  CA       184.2540   98.2090   57.1040 C.3   137  VAL137      0.1692
     44  C        182.8240   98.3170   57.6190 C.2   137  VAL137      0.2592
     45  O        182.5590   98.1150   58.8090 O.2   137  VAL137     -0.2718
     46  CB       184.8530   99.6170   56.9310 C.3   137  VAL137      0.0266
     47  CG1      184.7470  100.4020   58.2240 C.3   137  VAL137      0.0020
     48  CG2      186.3010   99.5300   56.4810 C.3   137  VAL137      0.0020
     49  N        181.9010   98.6190   56.7100 N.am  138  PHE138     -0.1976
     50  CA       180.4890   98.6760   57.0520 C.3   138  PHE138      0.1639
     51  C        179.9990   97.3260   57.5440 C.2   138  PHE138      0.2290
     52  O        179.1780   97.2580   58.4540 O.2   138  PHE138     -0.2864
     53  CB       179.6410   99.1220   55.8620 C.3   138  PHE138      0.0560
     54  CG       178.1710   98.8880   56.0580 C.ar  138  PHE138     -0.0200
     55  CD1      177.4320   99.7090   56.8960 C.ar  138  PHE138     -0.0042
     56  CD2      177.5300   97.8380   55.4230 C.ar  138  PHE138     -0.0042
     57  CE1      176.0780   99.4900   57.0870 C.ar  138  PHE138     -0.0003
     58  CE2      176.1770   97.6150   55.6110 C.ar  138  PHE138     -0.0003
     59  CZ       175.4510   98.4420   56.4450 C.ar  138  PHE138     -0.0000
     60  N        181.4260   96.9410   61.2240 N.3   141  HIS141     -0.1226
     61  CA       180.7330   97.8520   62.1310 C.3   141  HIS141      0.1752
     62  C        179.2810   97.4560   62.3370 C.2   141  HIS141      0.2595
     63  O        178.7370   97.6150   63.4280 O.2   141  HIS141     -0.2718
     64  CB       180.8100   99.2840   61.6130 C.3   141  HIS141      0.0759
     65  CG       182.1780   99.8730   61.6870 C.ar  141  HIS141      0.0818
     66  ND1      182.4610  101.1610   61.2860 N.ar  141  HIS141     -0.2268
     67  CD2      183.3490   99.3470   62.1230 C.ar  141  HIS141      0.1154
     68  CE1      183.7460  101.4020   61.4700 C.ar  141  HIS141      0.1986
     69  NE2      184.3070  100.3200   61.9730 N.ar  141  HIS141     -0.2212
     70  N        178.6590   96.9430   61.2830 N.am  142  LEU142     -0.1980
     71  CA       177.2770   96.4950   61.3650 C.3   142  LEU142      0.1596
     72  C        177.1830   95.2520   62.2350 C.2   142  LEU142      0.2287
     73  O        176.2200   95.0860   62.9790 O.2   142  LEU142     -0.2864
     74  CB       176.7080   96.2120   59.9750 C.3   142  LEU142      0.0297
     75  CG       175.2600   95.7250   59.9230 C.3   142  LEU142      0.0022
     76  CD1      174.3280   96.7330   60.5760 C.3   142  LEU142      0.0001
     77  CD2      174.8440   95.4560   58.4900 C.3   142  LEU142      0.0001
     78  N        179.2660   94.5180   64.7300 N.3   144  LEU144     -0.1231
     79  CA       179.4450   95.0390   66.0840 C.3   144  LEU144      0.1693
     80  C        178.1480   95.6370   66.6310 C.2   144  LEU144      0.2592
     81  O        177.6780   95.2600   67.7080 O.2   144  LEU144     -0.2718
     82  CB       180.5480   96.0970   66.1080 C.3   144  LEU144      0.0284
     83  CG       181.9440   95.6650   65.6710 C.3   144  LEU144      0.0019
     84  CD1      182.8120   96.8910   65.4610 C.3   144  LEU144      0.0001
     85  CD2      182.5670   94.7290   66.6950 C.3   144  LEU144      0.0001
     86  N        177.5780   96.5680   65.8720 N.am  145  SER145     -0.1952
     87  CA       176.3680   97.2740   66.2790 C.3   145  SER145      0.1924
     88  C        175.1990   96.3240   66.5120 C.2   145  SER145      0.2314
     89  O        174.4750   96.4520   67.4960 O.2   145  SER145     -0.2863
     90  CB       175.9850   98.3180   65.2260 C.3   145  SER145      0.2116
     91  OG       175.5600   97.7610   64.0290 O.3   145  SER145     -0.2180
     92  N        175.7640   94.1410   69.6010 N.3   148  LEU148     -0.1245
     93  CA       175.5240   94.9500   70.7900 C.3   148  LEU148      0.1561
     94  C        174.0320   95.2000   70.9960 C.2   148  LEU148      0.2260
     95  O        173.5560   95.2690   72.1300 O.2   148  LEU148     -0.2867
     96  CB       176.2760   96.2770   70.6870 C.3   148  LEU148      0.0270
     97  CG       176.2960   97.1600   71.9340 C.3   148  LEU148      0.0019
     98  CD1      176.8470   96.3900   73.1240 C.3   148  LEU148      0.0001
     99  CD2      177.1190   98.4120   71.6820 C.3   148  LEU148      0.0001
    100  N        176.5040  105.1500   43.8430 N.3   228  LEU228     -0.1245
    101  CA       176.6060  105.7180   45.1830 C.3   228  LEU228      0.1561
    102  C        178.0140  106.2090   45.5080 C.2   228  LEU228      0.2260
    103  O        178.2690  106.6630   46.6250 O.2   228  LEU228     -0.2867
    104  CB       176.1580  104.6940   46.2280 C.3   228  LEU228      0.0270
    105  CG       174.6620  104.3840   46.2340 C.3   228  LEU228      0.0019
    106  CD1      174.3330  103.3450   47.2900 C.3   228  LEU228      0.0001
    107  CD2      173.8660  105.6570   46.4620 C.3   228  LEU228      0.0001
    108  N        180.9550  104.6190   46.0080 N.3   230  MET230     -0.1245
    109  CA       181.4080  103.9280   47.2120 C.3   230  MET230      0.1570
    110  C        182.9230  103.9820   47.4110 C.2   230  MET230      0.2261
    111  O        183.4530  103.3930   48.3510 O.2   230  MET230     -0.2867
    112  CB       180.9380  102.4750   47.1900 C.3   230  MET230      0.0387
    113  CG       179.4300  102.3340   47.1040 C.3   230  MET230      0.0595
    114  SD       178.8460  100.6540   47.3900 S.3   230  MET230     -0.1393
    115  CE       177.0990  100.8510   47.0680 C.3   230  MET230      0.0692
    116  N        184.3220  108.6360   50.6810 N.3   233  ILE233     -0.1245
    117  CA       183.8370  108.4970   52.0530 C.3   233  ILE233      0.1561
    118  C        182.6960  109.4830   52.3650 C.2   233  ILE233      0.2260
    119  O        181.8840  109.2780   53.2880 O.2   233  ILE233     -0.2867
    120  CB       185.0080  108.6860   53.0510 C.3   233  ILE233      0.0252
    121  CG1      184.5960  108.2910   54.4700 C.3   233  ILE233      0.0019
    122  CG2      185.5580  110.1100   52.9850 C.3   233  ILE233      0.0019
    123  CD1      185.7570  108.2290   55.4290 C.3   233  ILE233      0.0001
    124  N        180.1190  109.9220   50.7420 N.3   235  THR235     -0.1203
    125  CA       178.8240  109.2930   50.5110 C.3   235  THR235      0.1994
    126  C        178.3700  108.6060   51.7990 C.2   235  THR235      0.2617
    127  O        177.1750  108.6070   52.1400 O.2   235  THR235     -0.2717
    128  CB       178.8610  108.2830   49.3220 C.3   235  THR235      0.1784
    129  OG1      177.5310  108.0530   48.8450 O.3   235  THR235     -0.2211
    130  CG2      179.4900  106.9520   49.7030 C.3   235  THR235      0.0376
    131  N        179.3360  108.0570   52.5320 N.am  236  VAL236     -0.1979
    132  CA       179.0640  107.4570   53.8250 C.3   236  VAL236      0.1595
    133  C        178.6090  108.5620   54.7500 C.2   236  VAL236      0.2287
    134  O        177.6680  108.3850   55.5290 O.2   236  VAL236     -0.2864
    135  CB       180.2950  106.7450   54.4180 C.3   236  VAL236      0.0276
    136  CG1      179.9290  106.0500   55.7220 C.3   236  VAL236      0.0022
    137  CG2      180.8720  105.7550   53.4250 C.3   236  VAL236      0.0022
    138  N        174.8500  109.4570   53.7220 N.3   239  SER239     -0.1202
    139  CA       173.9130  108.4270   54.1640 C.3   239  SER239      0.2020
    140  C        173.7570  108.4230   55.6940 C.2   239  SER239      0.2619
    141  O        172.6340  108.3740   56.2210 O.2   239  SER239     -0.2717
    142  CB       174.3690  107.0540   53.6690 C.3   239  SER239      0.2103
    143  OG       175.6850  106.7630   54.1150 O.3   239  SER239     -0.2182
    144  N        174.8870  108.4840   56.3950 N.am  240  SER240     -0.1951
    145  CA       174.8830  108.5000   57.8520 C.3   240  SER240      0.1924
    146  C        174.1020  109.6920   58.3860 C.2   240  SER240      0.2314
    147  O        173.3090  109.5510   59.3180 O.2   240  SER240     -0.2863
    148  CB       176.3120  108.5260   58.3960 C.3   240  SER240      0.2116
    149  OG       177.0040  107.3350   58.0620 O.3   240  SER240     -0.2180
    150  N        171.7260  111.2660   56.8590 N.3   242  ALA242     -0.1231
    151  CA       170.3210  110.9670   56.5830 C.3   242  ALA242      0.1694
    152  C        169.7050  110.1090   57.6920 C.2   242  ALA242      0.2592
    153  O        168.6790  110.4780   58.2980 O.2   242  ALA242     -0.2718
    154  CB       170.1810  110.2740   55.2370 C.3   242  ALA242      0.0304
    155  N        170.3520  108.9750   57.9590 N.am  243  ALA243     -0.1966
    156  CA       169.9090  108.0630   59.0080 C.3   243  ALA243      0.1728
    157  C        169.7560  108.7900   60.3440 C.2   243  ALA243      0.2616
    158  O        168.7710  108.6040   61.0710 O.2   243  ALA243     -0.2715
    159  CB       170.8830  106.9060   59.1450 C.3   243  ALA243      0.0334
    160  N        170.7320  109.6420   60.6390 N.am  244  VAL244     -0.1977
    161  CA       170.7860  110.3530   61.9060 C.3   244  VAL244      0.1596
    162  C        169.6370  111.3470   62.0720 C.2   244  VAL244      0.2287
    163  O        169.0380  111.4180   63.1470 O.2   244  VAL244     -0.2864
    164  CB       172.1380  111.0820   62.0680 C.3   244  VAL244      0.0276
    165  CG1      172.0330  112.1940   63.0800 C.3   244  VAL244      0.0022
    166  CG2      173.2250  110.0950   62.4770 C.3   244  VAL244      0.0022
@<TRIPOS>BOND
     1   100   101    1
     2   101   102    1
     3   101   104    1
     4   102   103    2
     5   108   109    1
     6   104   105    1
     7   105   107    1
     8   105   106    1
     9   115   114    1
    10   113   112    1
    11   113   114    1
    12   112   109    1
    13   109   110    1
    14   110   111    2
    15   129   128    1
    16   128   130    1
    17   128   125    1
    18    40    41    1
    19    40    39    1
    20   125   124    1
    21   125   126    1
    22   116   117    1
    23    41    35    1
    24    39    36    1
    25    22    21    2
    26   126   127    2
    27   126   131   am
    28    33    32    1
    29   117   118    1
    30   117   120    1
    31    19    20    1
    32    35    36    1
    33    35    29   am
    34    36    37    1
    35    21    20    1
    36   118   119    2
    37    27    28    1
    38    31    32    1
    39    31    28    1
    40    32    34    1
    41   131   132    1
    42   122   120    1
    43    20    23    1
    44   120   121    1
    45    28    29    1
    46    29    30    2
    47    37    38    2
    48   137   135    1
    49   142   143    1
    50   142   139    1
    51   138   139    1
    52   132   135    1
    53   132   133    1
    54    23    24    1
    55   139   140    1
    56   135   136    1
    57   121   123    1
    58   133   134    2
    59    24    26    1
    60    24    25    1
    61   154   151    1
    62    56    58   ar
    63    56    54   ar
    64    58    59   ar
    65   140   141    2
    66   140   144   am
    67    42    43    1
    68    53    54    1
    69    53    50    1
    70    54    55   ar
    71   144   145    1
    72    59    57   ar
    73    48    46    1
    74   151   150    1
    75   151   152    1
    76    49    50    1
    77    49    44   am
    78    55    57   ar
    79    46    43    1
    80    46    47    1
    81    50    51    1
    82    43    44    1
    83    51    52    2
    84    44    45    2
    85   152   155   am
    86   152   153    2
    87   145   146    1
    88   145   148    1
    89   155   156    1
    90   149   148    1
    91     8     6    1
    92   146   147    2
    93    77    75    1
    94   156   159    1
    95   156   157    1
    96     7     6    1
    97     5     6    1
    98     5     2    1
    99    75    74    1
   100    75    76    1
   101    74    71    1
   102   157   160   am
   103   157   158    2
   104     1     2    1
   105   160   161    1
   106     2     3    1
   107    60    61    1
   108    70    71    1
   109    70    62   am
   110    66    68   ar
   111    66    65   ar
   112    71    72    1
   113    68    69   ar
   114    17    18   ar
   115    17    15   ar
   116    64    65    1
   117    64    61    1
   118    65    67   ar
   119    18    16   ar
   120   161   164    1
   121   161   162    1
   122     3     4    2
   123    69    67   ar
   124   164   166    1
   125   164   165    1
   126   162   163    2
   127    61    62    1
   128    72    73    2
   129    62    63    2
   130    15    14   ar
   131    16    14   ar
   132    14    13    1
   133    91    90    1
   134    78    79    1
   135    13    10    1
   136     9    10    1
   137    90    87    1
   138    84    83    1
   139    83    82    1
   140    83    85    1
   141    10    11    1
   142    86    87    1
   143    86    80   am
   144    79    82    1
   145    79    80    1
   146    87    88    1
   147    88    89    2
   148    80    81    2
   149    11    12    2
   150    92    93    1
   151    96    93    1
   152    96    97    1
   153    93    94    1
   154    94    95    2
   155    99    97    1
   156    97    98    1
