@<TRIPOS>MOLECULE
tmp/4yuuV06.pdb
 100 98 0 0 0
SMALL
GASTEIGER

@<TRIPOS>ATOM
      1  N        192.8970  127.0070   51.8410 N.3     2  LEU2       -0.1245
      2  CA       191.5700  126.6680   52.3330 C.3     2  LEU2        0.1561
      3  C        190.8710  127.8670   52.9640 C.2     2  LEU2        0.2260
      4  O        191.4690  128.5840   53.7680 O.2     2  LEU2       -0.2867
      5  CB       191.6580  125.5350   53.3570 C.3     2  LEU2        0.0270
      6  CG       192.0590  124.1510   52.8580 C.3     2  LEU2        0.0019
      7  CD1      192.0820  123.1750   54.0200 C.3     2  LEU2        0.0001
      8  CD2      191.0980  123.6800   51.7930 C.3     2  LEU2        0.0001
      9  N        187.9350  129.2610   55.6200 N.3     4  TRP4       -0.1241
     10  CA       187.8370  128.8220   57.0100 C.3     4  TRP4        0.1605
     11  C        186.8790  127.6410   57.1810 C.2     4  TRP4        0.2264
     12  O        187.2240  126.6610   57.8650 O.2     4  TRP4       -0.2867
     13  CB       187.4180  129.9640   57.9360 C.3     4  TRP4        0.0550
     14  CG       186.0950  130.5920   57.6370 C.ar    4  TRP4        0.0003
     15  CD1      185.8640  131.6530   56.8150 C.ar    4  TRP4        0.0946
     16  CD2      184.8250  130.2230   58.1850 C.ar    4  TRP4        0.0152
     17  NE1      184.5260  131.9590   56.8000 N.ar    4  TRP4       -0.2442
     18  CE2      183.8670  131.0970   57.6320 C.ar    4  TRP4        0.0810
     19  CE3      184.4030  129.2330   59.0790 C.ar    4  TRP4        0.0012
     20  CZ2      182.5080  131.0110   57.9480 C.ar    4  TRP4        0.0191
     21  CZ3      183.0480  129.1490   59.3880 C.ar    4  TRP4        0.0001
     22  CH2      182.1210  130.0350   58.8240 C.ar    4  TRP4        0.0015
     23  N        188.2280  124.2890   56.3270 N.3     7  VAL7       -0.1231
     24  CA       189.3850  123.7940   57.0660 C.3     7  VAL7        0.1692
     25  C        189.2600  122.3100   57.2630 C.2     7  VAL7        0.2592
     26  O        190.2460  121.5390   56.9950 O.2     7  VAL7       -0.2718
     27  CB       189.6370  124.4780   58.4760 C.3     7  VAL7        0.0266
     28  CG1      190.1200  125.9490   58.2930 C.3     7  VAL7        0.0020
     29  CG2      188.4640  124.3350   59.3950 C.3     7  VAL7        0.0020
     30  N        188.0770  121.8540   57.6800 N.am    8  HIS8       -0.1976
     31  CA       188.2310  120.4450   58.1740 C.3     8  HIS8        0.1656
     32  C        188.5210  119.3920   57.0840 C.2     8  HIS8        0.2291
     33  O        189.0620  118.2720   57.3910 O.2     8  HIS8       -0.2864
     34  CB       187.0600  120.0100   59.0330 C.3     8  HIS8        0.0771
     35  CG       187.1290  120.6060   60.3910 C.ar    8  HIS8        0.0820
     36  ND1      186.0210  120.9790   61.1170 N.ar    8  HIS8       -0.2267
     37  CD2      188.2040  120.9980   61.1120 C.ar    8  HIS8        0.1154
     38  CE1      186.4130  121.5140   62.2620 C.ar    8  HIS8        0.1986
     39  NE2      187.7290  121.5330   62.2820 N.ar    8  HIS8       -0.2212
     40  N        191.0160  118.9250   55.5940 N.3    10  VAL10      -0.1231
     41  CA       192.3630  118.3040   55.5790 C.3    10  VAL10       0.1692
     42  C        192.4040  116.8850   56.1550 C.2    10  VAL10       0.2591
     43  O        193.4550  116.2620   56.1780 O.2    10  VAL10      -0.2718
     44  CB       193.4380  119.1210   56.3310 C.3    10  VAL10       0.0266
     45  CG1      193.7640  120.4140   55.5890 C.3    10  VAL10       0.0020
     46  CG2      193.0430  119.3640   57.7720 C.3    10  VAL10       0.0020
     47  N        191.2720  116.3580   56.6170 N.am   11  VAL11      -0.1980
     48  CA       191.3340  114.9800   57.1370 C.3    11  VAL11       0.1595
     49  C        190.7200  113.9010   56.2010 C.2    11  VAL11       0.2287
     50  O        190.8640  112.6940   56.4470 O.2    11  VAL11      -0.2864
     51  CB       190.7080  114.9200   58.5720 C.3    11  VAL11       0.0276
     52  CG1      189.4750  114.0520   58.6400 C.3    11  VAL11       0.0022
     53  CG2      191.7590  114.4740   59.5660 C.3    11  VAL11       0.0022
     54  N        190.7000  112.5070   64.9500 N.3    21  VAL21      -0.1245
     55  CA       189.7170  113.5690   65.0760 C.3    21  VAL21       0.1561
     56  C        188.3820  113.0460   65.6410 C.2    21  VAL21       0.2260
     57  O        187.7390  113.7030   66.4820 O.2    21  VAL21      -0.2867
     58  CB       189.5140  114.2500   63.7060 C.3    21  VAL21       0.0252
     59  CG1      188.0580  114.3760   63.3710 C.3    21  VAL21       0.0019
     60  CG2      190.2150  115.6040   63.6730 C.3    21  VAL21       0.0019
     61  N        188.7780  112.5260   69.2240 N.3    24  MET24      -0.1230
     62  CA       188.6940  113.7990   69.9320 C.3    24  MET24       0.1702
     63  C        187.2360  114.1990   70.1530 C.2    24  MET24       0.2592
     64  O        186.8420  114.6010   71.2630 O.2    24  MET24      -0.2718
     65  CB       189.4380  114.8950   69.1650 C.3    24  MET24       0.0401
     66  CG       189.4970  116.2240   69.9020 C.3    24  MET24       0.0596
     67  SD       190.2900  116.1000   71.5200 S.3    24  MET24      -0.1393
     68  CE       191.9490  115.6080   71.0530 C.3    24  MET24       0.0692
     69  N        186.4320  114.0800   69.0990 N.am   25  HIS25      -0.1976
     70  CA       185.0080  114.3840   69.2130 C.3    25  HIS25       0.1656
     71  C        184.3270  113.5180   70.2760 C.2    25  HIS25       0.2291
     72  O        183.5800  114.0170   71.1270 O.2    25  HIS25      -0.2864
     73  CB       184.3120  114.1950   67.8670 C.3    25  HIS25       0.0771
     74  CG       182.8460  114.4770   67.9090 C.ar   25  HIS25       0.0820
     75  ND1      181.9060  113.4940   68.1380 N.ar   25  HIS25      -0.2267
     76  CD2      182.1560  115.6340   67.7690 C.ar   25  HIS25       0.1154
     77  CE1      180.7000  114.0340   68.1370 C.ar   25  HIS25       0.1986
     78  NE2      180.8260  115.3300   67.9090 N.ar   25  HIS25      -0.2212
     79  N        185.2430  114.4770   73.7260 N.3    28  LEU28      -0.1245
     80  CA       184.5100  115.6750   74.1150 C.3    28  LEU28       0.1561
     81  C        183.0720  115.3620   74.5170 C.2    28  LEU28       0.2260
     82  O        182.5450  115.9410   75.4690 O.2    28  LEU28      -0.2867
     83  CB       184.5190  116.6950   72.9840 C.3    28  LEU28       0.0270
     84  CG       185.8550  117.3960   72.7620 C.3    28  LEU28       0.0019
     85  CD1      185.7650  118.2460   71.5300 C.3    28  LEU28       0.0001
     86  CD2      186.2220  118.2400   73.9730 C.3    28  LEU28       0.0001
     87  N        196.8800  110.9180   65.9770 N.3   114  TRP114     -0.1241
     88  CA       197.2660  112.1020   65.2290 C.3   114  TRP114      0.1605
     89  C        198.7580  112.0520   64.9320 C.2   114  TRP114      0.2264
     90  O        199.1860  112.3380   63.8100 O.2   114  TRP114     -0.2867
     91  CB       196.9220  113.3800   65.9890 C.3   114  TRP114      0.0550
     92  CG       197.2670  114.6170   65.2240 C.ar  114  TRP114      0.0003
     93  CD1      198.4510  115.2910   65.2530 C.ar  114  TRP114      0.0946
     94  CD2      196.4270  115.3220   64.3030 C.ar  114  TRP114      0.0152
     95  NE1      198.4010  116.3760   64.4130 N.ar  114  TRP114     -0.2442
     96  CE2      197.1650  116.4180   63.8160 C.ar  114  TRP114      0.0810
     97  CE3      195.1170  115.1380   63.8440 C.ar  114  TRP114      0.0012
     98  CZ2      196.6440  117.3250   62.8970 C.ar  114  TRP114      0.0191
     99  CZ3      194.6010  116.0390   62.9290 C.ar  114  TRP114      0.0001
    100  CH2      195.3620  117.1180   62.4670 C.ar  114  TRP114      0.0015
@<TRIPOS>BOND
     1     8     6    1
     2     1     2    1
     3     2     3    1
     4     2     5    1
     5     6     5    1
     6     6     7    1
     7     3     4    2
     8    41    40    1
     9    41    42    1
    10    41    44    1
    11    45    44    1
    12     9    10    1
    13    42    43    2
    14    42    47   am
    15    49    50    2
    16    49    48    1
    17    23    24    1
    18    44    46    1
    19    47    48    1
    20    17    15   ar
    21    17    18   ar
    22    15    14   ar
    23    26    25    2
    24    10    11    1
    25    10    13    1
    26    24    25    1
    27    24    27    1
    28    32    33    2
    29    32    31    1
    30    48    51    1
    31    11    12    2
    32    25    30   am
    33    18    20   ar
    34    18    16   ar
    35    14    13    1
    36    14    16   ar
    37    30    31    1
    38    20    22   ar
    39    31    34    1
    40    16    19   ar
    41    28    27    1
    42    27    29    1
    43    51    52    1
    44    51    53    1
    45    22    21   ar
    46    34    35    1
    47    19    21   ar
    48    35    37   ar
    49    35    36   ar
    50    37    39   ar
    51    36    38   ar
    52    38    39   ar
    53   100    98   ar
    54   100    99   ar
    55    98    96   ar
    56    99    97   ar
    57    59    58    1
    58    60    58    1
    59    58    55    1
    60    90    89    2
    61    96    94   ar
    62    96    95   ar
    63    97    94   ar
    64    94    92   ar
    65    95    93   ar
    66    89    88    1
    67    54    55    1
    68    55    56    1
    69    92    93   ar
    70    92    91    1
    71    88    87    1
    72    88    91    1
    73    56    57    2
    74    76    74   ar
    75    76    78   ar
    76    73    74    1
    77    73    70    1
    78    74    75   ar
    79    78    77   ar
    80    77    75   ar
    81    69    70    1
    82    69    63   am
    83    65    66    1
    84    65    62    1
    85    70    71    1
    86    61    62    1
    87    66    67    1
    88    62    63    1
    89    63    64    2
    90    71    72    2
    91    68    67    1
    92    85    84    1
    93    84    83    1
    94    84    86    1
    95    83    80    1
    96    79    80    1
    97    80    81    1
    98    81    82    2
