@<TRIPOS>MOLECULE
tmp/4yuuV23.pdb
 107 105 0 0 0
SMALL
GASTEIGER

@<TRIPOS>ATOM
      1  N        179.4230  100.4550   91.9320 N.3    89  LEU89      -0.1231
      2  CA       180.1090  101.3260   90.9900 C.3    89  LEU89       0.1693
      3  C        179.1410  102.2070   90.2070 C.2    89  LEU89       0.2592
      4  O        179.4060  103.3870   89.9850 O.2    89  LEU89      -0.2718
      5  CB       180.9540  100.4980   90.0160 C.3    89  LEU89       0.0284
      6  CG       181.6700  101.2760   88.9130 C.3    89  LEU89       0.0019
      7  CD1      182.5910  102.3260   89.5080 C.3    89  LEU89       0.0001
      8  CD2      182.4450  100.3290   88.0100 C.3    89  LEU89       0.0001
      9  N        178.0120  101.6380   89.8020 N.am   90  TRP90      -0.1976
     10  CA       177.1300  102.3220   88.8630 C.3    90  TRP90       0.1640
     11  C        176.0530  103.1580   89.5370 C.2    90  TRP90       0.2290
     12  O        174.8610  102.9220   89.3560 O.2    90  TRP90      -0.2864
     13  CB       176.4950  101.3080   87.9090 C.3    90  TRP90       0.0576
     14  CG       177.5220  100.5130   87.1690 C.ar   90  TRP90       0.0006
     15  CD1      177.6870   99.1660   87.1990 C.ar   90  TRP90       0.0946
     16  CD2      178.5530  101.0250   86.3120 C.ar   90  TRP90       0.0152
     17  NE1      178.7460   98.7960   86.4040 N.ar   90  TRP90      -0.2442
     18  CE2      179.2930   99.9180   85.8490 C.ar   90  TRP90       0.0810
     19  CE3      178.9110  102.3050   85.8870 C.ar   90  TRP90       0.0012
     20  CZ2      180.3770  100.0570   84.9800 C.ar   90  TRP90       0.0191
     21  CZ3      179.9880  102.4390   85.0240 C.ar   90  TRP90       0.0001
     22  CH2      180.7080  101.3220   84.5810 C.ar   90  TRP90       0.0015
     23  N        183.2620  107.5920   85.3840 N.3    98  THR98      -0.1218
     24  CA       183.6790  106.6510   84.3470 C.3    98  THR98       0.1862
     25  C        183.6610  107.3230   82.9820 C.2    98  THR98       0.2287
     26  O        184.5500  107.0910   82.1570 O.2    98  THR98      -0.2866
     27  CB       182.7870  105.3920   84.3000 C.3    98  THR98       0.1770
     28  OG1      181.4070  105.7750   84.2490 O.3    98  THR98      -0.2211
     29  CG2      183.0290  104.5250   85.5230 C.3    98  THR98       0.0375
     30  N        186.9300  107.7660   80.6280 N.3   102  LEU102     -0.1245
     31  CA       186.7870  107.3910   79.2280 C.3   102  LEU102      0.1561
     32  C        187.1930  108.5420   78.3140 C.2   102  LEU102      0.2260
     33  O        187.9220  108.3440   77.3390 O.2   102  LEU102     -0.2867
     34  CB       185.3500  106.9630   78.9290 C.3   102  LEU102      0.0270
     35  CG       185.0540  106.5730   77.4810 C.3   102  LEU102      0.0019
     36  CD1      185.9390  105.4190   77.0410 C.3   102  LEU102      0.0001
     37  CD2      183.5840  106.2160   77.3200 C.3   102  LEU102      0.0001
     38  N        191.0340  108.8380   78.2950 N.3   105  LEU105     -0.1231
     39  CA       191.6460  107.7770   77.5010 C.3   105  LEU105      0.1693
     40  C        191.4720  108.0160   76.0010 C.2   105  LEU105      0.2591
     41  O        192.4270  107.8810   75.2250 O.2   105  LEU105     -0.2718
     42  CB       191.0640  106.4170   77.8910 C.3   105  LEU105      0.0284
     43  CG       191.4330  105.9520   79.3020 C.3   105  LEU105      0.0019
     44  CD1      190.7860  104.6160   79.6210 C.3   105  LEU105      0.0001
     45  CD2      192.9420  105.8660   79.4480 C.3   105  LEU105      0.0001
     46  N        190.2560  108.3860   75.6000 N.am  106  LEU106     -0.1980
     47  CA       189.9820  108.7020   74.1990 C.3   106  LEU106      0.1596
     48  C        190.8140  109.8980   73.7390 C.2   106  LEU106      0.2287
     49  O        191.2340  109.9670   72.5880 O.2   106  LEU106     -0.2864
     50  CB       188.4930  108.9790   73.9900 C.3   106  LEU106      0.0297
     51  CG       187.5340  107.8160   74.2530 C.3   106  LEU106      0.0022
     52  CD1      186.0970  108.3060   74.2670 C.3   106  LEU106      0.0001
     53  CD2      187.7130  106.7100   73.2270 C.3   106  LEU106      0.0001
     54  N        193.9120  110.8140   74.9450 N.3   108  LEU108     -0.1231
     55  CA       195.2700  110.3200   74.7150 C.3   108  LEU108      0.1693
     56  C        195.3660  109.5150   73.4140 C.2   108  LEU108      0.2591
     57  O        196.2990  109.7030   72.6150 O.2   108  LEU108     -0.2718
     58  CB       195.7390  109.4710   75.8980 C.3   108  LEU108      0.0284
     59  CG       195.9170  110.2050   77.2300 C.3   108  LEU108      0.0019
     60  CD1      196.3340  109.2440   78.3340 C.3   108  LEU108      0.0001
     61  CD2      196.9250  111.3390   77.0940 C.3   108  LEU108      0.0001
     62  N        194.3930  108.6300   73.1990 N.am  109  ALA109     -0.1980
     63  CA       194.3520  107.8220   71.9800 C.3   109  ALA109      0.1597
     64  C        194.2850  108.7050   70.7340 C.2   109  ALA109      0.2287
     65  O        194.9190  108.4150   69.7130 O.2   109  ALA109     -0.2864
     66  CB       193.1740  106.8690   72.0180 C.3   109  ALA109      0.0319
     67  N        195.4610  111.7640   70.5070 N.3   111  ILE111     -0.1231
     68  CA       196.8120  112.2980   70.3330 C.3   111  ILE111      0.1692
     69  C        197.7170  111.2960   69.6060 C.2   111  ILE111      0.2592
     70  O        198.4190  111.6530   68.6480 O.2   111  ILE111     -0.2718
     71  CB       197.4490  112.6790   71.6870 C.3   111  ILE111      0.0266
     72  CG1      196.6840  113.8430   72.3200 C.3   111  ILE111      0.0019
     73  CG2      198.9100  113.0570   71.5040 C.3   111  ILE111      0.0020
     74  CD1      197.2950  114.3490   73.6030 C.3   111  ILE111      0.0001
     75  N        197.6800  110.0380   70.0470 N.am  112  TRP112     -0.1976
     76  CA       198.5150  109.0090   69.4270 C.3   112  TRP112      0.1640
     77  C        198.2030  108.8410   67.9430 C.2   112  TRP112      0.2290
     78  O        199.1130  108.8130   67.1120 O.2   112  TRP112     -0.2864
     79  CB       198.3600  107.6630   70.1340 C.3   112  TRP112      0.0576
     80  CG       199.3770  106.6500   69.6760 C.ar  112  TRP112      0.0006
     81  CD1      200.5960  106.3990   70.2380 C.ar  112  TRP112      0.0946
     82  CD2      199.2680  105.7670   68.5470 C.ar  112  TRP112      0.0152
     83  NE1      201.2480  105.4140   69.5340 N.ar  112  TRP112     -0.2442
     84  CE2      200.4570  105.0090   68.4960 C.ar  112  TRP112      0.0810
     85  CE3      198.2810  105.5440   67.5830 C.ar  112  TRP112      0.0012
     86  CZ2      200.6840  104.0440   67.5140 C.ar  112  TRP112      0.0191
     87  CZ3      198.5080  104.5850   66.6100 C.ar  112  TRP112      0.0001
     88  CH2      199.7020  103.8490   66.5830 C.ar  112  TRP112      0.0015
     89  N        199.5470  111.6790   65.9380 N.3   115  VAL115     -0.1231
     90  CA       200.9960  111.6180   65.7680 C.3   115  VAL115      0.1692
     91  C        201.4100  110.5540   64.7460 C.2   115  VAL115      0.2592
     92  O        202.0970  110.8550   63.7710 O.2   115  VAL115     -0.2718
     93  CB       201.7100  111.3370   67.1060 C.3   115  VAL115      0.0266
     94  CG1      203.2230  111.2620   66.9360 C.3   115  VAL115      0.0020
     95  CG2      201.3930  112.4770   68.0780 C.3   115  VAL115      0.0020
     96  N        200.9830  109.3140   64.9680 N.am  116  TYR116     -0.1976
     97  CA       201.3390  108.2130   64.0790 C.3   116  TYR116      0.1639
     98  C        200.2520  107.9500   63.0480 C.2   116  TYR116      0.2290
     99  O        199.5310  106.9560   63.1230 O.2   116  TYR116     -0.2864
    100  CB       201.6230  106.9480   64.8880 C.3   116  TYR116      0.0560
    101  CG       202.8010  107.0990   65.8230 C.ar  116  TYR116     -0.0198
    102  CD1      204.1000  107.0850   65.3350 C.ar  116  TYR116     -0.0009
    103  CD2      202.6140  107.2680   67.1890 C.ar  116  TYR116     -0.0009
    104  CE1      205.1780  107.2280   66.1790 C.ar  116  TYR116      0.0417
    105  CE2      203.6880  107.4110   68.0400 C.ar  116  TYR116      0.0417
    106  CZ       204.9690  107.3900   67.5300 C.ar  116  TYR116      0.1957
    107  OH       206.0470  107.5330   68.3730 O.3   116  TYR116     -0.2866
@<TRIPOS>BOND
     1    98    99    2
     2    98    97    1
     3    92    91    2
     4    97   100    1
     5    97    96    1
     6    91    96   am
     7    91    90    1
     8   100   101    1
     9   102   101   ar
    10   102   104   ar
    11    90    89    1
    12    90    93    1
    13   101   103   ar
    14   104   106   ar
    15    88    87   ar
    16    88    86   ar
    17    87    85   ar
    18    94    93    1
    19    93    95    1
    20    78    77    2
    21   103   105   ar
    22    86    84   ar
    23   106   105   ar
    24   106   107    1
    25    85    82   ar
    26    77    76    1
    27    84    82   ar
    28    84    83   ar
    29    82    80   ar
    30    70    69    2
    31    76    75    1
    32    76    79    1
    33    83    81   ar
    34    69    75   am
    35    69    68    1
    36    80    79    1
    37    80    81   ar
    38    65    64    2
    39    68    67    1
    40    68    71    1
    41    64    63    1
    42    73    71    1
    43    71    72    1
    44    63    66    1
    45    63    62    1
    46    72    74    1
    47    49    48    2
    48    57    56    2
    49    62    56   am
    50    53    51    1
    51    56    55    1
    52    48    47    1
    53    50    47    1
    54    50    51    1
    55    47    46    1
    56    51    52    1
    57    55    54    1
    58    55    58    1
    59    41    40    2
    60    46    40   am
    61    58    59    1
    62    40    39    1
    63    36    35    1
    64    61    59    1
    65    59    60    1
    66    37    35    1
    67    33    32    2
    68    35    34    1
    69    39    42    1
    70    39    38    1
    71    42    43    1
    72    32    31    1
    73    34    31    1
    74    31    30    1
    75    43    45    1
    76    43    44    1
    77    26    25    2
    78    25    24    1
    79    28    27    1
    80    27    24    1
    81    27    29    1
    82    24    23    1
    83    22    20   ar
    84    22    21   ar
    85    20    18   ar
    86    21    19   ar
    87    18    16   ar
    88    18    17   ar
    89    19    16   ar
    90    16    14   ar
    91    17    15   ar
    92    14    15   ar
    93    14    13    1
    94    13    10    1
    95     8     6    1
    96    10    11    1
    97    10     9    1
    98     6     7    1
    99     6     5    1
   100    12    11    2
   101     9     3   am
   102     4     3    2
   103     5     2    1
   104     3     2    1
   105     2     1    1
