@<TRIPOS>MOLECULE
tmp/4yuwA01.pdb
 133 129 0 0 0
SMALL
GASTEIGER

@<TRIPOS>ATOM
      1  N          7.7950   49.4920    2.3020 N.3    14  GLU14      -0.1245
      2  CA         8.6860   50.0440    1.2990 C.3    14  GLU14       0.1567
      3  C          8.4820   49.3210   -0.0300 C.2    14  GLU14       0.2260
      4  O          9.4200   48.6750   -0.5390 O.2    14  GLU14      -0.2867
      5  CB        10.1410   49.9110    1.7920 C.3    14  GLU14       0.0388
      6  CG        11.0730   50.8390    1.0410 C.3    14  GLU14       0.1160
      7  CD        12.5520   50.5480    1.2550 C.2    14  GLU14       0.3649
      8  OE1       12.9490   49.3570    1.5450 O.co2  14  GLU14      -0.2457
      9  OE2       13.3450   51.5180    1.0920 O.co2  14  GLU14      -0.2457
     10  N         12.4280   47.1610   -6.6740 N.3    19  TRP19      -0.1241
     11  CA        12.6690   45.8330   -6.0420 C.3    19  TRP19       0.1605
     12  C         11.3330   45.0700   -6.0060 C.2    19  TRP19       0.2264
     13  O         10.7100   44.9140   -4.9380 O.2    19  TRP19      -0.2867
     14  CB        13.2980   45.9280   -4.6670 C.3    19  TRP19       0.0550
     15  CG        12.8800   47.1050   -3.8290 C.ar   19  TRP19       0.0003
     16  CD1       11.8140   47.1690   -2.9920 C.ar   19  TRP19       0.0946
     17  CD2       13.5120   48.3910   -3.8010 C.ar   19  TRP19       0.0152
     18  NE1       11.7390   48.4110   -2.4180 N.ar   19  TRP19      -0.2442
     19  CE2       12.7630   49.1910   -2.9060 C.ar   19  TRP19       0.0810
     20  CE3       14.6390   48.9360   -4.4560 C.ar   19  TRP19       0.0012
     21  CZ2       13.1290   50.5260   -2.5790 C.ar   19  TRP19       0.0191
     22  CZ3       14.9950   50.2420   -4.2000 C.ar   19  TRP19       0.0001
     23  CH2       14.2450   51.0430   -3.2310 C.ar   19  TRP19       0.0015
     24  N         11.4060   55.4300   -0.6180 N.3    62  CYS62      -0.1221
     25  CA        12.6160   54.6300   -0.2870 C.3    62  CYS62       0.1808
     26  C         13.2670   55.1310    1.0150 C.2    62  CYS62       0.2601
     27  O         13.5780   56.3150    1.1520 O.2    62  CYS62      -0.2717
     28  CB        13.6340   54.6540   -1.4480 C.3    62  CYS62       0.0970
     29  SG        12.8790   54.3670   -3.0890 S.3    62  CYS62      -0.0800
     30  N         13.4890   54.2230    1.9520 N.am   63  ILE63      -0.1965
     31  CA        14.0940   54.5550    3.2080 C.3    63  ILE63       0.1727
     32  C         15.5070   55.0990    2.9580 C.2    63  ILE63       0.2616
     33  O         16.2810   54.4540    2.2320 O.2    63  ILE63      -0.2715
     34  CB        14.1210   53.3200    4.1550 C.3    63  ILE63       0.0290
     35  CG1       12.6820   52.9280    4.5040 C.3    63  ILE63       0.0022
     36  CG2       14.9040   53.6580    5.4310 C.3    63  ILE63       0.0023
     37  CD1       12.5470   51.4750    5.0180 C.3    63  ILE63       0.0001
     38  N         15.7940   56.3030    3.5180 N.am   64  GLN64      -0.1977
     39  CA        17.0860   57.0100    3.3410 C.3    64  GLN64       0.1601
     40  C         17.9570   56.8520    4.5730 C.2    64  GLN64       0.2287
     41  O         19.1880   56.6250    4.4790 O.2    64  GLN64      -0.2864
     42  CB        16.8540   58.4870    3.0970 C.3    64  GLN64       0.0394
     43  CG        16.0030   58.7390    1.8310 C.3    64  GLN64       0.0908
     44  CD        16.6930   58.3340    0.5570 C.2    64  GLN64       0.2608
     45  OE1       17.7700   58.8620    0.2340 O.2    64  GLN64      -0.2717
     46  NE2       16.0630   57.4220   -0.2140 N.am   64  GLN64      -0.0878
     47  N         26.5650   53.5700    6.7100 N.3    73  TYR73      -0.1241
     48  CA        26.7380   54.0820    5.3240 C.3    73  TYR73       0.1605
     49  C         27.5280   55.4040    5.3750 C.2    73  TYR73       0.2264
     50  O         28.3780   55.6820    4.5220 O.2    73  TYR73      -0.2867
     51  CB        25.3500   54.3090    4.7280 C.3    73  TYR73       0.0534
     52  CG        25.3060   54.9990    3.3950 C.ar   73  TYR73      -0.0201
     53  CD1       25.5640   54.2930    2.2170 C.ar   73  TYR73      -0.0009
     54  CD2       25.0020   56.3590    3.3130 C.ar   73  TYR73      -0.0009
     55  CE1       25.4820   54.9290    0.9830 C.ar   73  TYR73       0.0417
     56  CE2       24.9170   57.0140    2.0800 C.ar   73  TYR73       0.0417
     57  CZ        25.1890   56.2930    0.9370 C.ar   73  TYR73       0.1957
     58  OH        25.0930   56.9350   -0.2870 O.3    73  TYR73      -0.2866
     59  N         26.4830   60.7670   -2.8790 N.3   168  ASP168     -0.1225
     60  CA        25.5430   60.1900   -1.9340 C.3   168  ASP168      0.1805
     61  C         24.1050   60.4430   -2.3850 C.2   168  ASP168      0.2598
     62  O         23.4500   61.4050   -1.9300 O.2   168  ASP168     -0.2718
     63  CB        25.7520   60.7770   -0.5140 C.3   168  ASP168      0.1424
     64  CG        24.7360   60.2370    0.4900 C.2   168  ASP168      0.3668
     65  OD1       23.9920   59.2210    0.1700 O.co2 168  ASP168     -0.2456
     66  OD2       24.6660   60.8410    1.5910 O.co2 168  ASP168     -0.2456
     67  N         23.6260   59.6090   -3.3120 N.am  169  THR169     -0.1939
     68  CA        22.3570   59.9100   -3.9790 C.3   169  THR169      0.2028
     69  C         21.2350   58.9450   -3.5770 C.2   169  THR169      0.2643
     70  O         21.4740   57.8810   -3.0410 O.2   169  THR169     -0.2714
     71  CB        22.5090   59.8490   -5.5330 C.3   169  THR169      0.1808
     72  OG1       22.7980   58.4920   -5.8940 O.3   169  THR169     -0.2208
     73  CG2       23.6450   60.7610   -6.0200 C.3   169  THR169      0.0379
     74  N         20.0090   59.3490   -3.8550 N.am  170  THR170     -0.1936
     75  CA        18.8930   58.4490   -3.9010 C.3   170  THR170      0.2028
     76  C         19.0900   57.4140   -5.0560 C.2   170  THR170      0.2642
     77  O         20.0430   57.5070   -5.8430 O.2   170  THR170     -0.2714
     78  CB        17.6120   59.2820   -4.1450 C.3   170  THR170      0.1808
     79  OG1       17.8570   60.2820   -5.1390 O.3   170  THR170     -0.2208
     80  CG2       17.1460   59.9850   -2.8940 C.3   170  THR170      0.0379
     81  N         18.1910   56.4350   -5.1250 N.am  171  ASP171     -0.1971
     82  CA        18.1130   55.4650   -6.2300 C.3   171  ASP171      0.1709
     83  C         17.9380   56.1150   -7.6360 C.2   171  ASP171      0.2293
     84  O         17.5970   57.3050   -7.7470 O.2   171  ASP171     -0.2864
     85  CB        16.9390   54.5030   -5.9790 C.3   171  ASP171      0.1436
     86  CG        17.1620   53.6710   -4.7500 C.2   171  ASP171      0.3671
     87  OD1       18.1270   52.8690   -4.7860 O.co2 171  ASP171     -0.2456
     88  OD2       16.4080   53.8620   -3.7590 O.co2 171  ASP171     -0.2456
     89  N         27.0320   56.0830   -4.3110 N.3   201  GLN201     -0.1245
     90  CA        26.0240   55.2200   -3.6990 C.3   201  GLN201      0.1566
     91  C         25.8820   54.1760   -4.7980 C.2   201  GLN201      0.2260
     92  O         25.3430   54.4550   -5.8430 O.2   201  GLN201     -0.2867
     93  CB        24.7110   55.9740   -3.3610 C.3   201  GLN201      0.0367
     94  CG        23.6410   55.0700   -2.6990 C.3   201  GLN201      0.0905
     95  CD        22.8350   54.2660   -3.7110 C.2   201  GLN201      0.2608
     96  OE1       23.0780   53.0530   -3.9300 O.2   201  GLN201     -0.2717
     97  NE2       21.8500   54.9310   -4.3390 N.am  201  GLN201     -0.0878
     98  N         24.5560   50.9340   -4.9490 N.3   203  GLU203     -0.1245
     99  CA        23.4520   50.0030   -5.1070 C.3   203  GLU203      0.1567
    100  C         23.7970   48.5580   -4.6370 C.2   203  GLU203      0.2260
    101  O         24.8370   48.3230   -4.0050 O.2   203  GLU203     -0.2867
    102  CB        22.8770   50.0690   -6.5490 C.3   203  GLU203      0.0388
    103  CG        22.1430   51.3940   -6.8170 C.3   203  GLU203      0.1160
    104  CD        20.8950   51.6110   -5.8980 C.2   203  GLU203      0.3649
    105  OE1       20.4770   50.6460   -5.1950 O.co2 203  GLU203     -0.2457
    106  OE2       20.3030   52.7600   -5.8550 O.co2 203  GLU203     -0.2457
    107  N         18.3250   49.2420    4.2650 N.3   237  TYR237     -0.1228
    108  CA        18.3340   49.3920    2.8010 C.3   237  TYR237      0.1721
    109  C         17.9610   48.0360    2.1970 C.2   237  TYR237      0.2437
    110  O         18.0850   47.0030    2.8680 O.2   237  TYR237     -0.2733
    111  CB        19.6770   49.8670    2.3030 C.3   237  TYR237      0.0547
    112  CG        20.0580   51.2910    2.6530 C.ar  237  TYR237     -0.0200
    113  CD1       19.0760   52.3220    2.8010 C.ar  237  TYR237     -0.0009
    114  CD2       21.4160   51.6420    2.7550 C.ar  237  TYR237     -0.0009
    115  CE1       19.4570   53.6500    3.1280 C.ar  237  TYR237      0.0417
    116  CE2       21.7940   52.9610    3.0610 C.ar  237  TYR237      0.0417
    117  CZ        20.8100   53.9370    3.2530 C.ar  237  TYR237      0.1957
    118  OH        21.2370   55.2210    3.5430 O.3   237  TYR237     -0.2866
    119  N         17.4570   48.0250    0.9510 N.am  238  PRO238     -0.2729
    120  CA        16.8400   46.7860    0.4300 C.3   238  PRO238      0.1401
    121  C         17.8540   45.6130    0.3300 C.2   238  PRO238      0.2269
    122  O         19.0000   45.8020   -0.1250 O.2   238  PRO238     -0.2865
    123  CB        16.3180   47.2130   -0.9650 C.3   238  PRO238      0.0296
    124  CG        16.0580   48.7230   -0.7810 C.3   238  PRO238      0.0237
    125  CD        17.1690   49.2110    0.0960 C.3   238  PRO238      0.0939
    126  N         24.3500   47.6160    0.9730 N.3   242  ILE242     -0.1245
    127  CA        24.4660   48.5490   -0.0890 C.3   242  ILE242      0.1561
    128  C         26.0030   48.5660   -0.3280 C.2   242  ILE242      0.2260
    129  O         26.7560   48.0220    0.4700 O.2   242  ILE242     -0.2867
    130  CB        23.8930   49.9220    0.3460 C.3   242  ILE242      0.0252
    131  CG1       23.7250   50.8530   -0.8440 C.3   242  ILE242      0.0019
    132  CG2       24.8280   50.5590    1.3320 C.3   242  ILE242      0.0019
    133  CD1       22.5640   50.4510   -1.7170 C.3   242  ILE242      0.0001
@<TRIPOS>BOND
     1    84    83    2
     2    83    82    1
     3   103   102    1
     4   103   104    1
     5    10    11    1
     6   102    99    1
     7    82    85    1
     8    82    81    1
     9    11    12    1
    10    11    14    1
    11    73    71    1
    12    12    13    2
    13    85    86    1
    14   104   106   ar
    15   104   105   ar
    16    72    71    1
    17    77    76    2
    18    92    91    2
    19    71    68    1
    20    79    78    1
    21    81    76   am
    22    99    98    1
    23    99   100    1
    24    76    75    1
    25    91    90    1
    26    87    86   ar
    27    86    88   ar
    28    14    15    1
    29   100   101    2
    30    20    22   ar
    31    20    17   ar
    32    97    95   am
    33    89    90    1
    34    22    23   ar
    35    78    75    1
    36    78    80    1
    37    68    69    1
    38    68    67    1
    39    96    95    2
    40    75    74    1
    41    74    69   am
    42    15    17   ar
    43    15    16   ar
    44    17    19   ar
    45    95    94    1
    46    90    93    1
    47    69    70    2
    48    93    94    1
    49    67    61   am
    50    23    21   ar
    51    29    28    1
    52    16    18   ar
    53    19    21   ar
    54    19    18   ar
    55    59    60    1
    56    61    60    1
    57    61    62    2
    58    60    63    1
    59   133   131    1
    60    28    25    1
    61   123   124    1
    62   123   120    1
    63   131   130    1
    64   124   125    1
    65    24    25    1
    66     4     3    2
    67    63    64    1
    68   128   127    1
    69   128   129    2
    70    25    26    1
    71    58    57    1
    72    46    44   am
    73   122   121    2
    74   127   130    1
    75   127   126    1
    76     3     2    1
    77   125   119    1
    78    65    64   ar
    79    45    44    2
    80   121   120    1
    81   130   132    1
    82   120   119    1
    83    64    66   ar
    84    44    43    1
    85    57    55   ar
    86    57    56   ar
    87   119   109   am
    88    55    53   ar
    89    26    27    2
    90    26    30   am
    91     6     7    1
    92     6     5    1
    93     9     7   ar
    94     7     8   ar
    95     2     5    1
    96     2     1    1
    97    43    42    1
    98    30    31    1
    99    56    54   ar
   100   109   108    1
   101   109   110    2
   102    53    52   ar
   103    33    32    2
   104   111   112    1
   105   111   108    1
   106   112   114   ar
   107   112   113   ar
   108   114   116   ar
   109   108   107    1
   110   113   115   ar
   111    32    31    1
   112    32    38   am
   113   116   117   ar
   114    42    39    1
   115   115   117   ar
   116    31    34    1
   117   117   118    1
   118    54    52   ar
   119    39    38    1
   120    39    40    1
   121    52    51    1
   122    34    35    1
   123    34    36    1
   124    41    40    2
   125    35    37    1
   126    50    49    2
   127    51    48    1
   128    48    49    1
   129    48    47    1
