@<TRIPOS>MOLECULE
tmp/4yuxB01.pdb
 142 137 0 0 0
SMALL
GASTEIGER

@<TRIPOS>ATOM
      1  N         -7.9660   14.2790   13.8660 N.3    62  CYS62      -0.1221
      2  CA        -7.5510   13.0390   14.6330 C.3    62  CYS62       0.1808
      3  C         -6.2980   12.4950   14.0770 C.2    62  CYS62       0.2601
      4  O         -6.1750   12.2170   12.8510 O.2    62  CYS62      -0.2717
      5  CB        -8.6490   11.9780   14.4220 C.3    62  CYS62       0.0970
      6  SG       -10.2760   12.4420   15.0380 S.3    62  CYS62      -0.0800
      7  N         -5.3350   12.3330   14.9400 N.am   63  ILE63      -0.1965
      8  CA        -3.9710   11.8070   14.5490 C.3    63  ILE63       0.1727
      9  C         -4.1060   10.4060   13.9290 C.2    63  ILE63       0.2616
     10  O         -4.6610    9.5040   14.5790 O.2    63  ILE63      -0.2715
     11  CB        -2.9610   11.7590   15.7520 C.3    63  ILE63       0.0290
     12  CG1       -2.7310   13.1890   16.2340 C.3    63  ILE63       0.0022
     13  CG2       -1.6340   11.1710   15.2740 C.3    63  ILE63       0.0023
     14  CD1       -1.9890   13.2160   17.6000 C.3    63  ILE63       0.0001
     15  N         -3.5220   10.2310   12.7420 N.am   64  GLN64      -0.1963
     16  CA        -3.6920    8.9390   12.0220 C.3    64  GLN64       0.1733
     17  C         -2.3950    8.1060   12.0630 C.2    64  GLN64       0.2616
     18  O         -2.4650    6.8770   12.1770 O.2    64  GLN64      -0.2715
     19  CB        -4.0190    9.2110   10.5220 C.3    64  GLN64       0.0408
     20  CG        -5.3180    9.9780   10.3260 C.3    64  GLN64       0.0908
     21  CD        -6.4990    9.1430   10.7860 C.2    64  GLN64       0.2608
     22  OE1       -6.7730    8.0540   10.2490 O.2    64  GLN64      -0.2717
     23  NE2       -7.2290    9.6580   11.7350 N.am   64  GLN64      -0.0878
     24  N         -1.2400    8.7520   11.8280 N.am   65  VAL65      -0.1977
     25  CA         0.0730    8.0440   11.9130 C.3    65  VAL65       0.1596
     26  C          1.0950    9.0730   12.3310 C.2    65  VAL65       0.2287
     27  O          0.8790   10.2130   12.1100 O.2    65  VAL65      -0.2864
     28  CB         0.5810    7.5170   10.5580 C.3    65  VAL65       0.0276
     29  CG1       -0.2890    6.3220   10.0920 C.3    65  VAL65       0.0022
     30  CG2        0.5510    8.6320    9.5070 C.3    65  VAL65       0.0022
     31  N          5.6510    5.7580   15.7050 N.3    69  ASP69      -0.1225
     32  CA         4.8960    4.6580   16.3040 C.3    69  ASP69       0.1805
     33  C          3.9760    4.0120   15.2880 C.2    69  ASP69       0.2597
     34  O          3.1660    3.1410   15.6620 O.2    69  ASP69      -0.2718
     35  CB         4.1120    5.1210   17.5780 C.3    69  ASP69       0.1424
     36  CG         2.9710    6.0710   17.2500 C.2    69  ASP69       0.3668
     37  OD1        2.7450    6.4930   16.0990 O.co2  69  ASP69      -0.2456
     38  OD2        2.1850    6.3800   18.1870 O.co2  69  ASP69      -0.2456
     39  N          4.0630    4.4370   13.9870 N.am   70  GLU70      -0.1979
     40  CA         3.1590    3.8520   12.9800 C.3    70  GLU70       0.1602
     41  C          3.1850    2.3230   12.8650 C.2    70  GLU70       0.2287
     42  O          2.1410    1.6750   12.5390 O.2    70  GLU70      -0.2864
     43  CB         3.3450    4.4490   11.5650 C.3    70  GLU70       0.0415
     44  CG         4.7680    4.2210   11.0220 C.3    70  GLU70       0.1163
     45  CD         4.9270    2.9200   10.2120 C.2    70  GLU70       0.3649
     46  OE1        6.0670    2.6430    9.7260 O.co2  70  GLU70      -0.2457
     47  OE2        3.9970    2.1200   10.0190 O.co2  70  GLU70      -0.2457
     48  N          0.2680   -0.4760   14.9380 N.3    73  TYR73      -0.1227
     49  CA        -1.0200   -0.9070   14.5030 C.3    73  TYR73       0.1736
     50  C         -0.9370   -1.5480   13.1330 C.2    73  TYR73       0.2595
     51  O         -1.6930   -2.4820   12.8530 O.2    73  TYR73      -0.2718
     52  CB        -1.9320    0.3080   14.5080 C.3    73  TYR73       0.0548
     53  CG        -3.2190    0.2510   13.7560 C.ar   73  TYR73      -0.0200
     54  CD1       -4.4320    0.0190   14.4830 C.ar   73  TYR73      -0.0009
     55  CD2       -3.3280    0.6750   12.4540 C.ar   73  TYR73      -0.0009
     56  CE1       -5.6760    0.0820   13.8510 C.ar   73  TYR73       0.0417
     57  CE2       -4.5220    0.6720   11.7650 C.ar   73  TYR73       0.0417
     58  CZ        -5.7200    0.4020   12.4960 C.ar   73  TYR73       0.1957
     59  OH        -6.9640    0.4760   11.9080 O.3    73  TYR73      -0.2866
     60  N         -0.0180   -1.1530   12.2940 N.am   74  HIS74      -0.1975
     61  CA         0.0660   -1.7570   10.9680 C.3    74  HIS74       0.1656
     62  C          0.5780   -3.1720   11.0850 C.2    74  HIS74       0.2291
     63  O         -0.0000   -4.0770   10.4150 O.2    74  HIS74      -0.2864
     64  CB         1.0590   -0.9020   10.1090 C.3    74  HIS74       0.0771
     65  CG         0.4700    0.4350    9.8120 C.ar   74  HIS74       0.0820
     66  ND1        1.2510    1.5820    9.6910 N.ar   74  HIS74      -0.2267
     67  CD2       -0.8270    0.8360    9.7360 C.ar   74  HIS74       0.1154
     68  CE1        0.4190    2.6280    9.4380 C.ar   74  HIS74       0.1986
     69  NE2       -0.8310    2.1830    9.4550 N.ar   74  HIS74      -0.2212
     70  N         -9.4240   -0.8550    8.0400 N.3   168  ASP168     -0.1225
     71  CA        -8.5440    0.1290    8.7090 C.3   168  ASP168      0.1805
     72  C         -9.0970    1.5260    8.4700 C.2   168  ASP168      0.2598
     73  O         -8.7110    2.2680    7.5390 O.2   168  ASP168     -0.2718
     74  CB        -7.1280    0.0810    8.0550 C.3   168  ASP168      0.1424
     75  CG        -6.2300    1.2250    8.5680 C.2   168  ASP168      0.3668
     76  OD1       -6.5630    1.7930    9.6080 O.co2 168  ASP168     -0.2456
     77  OD2       -5.0890    1.3870    8.0110 O.co2 168  ASP168     -0.2456
     78  N        -10.0560    1.8820    9.3410 N.am  169  THR169     -0.1939
     79  CA       -10.8020    3.1410    9.1190 C.3   169  THR169      0.2028
     80  C        -10.3840    4.2650   10.1140 C.2   169  THR169      0.2643
     81  O         -9.8920    3.9900   11.1670 O.2   169  THR169     -0.2714
     82  CB       -12.3140    2.9150    9.3040 C.3   169  THR169      0.1808
     83  OG1      -12.5600    2.4720   10.6330 O.3   169  THR169     -0.2208
     84  CG2      -12.7660    1.8140    8.2550 C.3   169  THR169      0.0379
     85  N        -10.7860    5.5040    9.7610 N.am  170  THR170     -0.1936
     86  CA       -10.8910    6.5710   10.7440 C.3   170  THR170      0.2028
     87  C        -11.9520    6.2170   11.7630 C.2   170  THR170      0.2642
     88  O        -12.6980    5.2230   11.6450 O.2   170  THR170     -0.2714
     89  CB       -11.2580    7.8670    9.9840 C.3   170  THR170      0.1808
     90  OG1      -12.2570    7.5090    9.0020 O.3   170  THR170     -0.2208
     91  CG2      -10.0350    8.3980    9.2710 C.3   170  THR170      0.0379
     92  N        -11.9680    6.9910   12.8440 N.am  171  ASP171     -0.1971
     93  CA       -13.0830    6.8380   13.8260 C.3   171  ASP171      0.1709
     94  C        -14.4880    7.1740   13.2430 C.2   171  ASP171      0.2293
     95  O        -14.6160    7.6070   12.1020 O.2   171  ASP171     -0.2864
     96  CB       -12.7520    7.7190   15.0270 C.3   171  ASP171      0.1436
     97  CG       -11.8390    7.0230   16.0760 C.2   171  ASP171      0.3671
     98  OD1      -11.7370    5.7870   16.1020 O.co2 171  ASP171     -0.2456
     99  OD2      -11.4080    7.7030   17.0280 O.co2 171  ASP171     -0.2456
    100  N        -10.6670   -1.5950   12.8530 N.3   201  GLN201     -0.1245
    101  CA       -10.1130   -0.5730   13.7690 C.3   201  GLN201      0.1566
    102  C        -11.1180   -0.5730   14.9170 C.2   201  GLN201      0.2260
    103  O        -12.3010   -0.1000   14.7820 O.2   201  GLN201     -0.2867
    104  CB       -10.0430    0.7560   13.0130 C.3   201  GLN201      0.0367
    105  CG        -9.2430    1.7880   13.7590 C.3   201  GLN201      0.0905
    106  CD       -10.1410    2.6050   14.6960 C.2   201  GLN201      0.2608
    107  OE1      -10.2570    2.2600   15.8240 O.2   201  GLN201     -0.2717
    108  NE2      -10.7240    3.6870   14.2030 N.am  201  GLN201     -0.0878
    109  N         -0.5180    2.0070   21.3440 N.3   234  VAL234     -0.1245
    110  CA        -0.2540    3.0700   20.3710 C.3   234  VAL234      0.1561
    111  C         -0.3730    4.4560   21.0170 C.2   234  VAL234      0.2260
    112  O         -1.4940    4.9830   21.3180 O.2   234  VAL234     -0.2867
    113  CB        -1.2720    2.9580   19.2450 C.3   234  VAL234      0.0252
    114  CG1       -1.1790    4.1160   18.2400 C.3   234  VAL234      0.0019
    115  CG2       -1.1600    1.6050   18.4950 C.3   234  VAL234      0.0019
    116  N         -0.2090    7.4540   20.0840 N.3   236  THR236     -0.1203
    117  CA        -0.8870    8.5790   19.4000 C.3   236  THR236      0.1994
    118  C         -2.2730    8.2030   18.9380 C.2   236  THR236      0.2617
    119  O         -2.7920    8.7980   17.9660 O.2   236  THR236     -0.2717
    120  CB        -0.0200    9.1220   18.2350 C.3   236  THR236      0.1784
    121  OG1        0.2380    8.0860   17.2840 O.3   236  THR236     -0.2211
    122  CG2        1.3250    9.8110   18.7120 C.3   236  THR236      0.0376
    123  N         -2.8910    7.2150   19.5990 N.am  237  TYR237     -0.1975
    124  CA        -4.3100    7.0870   19.5650 C.3   237  TYR237      0.1639
    125  C         -4.8990    7.4950   20.9260 C.2   237  TYR237      0.2290
    126  O         -4.2750    7.1980   21.9060 O.2   237  TYR237     -0.2864
    127  CB        -4.7190    5.6340   19.1780 C.3   237  TYR237      0.0560
    128  CG        -6.2180    5.4520   18.9360 C.ar  237  TYR237     -0.0198
    129  CD1       -6.8200    5.8810   17.7000 C.ar  237  TYR237     -0.0009
    130  CD2       -7.0920    4.9230   19.9300 C.ar  237  TYR237     -0.0009
    131  CE1       -8.1790    5.7560   17.4600 C.ar  237  TYR237      0.0417
    132  CE2       -8.4490    4.7820   19.6740 C.ar  237  TYR237      0.0417
    133  CZ        -8.9930    5.1980   18.4330 C.ar  237  TYR237      0.1957
    134  OH       -10.3710    5.0500   18.2050 O.3   237  TYR237     -0.2866
    135  N         -5.2420    0.9540   21.3760 N.3   242  ILE242     -0.1245
    136  CA        -6.2680    0.7480   20.3730 C.3   242  ILE242      0.1561
    137  C         -6.4610   -0.7340   20.2840 C.2   242  ILE242      0.2260
    138  O         -5.5430   -1.4940   20.5960 O.2   242  ILE242     -0.2867
    139  CB        -5.9320    1.4520   19.0690 C.3   242  ILE242      0.0252
    140  CG1       -7.1400    1.3720   18.0470 C.3   242  ILE242      0.0019
    141  CG2       -4.5950    0.8870   18.4220 C.3   242  ILE242      0.0019
    142  CD1       -6.8080    2.2970   16.8360 C.3   242  ILE242      0.0001
@<TRIPOS>BOND
     1    73    72    2
     2    77    75   ar
     3    70    71    1
     4    74    75    1
     5    74    71    1
     6    84    82    1
     7    72    71    1
     8    72    78   am
     9    75    76   ar
    10    90    89    1
    11    79    82    1
    12    79    78    1
    13    79    80    1
    14    91    89    1
    15    82    83    1
    16    68    69   ar
    17    68    66   ar
    18    69    67   ar
    19    30    28    1
    20    66    65   ar
    21    46    45   ar
    22    67    65   ar
    23    85    80   am
    24    85    86    1
    25    65    64    1
    26    89    86    1
    27    47    45   ar
    28    29    28    1
    29    64    61    1
    30    80    81    2
    31    45    44    1
    32    22    21    2
    33    20    19    1
    34    20    21    1
    35    63    62    2
    36    19    16    1
    37    28    25    1
    38    86    87    1
    39    21    23   am
    40    61    62    1
    41    61    60    1
    42    44    43    1
    43    43    40    1
    44    88    87    2
    45    87    92   am
    46    57    55   ar
    47    57    58   ar
    48    24    25    1
    49    24    17   am
    50    59    58    1
    51    25    26    1
    52    16    17    1
    53    16    15    1
    54    17    18    2
    55    95    94    2
    56    27    26    2
    57    60    50   am
    58    55    53   ar
    59    58    56   ar
    60    42    41    2
    61    15     9   am
    62    92    93    1
    63     4     3    2
    64   100   101    1
    65    51    50    2
    66    41    40    1
    67    40    39    1
    68   104   105    1
    69   104   101    1
    70    50    49    1
    71    94    93    1
    72    53    54   ar
    73    53    52    1
    74   105   106    1
    75   101   102    1
    76    93    96    1
    77    56    54   ar
    78     1     2    1
    79     9     8    1
    80     9    10    2
    81    39    33   am
    82     3     2    1
    83     3     7   am
    84   108   106   am
    85     5     2    1
    86     5     6    1
    87    49    52    1
    88    49    48    1
    89     8     7    1
    90     8    11    1
    91   106   107    2
    92   103   102    2
    93    96    97    1
    94    13    11    1
    95    33    34    2
    96    33    32    1
    97    31    32    1
    98    11    12    1
    99    97    98   ar
   100    97    99   ar
   101    37    36   ar
   102    12    14    1
   103    32    35    1
   104   142   140    1
   105    36    35    1
   106    36    38   ar
   107   121   120    1
   108   131   129   ar
   109   131   133   ar
   110   129   128   ar
   111   119   118    2
   112   140   139    1
   113   134   133    1
   114   120   122    1
   115   120   117    1
   116   114   113    1
   117   141   139    1
   118   133   132   ar
   119   115   113    1
   120   128   127    1
   121   128   130   ar
   122   118   117    1
   123   118   123   am
   124   139   136    1
   125   127   124    1
   126   113   110    1
   127   117   116    1
   128   124   123    1
   129   124   125    1
   130   132   130   ar
   131   137   136    1
   132   137   138    2
   133   110   111    1
   134   110   109    1
   135   136   135    1
   136   125   126    2
   137   111   112    2
