@<TRIPOS>MOLECULE
tmp/4yuyB01.pdb
 142 137 0 0 0
SMALL
GASTEIGER

@<TRIPOS>ATOM
      1  N         -8.0460   14.2930   13.9920 N.3    62  CYS62      -0.1221
      2  CA        -7.6470   13.0670   14.7540 C.3    62  CYS62       0.1808
      3  C         -6.3240   12.4820   14.1740 C.2    62  CYS62       0.2601
      4  O         -6.2360   12.2370   12.9680 O.2    62  CYS62      -0.2717
      5  CB        -8.7090   12.0290   14.4900 C.3    62  CYS62       0.0970
      6  SG       -10.3730   12.4780   15.1330 S.3    62  CYS62      -0.0800
      7  N         -5.3390   12.3350   15.0230 N.am   63  ILE63      -0.1965
      8  CA        -4.0150   11.8310   14.6600 C.3    63  ILE63       0.1727
      9  C         -4.2160   10.4540   14.0800 C.2    63  ILE63       0.2616
     10  O         -4.9070    9.6380   14.6930 O.2    63  ILE63      -0.2715
     11  CB        -3.0530   11.7990   15.8830 C.3    63  ILE63       0.0290
     12  CG1       -2.7700   13.2470   16.2970 C.3    63  ILE63       0.0022
     13  CG2       -1.7240   11.1510   15.4840 C.3    63  ILE63       0.0023
     14  CD1       -2.0800   13.2890   17.6540 C.3    63  ILE63       0.0001
     15  N         -3.6810   10.2700   12.8830 N.am   64  GLN64      -0.1963
     16  CA        -3.7690    8.9670   12.1720 C.3    64  GLN64       0.1733
     17  C         -2.4620    8.1430   12.1920 C.2    64  GLN64       0.2616
     18  O         -2.4960    6.8880   12.3070 O.2    64  GLN64      -0.2715
     19  CB        -4.1540    9.1460   10.6990 C.3    64  GLN64       0.0408
     20  CG        -5.3760    9.9720   10.5180 C.3    64  GLN64       0.0908
     21  CD        -6.5720    9.1430   10.9370 C.2    64  GLN64       0.2608
     22  OE1       -6.7940    8.0510   10.3730 O.2    64  GLN64      -0.2717
     23  NE2       -7.3530    9.6350   11.9090 N.am   64  GLN64      -0.0878
     24  N         -1.3210    8.7790   11.9710 N.am   65  VAL65      -0.1977
     25  CA        -0.0170    8.0810   11.8880 C.3    65  VAL65       0.1596
     26  C          1.0770    9.0580   12.3540 C.2    65  VAL65       0.2287
     27  O          0.8810   10.2680   12.1990 O.2    65  VAL65      -0.2864
     28  CB         0.0570    7.6820   10.3780 C.3    65  VAL65       0.0276
     29  CG1        1.0610    8.4400    9.6110 C.3    65  VAL65       0.0022
     30  CG2       -0.1390    6.1790   10.0700 C.3    65  VAL65       0.0022
     31  N          5.6120    5.6960   15.8350 N.3    69  ASP69      -0.1225
     32  CA         4.8590    4.5700   16.4090 C.3    69  ASP69       0.1805
     33  C          3.9300    3.9270   15.3520 C.2    69  ASP69       0.2597
     34  O          3.2080    2.9780   15.7000 O.2    69  ASP69      -0.2718
     35  CB         4.0350    5.0160   17.6500 C.3    69  ASP69       0.1424
     36  CG         2.8970    5.9660   17.2960 C.2    69  ASP69       0.3668
     37  OD1        2.6610    6.3480   16.0900 O.co2  69  ASP69      -0.2456
     38  OD2        2.1450    6.2620   18.2870 O.co2  69  ASP69      -0.2456
     39  N          4.0840    4.2750   14.0490 N.am   70  GLU70      -0.1979
     40  CA         3.1410    3.7100   13.0420 C.3    70  GLU70       0.1602
     41  C          3.2250    2.1880   12.9460 C.2    70  GLU70       0.2287
     42  O          2.1880    1.5370   12.6400 O.2    70  GLU70      -0.2864
     43  CB         3.2400    4.2500   11.6120 C.3    70  GLU70       0.0415
     44  CG         4.6340    4.2340   11.0010 C.3    70  GLU70       0.1163
     45  CD         4.9150    2.9020   10.3250 C.2    70  GLU70       0.3649
     46  OE1        6.1080    2.6700    9.9590 O.co2  70  GLU70      -0.2457
     47  OE2        4.0120    2.0380   10.1340 O.co2  70  GLU70      -0.2457
     48  N          0.3160   -0.5670   15.1030 N.3    73  TYR73      -0.1227
     49  CA        -1.0220   -0.9790   14.5920 C.3    73  TYR73       0.1736
     50  C         -0.9040   -1.6340   13.2170 C.2    73  TYR73       0.2595
     51  O         -1.6700   -2.5900   12.9380 O.2    73  TYR73      -0.2718
     52  CB        -1.8280    0.2780   14.5090 C.3    73  TYR73       0.0548
     53  CG        -3.1510    0.2790   13.7760 C.ar   73  TYR73      -0.0200
     54  CD1       -4.3150    0.0080   14.5030 C.ar   73  TYR73      -0.0009
     55  CD2       -3.2460    0.5980   12.4450 C.ar   73  TYR73      -0.0009
     56  CE1       -5.5500    0.1070   13.8960 C.ar   73  TYR73       0.0417
     57  CE2       -4.4540    0.6570   11.8060 C.ar   73  TYR73       0.0417
     58  CZ        -5.5920    0.4490   12.5400 C.ar   73  TYR73       0.1957
     59  OH        -6.7830    0.5740   11.8860 O.3    73  TYR73      -0.2866
     60  N          0.0440   -1.2000   12.3840 N.am   74  HIS74      -0.1975
     61  CA         0.1250   -1.7860   11.0110 C.3    74  HIS74       0.1656
     62  C          0.5800   -3.2240   11.1530 C.2    74  HIS74       0.2291
     63  O         -0.0200   -4.1100   10.5340 O.2    74  HIS74      -0.2864
     64  CB         1.1020   -0.9700   10.1380 C.3    74  HIS74       0.0771
     65  CG         0.5290    0.3680    9.8570 C.ar   74  HIS74       0.0820
     66  ND1        1.2990    1.5050    9.7880 N.ar   74  HIS74      -0.2267
     67  CD2       -0.7670    0.7630    9.7060 C.ar   74  HIS74       0.1154
     68  CE1        0.5000    2.5440    9.5490 C.ar   74  HIS74       0.1986
     69  NE2       -0.7470    2.1230    9.4470 N.ar   74  HIS74      -0.2212
     70  N         -9.3490   -0.8260    8.1230 N.3   168  ASP168     -0.1225
     71  CA        -8.4680    0.1560    8.7120 C.3   168  ASP168      0.1805
     72  C         -9.0520    1.5570    8.5120 C.2   168  ASP168      0.2598
     73  O         -8.6240    2.2620    7.5650 O.2   168  ASP168     -0.2718
     74  CB        -7.0910    0.1190    8.0030 C.3   168  ASP168      0.1424
     75  CG        -6.1320    1.1700    8.5840 C.2   168  ASP168      0.3668
     76  OD1       -6.4390    1.7740    9.6400 O.co2 168  ASP168     -0.2456
     77  OD2       -5.0400    1.3460    7.9820 O.co2 168  ASP168     -0.2456
     78  N        -10.0160    1.9050    9.4000 N.am  169  THR169     -0.1939
     79  CA       -10.7150    3.2040    9.2530 C.3   169  THR169      0.2028
     80  C        -10.3910    4.2520   10.2400 C.2   169  THR169      0.2643
     81  O         -9.8150    3.9800   11.2980 O.2   169  THR169     -0.2714
     82  CB       -12.2350    2.9660    9.3850 C.3   169  THR169      0.1808
     83  OG1      -12.5200    2.5530   10.7210 O.3   169  THR169     -0.2208
     84  CG2      -12.6900    1.8840    8.3960 C.3   169  THR169      0.0379
     85  N        -10.7000    5.5040    9.8170 N.am  170  THR170     -0.1936
     86  CA       -10.8470    6.5380   10.7840 C.3   170  THR170      0.2028
     87  C        -11.9610    6.2090   11.8120 C.2   170  THR170      0.2638
     88  O        -12.6300    5.1740   11.7120 O.2   170  THR170     -0.2714
     89  CB       -11.2060    7.8360   10.0750 C.3   170  THR170      0.1808
     90  OG1      -12.2400    7.5620    9.1030 O.3   170  THR170     -0.2208
     91  CG2       -9.9800    8.4130    9.3780 C.3   170  THR170      0.0379
     92  N        -12.0880    7.0460   12.8610 N.am  171  ASP171     -0.2024
     93  CA       -13.1420    6.8760   13.8980 C.3   171  ASP171      0.1395
     94  C        -14.5010    7.1410   13.3210 C.3   171  ASP171      0.2041
     95  O        -14.6620    7.6070   12.1280 O.3   171  ASP171     -0.2185
     96  CB       -12.8590    7.7770   15.1130 C.3   171  ASP171      0.1383
     97  CG       -11.9250    7.1210   16.1730 C.2   171  ASP171      0.3667
     98  OD1      -11.7820    5.8890   16.2120 O.co2 171  ASP171     -0.2456
     99  OD2      -11.3550    7.8090   16.9990 O.co2 171  ASP171     -0.2456
    100  N        -10.4700   -1.4890   12.9160 N.3   201  GLN201     -0.1245
    101  CA        -9.9740   -0.5270   13.8280 C.3   201  GLN201      0.1566
    102  C        -11.0260   -0.4150   14.9580 C.2   201  GLN201      0.2260
    103  O        -12.1660    0.0800   14.7570 O.2   201  GLN201     -0.2867
    104  CB        -9.8840    0.7810   13.0540 C.3   201  GLN201      0.0367
    105  CG        -9.1460    1.8850   13.8340 C.3   201  GLN201      0.0905
    106  CD       -10.0240    2.6110   14.8060 C.2   201  GLN201      0.2608
    107  OE1      -10.1220    2.2690   16.0080 O.2   201  GLN201     -0.2717
    108  NE2      -10.6900    3.6610   14.2670 N.am  201  GLN201     -0.0878
    109  N         -0.4580    1.9880   21.4970 N.3   234  VAL234     -0.1245
    110  CA        -0.2900    3.0600   20.4910 C.3   234  VAL234      0.1561
    111  C         -0.4020    4.4420   21.1620 C.2   234  VAL234      0.2260
    112  O         -1.5050    4.9150   21.4820 O.2   234  VAL234     -0.2867
    113  CB        -1.3000    2.9570   19.3830 C.3   234  VAL234      0.0252
    114  CG1       -1.0710    4.0480   18.3810 C.3   234  VAL234      0.0019
    115  CG2       -1.1400    1.5680   18.6760 C.3   234  VAL234      0.0019
    116  N         -0.1510    7.3710   20.1630 N.3   236  THR236     -0.1203
    117  CA        -0.7700    8.4870   19.5010 C.3   236  THR236      0.1994
    118  C         -2.2230    8.1900   19.1070 C.2   236  THR236      0.2617
    119  O         -2.7530    8.8850   18.2650 O.2   236  THR236     -0.2717
    120  CB         0.0680    8.9790   18.2570 C.3   236  THR236      0.1784
    121  OG1        0.2450    7.8580   17.4180 O.3   236  THR236     -0.2211
    122  CG2        1.5000    9.6930   18.6760 C.3   236  THR236      0.0376
    123  N         -2.8840    7.1790   19.7250 N.am  237  TYR237     -0.1975
    124  CA        -4.3280    7.0850   19.7030 C.3   237  TYR237      0.1639
    125  C         -4.8450    7.4900   21.0970 C.2   237  TYR237      0.2290
    126  O         -4.2010    7.1990   22.0720 O.2   237  TYR237     -0.2864
    127  CB        -4.7610    5.6030   19.3870 C.3   237  TYR237      0.0560
    128  CG        -6.2630    5.4940   19.1770 C.ar  237  TYR237     -0.0198
    129  CD1       -6.8030    5.8510   17.9280 C.ar  237  TYR237     -0.0009
    130  CD2       -7.1570    5.0300   20.1960 C.ar  237  TYR237     -0.0009
    131  CE1       -8.1640    5.8150   17.6740 C.ar  237  TYR237      0.0417
    132  CE2       -8.5390    4.9960   19.9660 C.ar  237  TYR237      0.0417
    133  CZ        -9.0290    5.3760   18.6650 C.ar  237  TYR237      0.1957
    134  OH       -10.3950    5.3640   18.3900 O.3   237  TYR237     -0.2866
    135  N         -5.2320    0.9540   21.2560 N.3   242  ILE242     -0.1245
    136  CA        -6.2570    0.7570   20.2870 C.3   242  ILE242      0.1561
    137  C         -6.4840   -0.7240   20.2800 C.2   242  ILE242      0.2260
    138  O         -5.6100   -1.4480   20.5930 O.2   242  ILE242     -0.2867
    139  CB        -5.9260    1.4030   18.9470 C.3   242  ILE242      0.0252
    140  CG1       -7.1550    1.3750   18.0150 C.3   242  ILE242      0.0019
    141  CG2       -4.6950    0.7760   18.2990 C.3   242  ILE242      0.0019
    142  CD1       -6.9340    2.3470   16.8400 C.3   242  ILE242      0.0001
@<TRIPOS>BOND
     1    73    72    2
     2    77    75   ar
     3    74    75    1
     4    74    71    1
     5    70    71    1
     6    84    82    1
     7    72    71    1
     8    72    78   am
     9    75    76   ar
    10    90    89    1
    11    79    82    1
    12    79    78    1
    13    79    80    1
    14    91    89    1
    15    82    83    1
    16    69    68   ar
    17    69    67   ar
    18    68    66   ar
    19    29    28    1
    20    67    65   ar
    21    66    65   ar
    22    85    80   am
    23    85    86    1
    24    65    64    1
    25    46    45   ar
    26    30    28    1
    27    89    86    1
    28    47    45   ar
    29    64    61    1
    30    80    81    2
    31    45    44    1
    32    22    21    2
    33    28    25    1
    34    20    19    1
    35    20    21    1
    36    63    62    2
    37    19    16    1
    38    86    87    1
    39    21    23   am
    40    44    43    1
    41    61    62    1
    42    61    60    1
    43    43    40    1
    44    88    87    2
    45    57    55   ar
    46    57    58   ar
    47    87    92   am
    48    59    58    1
    49    25    24    1
    50    25    26    1
    51    24    17   am
    52    95    94    1
    53    16    17    1
    54    16    15    1
    55    17    18    2
    56    27    26    2
    57    60    50   am
    58    55    53   ar
    59    58    56   ar
    60    42    41    2
    61    92    93    1
    62    15     9   am
    63   100   101    1
    64    51    50    2
    65    41    40    1
    66     4     3    2
    67    40    39    1
    68   104   101    1
    69   104   105    1
    70    50    49    1
    71    94    93    1
    72    53    54   ar
    73    53    52    1
    74   101   102    1
    75   105   106    1
    76    56    54   ar
    77    93    96    1
    78     1     2    1
    79    39    33   am
    80     9     8    1
    81     9    10    2
    82     3     2    1
    83     3     7   am
    84   108   106   am
    85     5     2    1
    86     5     6    1
    87    52    49    1
    88    49    48    1
    89     8     7    1
    90     8    11    1
    91   103   102    2
    92   106   107    2
    93    96    97    1
    94    33    34    2
    95    33    32    1
    96    13    11    1
    97    31    32    1
    98    11    12    1
    99    37    36   ar
   100    97    98   ar
   101    97    99   ar
   102    12    14    1
   103    32    35    1
   104   142   140    1
   105    36    35    1
   106    36    38   ar
   107   121   120    1
   108   131   129   ar
   109   131   133   ar
   110   129   128   ar
   111   140   139    1
   112   120   122    1
   113   120   117    1
   114   119   118    2
   115   141   139    1
   116   114   113    1
   117   134   133    1
   118   133   132   ar
   119   115   113    1
   120   139   136    1
   121   118   117    1
   122   118   123   am
   123   128   127    1
   124   128   130   ar
   125   113   110    1
   126   127   124    1
   127   117   116    1
   128   124   123    1
   129   124   125    1
   130   132   130   ar
   131   137   136    1
   132   137   138    2
   133   136   135    1
   134   110   111    1
   135   110   109    1
   136   125   126    2
   137   111   112    2
