@<TRIPOS>MOLECULE
tmp/4yuzD01.pdb
 86 86 0 0 0
SMALL
GASTEIGER

@<TRIPOS>ATOM
      1  N         -9.0190   23.2340  -11.9630 N.3    10  GLU10      -0.1245
      2  CA        -7.8070   23.7120  -12.6550 C.3    10  GLU10       0.1567
      3  C         -6.9000   24.3990  -11.6400 C.2    10  GLU10       0.2260
      4  O         -7.3660   25.2670  -10.8900 O.2    10  GLU10      -0.2867
      5  CB        -8.1330   24.7450  -13.7360 C.3    10  GLU10       0.0388
      6  CG        -9.2730   24.3810  -14.6140 C.3    10  GLU10       0.1160
      7  CD        -9.9520   25.6270  -15.1240 C.2    10  GLU10       0.3649
      8  OE1       -9.4810   26.1160  -16.1960 O.co2  10  GLU10      -0.2457
      9  OE2      -10.9080   26.1130  -14.4220 O.co2  10  GLU10      -0.2457
     10  N         -9.4840   27.0210   -9.8340 N.3    18  MET18      -0.1230
     11  CA       -10.8770   27.2630  -10.2370 C.3    18  MET18       0.1702
     12  C        -11.5570   25.9260  -10.4560 C.2    18  MET18       0.2593
     13  O        -10.9280   24.9850  -10.9130 O.2    18  MET18      -0.2718
     14  CB       -10.9610   28.1060  -11.5380 C.3    18  MET18       0.0401
     15  CG        -9.6600   28.1690  -12.3350 C.3    18  MET18       0.0596
     16  SD        -9.3660   29.6760  -13.3150 S.3    18  MET18      -0.1393
     17  CE        -7.5890   29.5960  -13.6170 C.3    18  MET18       0.0692
     18  N        -12.8430   25.8440  -10.1680 N.am   19  SER19      -0.1938
     19  CA       -13.5440   24.5580  -10.1860 C.3    19  SER19       0.2055
     20  C        -14.9340   24.7090  -10.7810 C.2    19  SER19       0.2642
     21  O        -15.6060   25.7300  -10.5480 O.2    19  SER19      -0.2714
     22  CB       -13.6720   24.0200   -8.7680 C.3    19  SER19       0.2130
     23  OG       -12.4000   23.6880   -8.3000 O.3    19  SER19      -0.2179
     24  N        -15.3320   23.7100  -11.5660 N.am   20  LEU20      -0.1977
     25  CA       -16.6180   23.6970  -12.2520 C.3    20  LEU20       0.1596
     26  C        -17.2120   22.3130  -12.0590 C.2    20  LEU20       0.2287
     27  O        -16.5090   21.2840  -12.3440 O.2    20  LEU20      -0.2864
     28  CB       -16.4220   23.8700  -13.7730 C.3    20  LEU20       0.0297
     29  CG       -16.7070   25.1910  -14.4810 C.3    20  LEU20       0.0022
     30  CD1      -16.5200   24.9530  -15.9890 C.3    20  LEU20       0.0001
     31  CD2      -18.0870   25.7910  -14.1260 C.3    20  LEU20       0.0001
     32  N        -22.0030   28.1050  -18.4710 N.3    47  TRP47      -0.1241
     33  CA       -20.8250   27.7050  -19.3240 C.3    47  TRP47       0.1605
     34  C        -21.0530   26.7750  -20.5260 C.2    47  TRP47       0.2264
     35  O        -20.3090   26.8150  -21.5360 O.2    47  TRP47      -0.2867
     36  CB       -19.6910   27.1920  -18.4240 C.3    47  TRP47       0.0550
     37  CG       -19.2970   28.3030  -17.4680 C.ar   47  TRP47       0.0003
     38  CD1      -19.5570   28.3750  -16.1370 C.ar   47  TRP47       0.0946
     39  CD2      -18.6260   29.5540  -17.8150 C.ar   47  TRP47       0.0152
     40  NE1      -19.0810   29.5780  -15.6180 N.ar   47  TRP47      -0.2442
     41  CE2      -18.5190   30.3110  -16.6330 C.ar   47  TRP47       0.0810
     42  CE3      -18.1370   30.1010  -19.0240 C.ar   47  TRP47       0.0012
     43  CZ2      -17.9130   31.5600  -16.6040 C.ar   47  TRP47       0.0191
     44  CZ3      -17.5530   31.3680  -18.9970 C.ar   47  TRP47       0.0001
     45  CH2      -17.4440   32.0760  -17.7820 C.ar   47  TRP47       0.0015
     46  N         -8.7840   24.8940  -19.3900 N.3    57  ILE57      -0.1245
     47  CA        -9.9680   25.2090  -20.2360 C.3    57  ILE57       0.1561
     48  C         -9.5500   26.0940  -21.4530 C.2    57  ILE57       0.2260
     49  O         -8.8400   27.0900  -21.3220 O.2    57  ILE57      -0.2867
     50  CB       -11.0610   25.8760  -19.4040 C.3    57  ILE57       0.0252
     51  CG1      -11.6080   24.8740  -18.3990 C.3    57  ILE57       0.0019
     52  CG2      -12.2430   26.3620  -20.2590 C.3    57  ILE57       0.0019
     53  CD1      -12.6600   25.4700  -17.4720 C.3    57  ILE57       0.0001
     54  N        -13.4290   35.5820  -19.7630 N.3   218  PRO218     -0.2102
     55  CA       -13.7480   35.2630  -18.3670 C.3   218  PRO218      0.1504
     56  C        -13.1980   33.9480  -17.9070 C.2   218  PRO218      0.2576
     57  O        -13.1840   33.7200  -16.6890 O.2   218  PRO218     -0.2718
     58  CB       -15.2790   35.1670  -18.3210 C.3   218  PRO218      0.0282
     59  CG       -15.7070   35.0640  -19.7280 C.3   218  PRO218      0.0208
     60  CD       -14.6400   35.6910  -20.5900 C.3   218  PRO218      0.0893
     61  N        -12.7870   33.0640  -18.8290 N.am  219  THR219     -0.1939
     62  CA       -12.4050   31.6810  -18.4040 C.3   219  THR219      0.2028
     63  C        -10.9270   31.4770  -18.4640 C.2   219  THR219      0.2642
     64  O        -10.4410   30.3820  -18.1970 O.2   219  THR219     -0.2714
     65  CB       -13.0550   30.5620  -19.2790 C.3   219  THR219      0.1808
     66  OG1      -12.8130   30.8510  -20.6760 O.3   219  THR219     -0.2208
     67  CG2      -14.5450   30.4470  -19.0230 C.3   219  THR219      0.0379
     68  N        -10.1980   32.4880  -18.8970 N.am  220  TYR220     -0.1960
     69  CA        -8.7310   32.4140  -18.8430 C.3   220  TYR220      0.1756
     70  C         -8.2500   32.9160  -17.4650 C.2   220  TYR220      0.2461
     71  O         -8.9940   33.6290  -16.8050 O.2   220  TYR220     -0.2730
     72  CB        -8.0590   33.1180  -20.0310 C.3   220  TYR220      0.0574
     73  CG        -8.2130   32.3930  -21.3890 C.ar  220  TYR220     -0.0198
     74  CD1       -8.4840   31.0140  -21.4740 C.ar  220  TYR220     -0.0009
     75  CD2       -8.0720   33.0910  -22.5980 C.ar  220  TYR220     -0.0009
     76  CE1       -8.6200   30.3760  -22.7190 C.ar  220  TYR220      0.0417
     77  CE2       -8.2090   32.4530  -23.8430 C.ar  220  TYR220      0.0417
     78  CZ        -8.4870   31.1000  -23.9020 C.ar  220  TYR220      0.1957
     79  OH        -8.6010   30.4800  -25.1380 O.3   220  TYR220     -0.2866
     80  N         -7.0710   32.4180  -16.9700 N.am  221  PRO221     -0.2727
     81  CA        -6.6010   32.8110  -15.6310 C.3   221  PRO221      0.1402
     82  C         -6.5250   34.3230  -15.4600 C.2   221  PRO221      0.2269
     83  O         -5.9860   35.0360  -16.3600 O.2   221  PRO221     -0.2865
     84  CB        -5.1690   32.2470  -15.6040 C.3   221  PRO221      0.0296
     85  CG        -5.2740   30.9950  -16.4260 C.3   221  PRO221      0.0237
     86  CD        -6.1950   31.3750  -17.5590 C.3   221  PRO221      0.0939
@<TRIPOS>BOND
     1    79    78    1
     2    78    77   ar
     3    78    76   ar
     4    77    75   ar
     5    76    74   ar
     6    75    73   ar
     7    35    34    2
     8    74    73   ar
     9    48    49    2
    10    48    47    1
    11    73    72    1
    12    66    65    1
    13    60    54    1
    14    60    59    1
    15    34    33    1
    16    52    50    1
    17    47    50    1
    18    47    46    1
    19    72    69    1
    20    54    55    1
    21    59    58    1
    22    50    51    1
    23    33    32    1
    24    33    36    1
    25    65    67    1
    26    65    62    1
    27    42    44   ar
    28    42    39   ar
    29    44    45   ar
    30    68    69    1
    31    68    63   am
    32    69    70    1
    33    61    62    1
    34    61    56   am
    35    63    62    1
    36    63    64    2
    37    36    37    1
    38    51    53    1
    39    55    58    1
    40    55    56    1
    41    56    57    2
    42    39    37   ar
    43    39    41   ar
    44    45    43   ar
    45    86    80    1
    46    86    85    1
    47    37    38   ar
    48    70    80   am
    49    70    71    2
    50    80    81    1
    51    41    43   ar
    52    41    40   ar
    53    85    84    1
    54    83    82    2
    55     8     7   ar
    56    38    40   ar
    57    30    29    1
    58    81    84    1
    59    81    82    1
    60     7     6    1
    61     7     9   ar
    62     6     5    1
    63    29    31    1
    64    29    28    1
    65    28    25    1
    66     5     2    1
    67    17    16    1
    68    16    15    1
    69     2     1    1
    70     2     3    1
    71    27    26    2
    72    15    14    1
    73    25    26    1
    74    25    24    1
    75     3     4    2
    76    24    20   am
    77    14    11    1
    78    13    12    2
    79    20    21    2
    80    20    19    1
    81    12    11    1
    82    12    18   am
    83    11    10    1
    84    19    18    1
    85    19    22    1
    86    22    23    1
