@<TRIPOS>MOLECULE
tmp/4yuzA01.pdb
 87 85 0 0 0
SMALL
GASTEIGER

@<TRIPOS>ATOM
      1  N         -5.4340  -17.7370  -65.5500 N.3     5  GLU5       -0.1231
      2  CA        -4.4220  -16.7860  -65.1560 C.3     5  GLU5        0.1699
      3  C         -3.3650  -17.4670  -64.3080 C.2     5  GLU5        0.2592
      4  O         -3.6670  -17.9890  -63.2100 O.2     5  GLU5       -0.2718
      5  CB        -5.1130  -15.6620  -64.3610 C.3     5  GLU5        0.0402
      6  CG        -4.2380  -14.4690  -64.0660 C.3     5  GLU5        0.1161
      7  CD        -4.9980  -13.3930  -63.3160 C.2     5  GLU5        0.3649
      8  OE1       -5.7490  -13.7240  -62.3610 O.co2   5  GLU5       -0.2457
      9  OE2       -4.8310  -12.2170  -63.6480 O.co2   5  GLU5       -0.2457
     10  N         -2.1140  -17.4330  -64.7660 N.am    6  GLU6       -0.1966
     11  CA        -0.9920  -17.9370  -63.9670 C.3     6  GLU6        0.1733
     12  C          0.3280  -17.3620  -64.4160 C.2     6  GLU6        0.2616
     13  O          0.7200  -17.5330  -65.5630 O.2     6  GLU6       -0.2715
     14  CB        -0.9490  -19.4800  -63.7820 C.3     6  GLU6        0.0429
     15  CG        -0.4620  -20.3930  -64.9030 C.3     6  GLU6        0.1163
     16  CD        -0.2840  -21.8570  -64.4250 C.2     6  GLU6        0.3649
     17  OE1        0.7640  -22.1830  -63.8220 O.co2   6  GLU6       -0.2457
     18  OE2       -1.1860  -22.7080  -64.6330 O.co2   6  GLU6       -0.2457
     19  N          0.9870  -16.6740  -63.4900 N.am    7  ASN7       -0.1972
     20  CA         2.1920  -15.8810  -63.7530 C.3     7  ASN7        0.1688
     21  C          3.3910  -16.6020  -63.1750 C.2     7  ASN7        0.2292
     22  O          3.3710  -17.0920  -62.0160 O.2     7  ASN7       -0.2864
     23  CB         1.9770  -14.4190  -63.2660 C.3     7  ASN7        0.1181
     24  CG         3.2520  -13.6880  -62.7490 C.2     7  ASN7        0.2629
     25  OD1        4.3750  -13.8860  -63.2110 O.2     7  ASN7       -0.2716
     26  ND2        3.0350  -12.7870  -61.7810 N.am    7  ASN7       -0.0877
     27  N          4.6810  -16.5240  -59.4730 N.3    10  TRP10      -0.1241
     28  CA         3.8920  -17.1670  -58.3750 C.3    10  TRP10       0.1605
     29  C          3.6520  -18.6250  -58.7980 C.2    10  TRP10       0.2264
     30  O          2.5900  -18.9500  -59.3680 O.2    10  TRP10      -0.2867
     31  CB         2.5680  -16.4220  -58.1820 C.3    10  TRP10       0.0550
     32  CG         2.7300  -14.8970  -58.0670 C.ar   10  TRP10       0.0003
     33  CD1        3.7520  -14.2250  -57.4680 C.ar   10  TRP10       0.0946
     34  CD2        1.8060  -13.8960  -58.5430 C.ar   10  TRP10       0.0152
     35  NE1        3.5380  -12.8550  -57.5620 N.ar   10  TRP10      -0.2442
     36  CE2        2.3460  -12.6320  -58.2110 C.ar   10  TRP10       0.0810
     37  CE3        0.5860  -13.9510  -59.2360 C.ar   10  TRP10       0.0012
     38  CZ2        1.7200  -11.4360  -58.5520 C.ar   10  TRP10       0.0191
     39  CZ3       -0.0680  -12.7430  -59.5450 C.ar   10  TRP10       0.0001
     40  CH2        0.5110  -11.5010  -59.1840 C.ar   10  TRP10       0.0015
     41  N          2.9650  -22.7770  -59.2290 N.3    12  GLY12      -0.1210
     42  CA         2.0290  -23.7450  -58.7200 C.3    12  GLY12       0.1956
     43  C          0.7250  -23.0930  -58.2590 C.2    12  GLY12       0.2612
     44  O          0.0480  -23.6570  -57.3930 O.2    12  GLY12      -0.2717
     45  N          0.3510  -21.9320  -58.8280 N.am   13  GLN13      -0.1965
     46  CA        -0.9280  -21.2890  -58.4260 C.3    13  GLN13       0.1733
     47  C         -1.6930  -20.7830  -59.6260 C.2    13  GLN13       0.2616
     48  O         -1.0700  -20.2870  -60.5460 O.2    13  GLN13      -0.2715
     49  CB        -0.6490  -20.1230  -57.5100 C.3    13  GLN13       0.0408
     50  CG         0.0250  -20.5010  -56.2020 C.3    13  GLN13       0.0908
     51  CD         0.8080  -19.3280  -55.5930 C.2    13  GLN13       0.2608
     52  OE1        0.2380  -18.4920  -54.8980 O.2    13  GLN13      -0.2717
     53  NE2        2.1360  -19.2880  -55.8280 N.am   13  GLN13      -0.0878
     54  N         -3.0280  -20.8660  -59.6460 N.am   14  ALA14      -0.1963
     55  CA        -3.7410  -20.3820  -60.8410 C.3    14  ALA14       0.1728
     56  C         -5.1680  -19.9470  -60.4390 C.2    14  ALA14       0.2616
     57  O         -5.7130  -20.4410  -59.4330 O.2    14  ALA14      -0.2715
     58  CB        -3.7960  -21.4380  -61.9860 C.3    14  ALA14       0.0334
     59  N         -5.7240  -19.0160  -61.1920 N.am   15  MET15      -0.1977
     60  CA        -7.1280  -18.6470  -61.0890 C.3    15  MET15       0.1605
     61  C         -7.7510  -18.7380  -62.4740 C.2    15  MET15       0.2287
     62  O         -7.1270  -18.3230  -63.4370 O.2    15  MET15      -0.2864
     63  CB        -7.2550  -17.1770  -60.5840 C.3    15  MET15       0.0413
     64  CG        -8.6610  -16.5540  -60.7740 C.3    15  MET15       0.0598
     65  SD        -8.8110  -14.8310  -60.1860 S.3    15  MET15      -0.1393
     66  CE        -8.1250  -14.8820  -58.5060 C.3    15  MET15       0.0692
     67  N          1.5780  -11.3370  -52.1710 N.3   186  LEU186     -0.1245
     68  CA         2.4150  -12.0180  -53.1880 C.3   186  LEU186      0.1561
     69  C          3.6760  -11.2300  -53.6000 C.2   186  LEU186      0.2260
     70  O          4.5910  -11.8190  -54.1070 O.2   186  LEU186     -0.2867
     71  CB         1.6090  -12.3400  -54.4500 C.3   186  LEU186      0.0270
     72  CG         0.3700  -13.2030  -54.2440 C.3   186  LEU186      0.0019
     73  CD1       -0.4580  -13.2450  -55.5510 C.3   186  LEU186      0.0001
     74  CD2        0.7910  -14.5850  -53.7800 C.3   186  LEU186      0.0001
     75  N         -5.5480  -11.4650  -57.6270 N.3   217  PRO217     -0.2102
     76  CA        -4.9860  -12.5740  -56.8460 C.3   217  PRO217      0.1504
     77  C         -4.8880  -12.2270  -55.3320 C.2   217  PRO217      0.2576
     78  O         -4.2020  -11.2590  -54.9780 O.2   217  PRO217     -0.2718
     79  CB        -3.5570  -12.6710  -57.3800 C.3   217  PRO217      0.0282
     80  CG        -3.6170  -12.1280  -58.7810 C.3   217  PRO217      0.0208
     81  CD        -4.7390  -11.1370  -58.8240 C.3   217  PRO217      0.0893
     82  N         -5.5270  -13.0380  -54.4880 N.am  218  CYS218     -0.1971
     83  CA        -5.5940  -12.8780  -53.0130 C.3   218  CYS218      0.1712
     84  C         -6.3870  -11.6820  -52.5720 C.2   218  CYS218      0.2296
     85  O         -6.2890  -11.2750  -51.4020 O.2   218  CYS218     -0.2864
     86  CB        -4.2130  -12.7360  -52.3770 C.3   218  CYS218      0.0983
     87  SG        -3.1480  -14.1760  -52.5570 S.3   218  CYS218     -0.0798
@<TRIPOS>BOND
     1    13    12    2
     2     1     2    1
     3     2     5    1
     4     2     3    1
     5    15    16    1
     6    15    14    1
     7    10     3   am
     8    10    11    1
     9    18    16   ar
    10    16    17   ar
    11    12    11    1
    12    12    19   am
    13     5     6    1
    14     3     4    2
    15     6     7    1
    16    11    14    1
    17    20    19    1
    18    20    23    1
    19    20    21    1
    20     9     7   ar
    21    62    61    2
    22     7     8   ar
    23    23    24    1
    24    25    24    2
    25    21    22    2
    26    24    26   am
    27    61    60    1
    28    58    55    1
    29    59    60    1
    30    59    56   am
    31    60    63    1
    32    55    56    1
    33    55    54    1
    34    64    63    1
    35    64    65    1
    36    48    47    2
    37    56    57    2
    38    65    66    1
    39    54    47   am
    40    47    46    1
    41    39    37   ar
    42    39    40   ar
    43    27    28    1
    44    30    29    2
    45    37    34   ar
    46    41    42    1
    47    40    38   ar
    48    45    46    1
    49    45    43   am
    50    81    80    1
    51    81    75    1
    52    29    28    1
    53    80    79    1
    54    42    43    1
    55    38    36   ar
    56    34    36   ar
    57    34    32   ar
    58    46    49    1
    59    28    31    1
    60    43    44    2
    61    36    35   ar
    62    31    32    1
    63    32    33   ar
    64    75    76    1
    65    35    33   ar
    66    49    50    1
    67    79    76    1
    68    76    77    1
    69    50    51    1
    70    53    51   am
    71    51    52    2
    72    73    72    1
    73    77    78    2
    74    77    82   am
    75    82    83    1
    76    71    72    1
    77    71    68    1
    78    72    74    1
    79    70    69    2
    80    69    68    1
    81    68    67    1
    82    83    84    1
    83    83    86    1
    84    84    85    2
    85    87    86    1
