@<TRIPOS>MOLECULE
tmp/4yv0D01.pdb
 84 85 0 0 0
SMALL
GASTEIGER

@<TRIPOS>ATOM
      1  N         -9.0060   23.3250  -11.9930 N.3    10  GLU10      -0.1245
      2  CA        -7.9450   23.8650  -12.8310 C.3    10  GLU10       0.1567
      3  C         -6.9090   24.5890  -11.9140 C.2    10  GLU10       0.2260
      4  O         -7.2150   25.6120  -11.2880 O.2    10  GLU10      -0.2867
      5  CB        -8.6000   24.8520  -13.7930 C.3    10  GLU10       0.0388
      6  CG        -7.8180   25.1060  -15.0270 C.3    10  GLU10       0.1160
      7  CD        -8.5590   26.0240  -15.9130 C.2    10  GLU10       0.3649
      8  OE1       -9.5900   26.5360  -15.4930 O.co2  10  GLU10      -0.2457
      9  OE2       -8.0970   26.2590  -17.0080 O.co2  10  GLU10      -0.2457
     10  N          0.2610   29.8280  -12.7890 N.3    15  TRP15      -0.1241
     11  CA        -0.5260   30.7240  -11.9500 C.3    15  TRP15       0.1605
     12  C         -0.6350   30.1540  -10.5230 C.2    15  TRP15       0.2264
     13  O         -1.6920   29.6190  -10.1430 O.2    15  TRP15      -0.2867
     14  CB        -1.9250   31.0330  -12.5640 C.3    15  TRP15       0.0550
     15  CG        -2.3650   30.2130  -13.8270 C.ar   15  TRP15       0.0003
     16  CD1       -1.8970   30.3690  -15.1430 C.ar   15  TRP15       0.0946
     17  CD2       -3.3570   29.1790  -13.8870 C.ar   15  TRP15       0.0152
     18  NE1       -2.5270   29.4640  -15.9790 N.ar   15  TRP15      -0.2442
     19  CE2       -3.4060   28.7120  -15.2440 C.ar   15  TRP15       0.0810
     20  CE3       -4.1710   28.5540  -12.9230 C.ar   15  TRP15       0.0012
     21  CZ2       -4.2670   27.6740  -15.6630 C.ar   15  TRP15       0.0191
     22  CZ3       -4.9990   27.4920  -13.3360 C.ar   15  TRP15       0.0001
     23  CH2       -5.0460   27.0720  -14.7110 C.ar   15  TRP15       0.0015
     24  N         -3.8270   29.9220   -7.0950 N.3    18  GLN18      -0.1231
     25  CA        -5.2540   30.1580   -7.4610 C.3    18  GLN18       0.1698
     26  C         -5.8580   28.9340   -8.2080 C.2    18  GLN18       0.2592
     27  O         -5.1350   28.1260   -8.8090 O.2    18  GLN18      -0.2718
     28  CB        -5.3920   31.4940   -8.2720 C.3    18  GLN18       0.0381
     29  CG        -4.7530   31.4310   -9.6710 C.3    18  GLN18       0.0905
     30  CD        -4.5360   32.7810  -10.4210 C.2    18  GLN18       0.2608
     31  OE1       -5.1420   32.9870  -11.4650 O.2    18  GLN18      -0.2717
     32  NE2       -3.6100   33.6340   -9.9570 N.am   18  GLN18      -0.0878
     33  N         -7.1800   28.8170   -8.2250 N.am   19  ALA19      -0.1966
     34  CA        -7.7950   27.6110   -8.8060 C.3    19  ALA19       0.1728
     35  C         -9.1980   27.9330   -9.2520 C.2    19  ALA19       0.2616
     36  O         -9.9250   28.6530   -8.5540 O.2    19  ALA19      -0.2715
     37  CB        -7.8190   26.4810   -7.7860 C.3    19  ALA19       0.0334
     38  N         -9.5780   27.4520  -10.4210 N.am   20  MET20      -0.1977
     39  CA       -10.9890   27.4910  -10.8200 C.3    20  MET20       0.1605
     40  C        -11.6040   26.1030  -10.9440 C.2    20  MET20       0.2287
     41  O        -10.9950   25.1700  -11.4610 O.2    20  MET20      -0.2864
     42  CB       -11.1940   28.2050  -12.1480 C.3    20  MET20       0.0413
     43  CG       -12.6540   28.1520  -12.5830 C.3    20  MET20       0.0598
     44  SD       -13.0730   29.2830  -13.9120 S.3    20  MET20      -0.1393
     45  CE       -12.3000   28.4390  -15.2780 C.3    20  MET20       0.0692
     46  N        -14.0780   35.4790  -19.2990 N.3   231  PRO231     -0.2102
     47  CA       -14.3350   35.0850  -17.8800 C.3   231  PRO231      0.1504
     48  C        -13.8110   33.7420  -17.4410 C.2   231  PRO231      0.2576
     49  O        -13.6630   33.5220  -16.2500 O.2   231  PRO231     -0.2718
     50  CB       -15.8590   35.1780  -17.7390 C.3   231  PRO231      0.0282
     51  CG       -16.4020   35.1980  -19.1290 C.3   231  PRO231      0.0208
     52  CD       -15.3130   35.6780  -20.0710 C.3   231  PRO231      0.0893
     53  N        -13.5370   32.8200  -18.3710 N.am  232  THR232     -0.1939
     54  CA       -13.1030   31.4430  -17.9940 C.3   232  THR232      0.2028
     55  C        -11.5860   31.2240  -18.0410 C.2   232  THR232      0.2642
     56  O        -11.1170   30.1750  -17.6850 O.2   232  THR232     -0.2714
     57  CB       -13.7790   30.3010  -18.8420 C.3   232  THR232      0.1808
     58  OG1      -13.6060   30.5370  -20.2500 O.3   232  THR232     -0.2208
     59  CG2      -15.2590   30.1380  -18.4900 C.3   232  THR232      0.0379
     60  N        -10.8560   32.2160  -18.5380 N.am  233  TYR233     -0.1960
     61  CA        -9.4120   32.2510  -18.5890 C.3   233  TYR233      0.1756
     62  C         -8.8150   32.7860  -17.2590 C.2   233  TYR233      0.2461
     63  O         -9.4930   33.4940  -16.5490 O.2   233  TYR233     -0.2730
     64  CB        -8.9570   33.0910  -19.8000 C.3   233  TYR233      0.0574
     65  CG        -9.0490   32.3660  -21.1490 C.ar  233  TYR233     -0.0198
     66  CD1       -9.4250   31.0210  -21.2490 C.ar  233  TYR233     -0.0009
     67  CD2       -8.7340   33.0360  -22.3540 C.ar  233  TYR233     -0.0009
     68  CE1       -9.4540   30.3650  -22.4830 C.ar  233  TYR233      0.0417
     69  CE2       -8.7900   32.3820  -23.6000 C.ar  233  TYR233      0.0417
     70  CZ        -9.1290   31.0450  -23.6520 C.ar  233  TYR233      0.1957
     71  OH        -9.1870   30.4150  -24.8720 O.3   233  TYR233     -0.2866
     72  N         -7.5740   32.3660  -16.9000 N.am  234  PRO234     -0.2716
     73  CA        -6.8880   32.8170  -15.6890 C.3   234  PRO234      0.1536
     74  C         -6.8760   34.3310  -15.5720 C.2   234  PRO234      0.2598
     75  O         -6.4180   35.0270  -16.5180 O.2   234  PRO234     -0.2715
     76  CB        -5.4510   32.2680  -15.8750 C.3   234  PRO234      0.0310
     77  CG        -5.6480   31.0130  -16.6740 C.3   234  PRO234      0.0237
     78  CD        -6.7720   31.3380  -17.6350 C.3   234  PRO234      0.0939
     79  N         -7.4000   34.8270  -14.4440 N.am  235  CYS235     -0.1968
     80  CA        -7.5020   36.2740  -14.1360 C.3   235  CYS235      0.1712
     81  C         -8.4500   37.0800  -15.0240 C.2   235  CYS235      0.2296
     82  O         -8.3630   38.2970  -15.0070 O.2   235  CYS235     -0.2864
     83  CB        -6.1300   36.9920  -14.1090 C.3   235  CYS235      0.0983
     84  SG        -5.0640   36.3790  -12.7450 S.3   235  CYS235     -0.0798
@<TRIPOS>BOND
     1    71    70    1
     2    70    69   ar
     3    70    68   ar
     4    69    67   ar
     5    68    66   ar
     6    67    65   ar
     7    66    65   ar
     8    65    64    1
     9    58    57    1
    10    52    46    1
    11    52    51    1
    12    64    61    1
    13    46    47    1
    14    51    50    1
    15    57    59    1
    16    57    54    1
    17    61    60    1
    18    61    62    1
    19    60    55   am
    20    53    54    1
    21    53    48   am
    22    55    54    1
    23    55    56    2
    24    47    50    1
    25    47    48    1
    26    78    72    1
    27    78    77    1
    28    48    49    2
    29    62    72   am
    30    62    63    2
    31     9     7   ar
    32    72    73    1
    33    77    76    1
    34    75    74    2
    35    18    19   ar
    36    18    16   ar
    37     7     8   ar
    38     7     6    1
    39    76    73    1
    40    73    74    1
    41    21    19   ar
    42    21    23   ar
    43    74    79   am
    44    45    44    1
    45    19    17   ar
    46    16    15   ar
    47     6     5    1
    48    81    82    2
    49    81    80    1
    50    23    22   ar
    51    79    80    1
    52    80    83    1
    53    83    84    1
    54    44    43    1
    55    17    15   ar
    56    17    20   ar
    57    15    14    1
    58     5     2    1
    59    22    20   ar
    60     2     1    1
    61     2     3    1
    62    10    11    1
    63    43    42    1
    64    14    11    1
    65    42    39    1
    66    11    12    1
    67     3     4    2
    68    31    30    2
    69    41    40    2
    70    40    39    1
    71    39    38    1
    72    12    13    2
    73    30    32   am
    74    30    29    1
    75    38    35   am
    76    29    28    1
    77    35    34    1
    78    35    36    2
    79    27    26    2
    80    34    33    1
    81    34    37    1
    82    28    25    1
    83    33    26   am
    84    26    25    1
    85    25    24    1
