@<TRIPOS>MOLECULE
tmp/4yv0C01.pdb
 90 89 0 0 0
SMALL
GASTEIGER

@<TRIPOS>ATOM
      1  N         -9.1110   29.3900    0.1910 N.3     6  PHE6       -0.1241
      2  CA       -10.3280   30.2030    0.3600 C.3     6  PHE6        0.1605
      3  C        -11.1640   29.9910   -0.8710 C.2     6  PHE6        0.2264
      4  O        -10.6790   30.2160   -1.9990 O.2     6  PHE6       -0.2867
      5  CB       -10.0110   31.7130    0.5530 C.3     6  PHE6        0.0534
      6  CG       -11.2380   32.6010    0.5280 C.ar    6  PHE6       -0.0203
      7  CD1      -11.7610   33.0700   -0.6840 C.ar    6  PHE6       -0.0042
      8  CD2      -11.8700   32.9960    1.7330 C.ar    6  PHE6       -0.0042
      9  CE1      -12.9020   33.8720   -0.7000 C.ar    6  PHE6       -0.0003
     10  CE2      -12.9930   33.8280    1.7060 C.ar    6  PHE6       -0.0003
     11  CZ       -13.5100   34.2600    0.4860 C.ar    6  PHE6       -0.0000
     12  N        -14.7040   30.7810   -3.0670 N.3     8  GLU8       -0.1245
     13  CA       -15.8360   31.6500   -3.3050 C.3     8  GLU8        0.1567
     14  C        -16.7460   31.0450   -4.3870 C.2     8  GLU8        0.2260
     15  O        -16.2460   30.6290   -5.4440 O.2     8  GLU8       -0.2867
     16  CB       -15.2200   32.9600   -3.7670 C.3     8  GLU8        0.0388
     17  CG       -16.1060   34.0940   -4.1810 C.3     8  GLU8        0.1160
     18  CD       -15.2140   35.2460   -4.5520 C.2     8  GLU8        0.3649
     19  OE1      -14.6800   35.8800   -3.6400 O.co2   8  GLU8       -0.2457
     20  OE2      -14.9820   35.4680   -5.7540 O.co2   8  GLU8       -0.2457
     21  N        -14.1890   29.8060   -7.3860 N.3    14  MET14      -0.1230
     22  CA       -12.8760   30.4120   -7.6700 C.3    14  MET14       0.1702
     23  C        -12.1320   30.4030   -6.3510 C.2    14  MET14       0.2593
     24  O        -12.7290   30.7720   -5.3350 O.2    14  MET14      -0.2718
     25  CB       -13.0470   31.8670   -8.1830 C.3    14  MET14       0.0401
     26  CG       -14.0370   32.0880   -9.3420 C.3    14  MET14       0.0596
     27  SD       -13.3880   31.5130  -10.9120 S.3    14  MET14      -0.1393
     28  CE       -13.6080   32.9390  -11.9990 C.3    14  MET14       0.0692
     29  N        -10.8670   29.9680   -6.3300 N.am   15  SER15      -0.1938
     30  CA       -10.1740   29.8510   -5.0450 C.3    15  SER15       0.2055
     31  C         -8.7810   30.4130   -5.0100 C.2    15  SER15       0.2642
     32  O         -8.0250   30.4780   -6.0120 O.2    15  SER15      -0.2714
     33  CB       -10.1700   28.4120   -4.5210 C.3    15  SER15       0.2130
     34  OG       -11.4610   27.8530   -4.6470 O.3    15  SER15      -0.2179
     35  N         -8.4440   30.8380   -3.8160 N.am   16  LEU16      -0.1977
     36  CA        -7.1090   31.3110   -3.5490 C.3    16  LEU16       0.1596
     37  C         -6.5200   30.4850   -2.4020 C.2    16  LEU16       0.2287
     38  O         -7.2010   30.1600   -1.4180 O.2    16  LEU16      -0.2864
     39  CB        -7.1190   32.7960   -3.2380 C.3    16  LEU16       0.0297
     40  CG        -7.1140   33.8450   -4.3560 C.3    16  LEU16       0.0022
     41  CD1       -6.6240   35.1430   -3.7250 C.3    16  LEU16       0.0001
     42  CD2       -6.2420   33.4860   -5.5720 C.3    16  LEU16       0.0001
     43  N         -0.8630   37.7380   -4.9540 N.3    43  TRP43      -0.1241
     44  CA        -2.0210   38.4700   -4.3750 C.3    43  TRP43       0.1605
     45  C         -1.7650   39.2370   -3.0620 C.2    43  TRP43       0.2264
     46  O         -2.4380   40.2530   -2.7820 O.2    43  TRP43      -0.2867
     47  CB        -3.3100   37.5830   -4.3210 C.3    43  TRP43       0.0550
     48  CG        -3.5370   36.9510   -5.7010 C.ar   43  TRP43       0.0003
     49  CD1       -3.2420   35.6850   -6.0870 C.ar   43  TRP43       0.0946
     50  CD2       -3.9670   37.6440   -6.8870 C.ar   43  TRP43       0.0152
     51  NE1       -3.4830   35.5230   -7.4530 N.ar   43  TRP43      -0.2442
     52  CE2       -3.9230   36.7090   -7.9680 C.ar   43  TRP43       0.0810
     53  CE3       -4.3840   38.9680   -7.1440 C.ar   43  TRP43       0.0012
     54  CZ2       -4.2700   37.0530   -9.2840 C.ar   43  TRP43       0.0191
     55  CZ3       -4.7340   39.3180   -8.4690 C.ar   43  TRP43       0.0001
     56  CH2       -4.6940   38.3530   -9.5140 C.ar   43  TRP43       0.0015
     57  N        -14.4130   38.2410   -2.0150 N.3    53  ILE53      -0.1245
     58  CA       -13.1570   39.0140   -1.9810 C.3    53  ILE53       0.1561
     59  C        -13.3850   40.4790   -2.3840 C.2    53  ILE53       0.2260
     60  O        -13.9800   40.7670   -3.4440 O.2    53  ILE53      -0.2867
     61  CB       -12.0330   38.3460   -2.8280 C.3    53  ILE53       0.0252
     62  CG1      -11.5380   37.0220   -2.1550 C.3    53  ILE53       0.0019
     63  CG2      -10.8810   39.3360   -3.1000 C.3    53  ILE53       0.0019
     64  CD1      -10.8870   36.0180   -3.1470 C.3    53  ILE53       0.0001
     65  N         -8.9040   41.2660  -11.6510 N.3   214  PRO214     -0.2102
     66  CA        -8.6500   39.8330  -11.8480 C.3   214  PRO214      0.1504
     67  C         -9.1200   38.9780  -10.6640 C.2   214  PRO214      0.2576
     68  O         -9.3520   37.7750  -10.8590 O.2   214  PRO214     -0.2718
     69  CB        -7.1360   39.7460  -12.0370 C.3   214  PRO214      0.0282
     70  CG        -6.5980   40.9290  -11.3710 C.3   214  PRO214      0.0208
     71  CD        -7.6540   42.0190  -11.4470 C.3   214  PRO214      0.0893
     72  N         -9.3720   39.6070   -9.5000 N.am  215  THR215     -0.1939
     73  CA        -9.9590   38.8630   -8.3910 C.3   215  THR215      0.2028
     74  C        -11.4710   39.0120   -8.2040 C.2   215  THR215      0.2642
     75  O        -11.9950   38.5790   -7.1540 O.2   215  THR215     -0.2714
     76  CB        -9.3120   39.2060   -7.0330 C.3   215  THR215      0.1808
     77  OG1       -9.4390   40.5990   -6.7660 O.3   215  THR215     -0.2208
     78  CG2       -7.8780   38.8170   -6.9910 C.3   215  THR215      0.0379
     79  N        -12.1930   39.6460   -9.1480 N.am  216  TYR216     -0.1973
     80  CA       -13.6510   39.5830   -9.0390 C.3   216  TYR216      0.1639
     81  C        -14.1570   38.4400   -9.9120 C.2   216  TYR216      0.2290
     82  O        -13.4930   38.0610  -10.9070 O.2   216  TYR216     -0.2864
     83  CB       -14.3740   40.9270   -9.2630 C.3   216  TYR216      0.0560
     84  CG       -14.1680   42.0010   -8.1710 C.ar  216  TYR216     -0.0198
     85  CD1      -13.9380   41.6670   -6.8140 C.ar  216  TYR216     -0.0009
     86  CD2      -14.2110   43.3770   -8.4910 C.ar  216  TYR216     -0.0009
     87  CE1      -13.7590   42.6770   -5.8290 C.ar  216  TYR216      0.0417
     88  CE2      -14.0360   44.3760   -7.5150 C.ar  216  TYR216      0.0417
     89  CZ       -13.8160   44.0370   -6.1860 C.ar  216  TYR216      0.1957
     90  OH       -13.6320   45.0510   -5.2390 O.3   216  TYR216     -0.2866
@<TRIPOS>BOND
     1    69    66    1
     2    69    70    1
     3    28    27    1
     4    66    65    1
     5    66    67    1
     6    65    71    1
     7    71    70    1
     8    27    26    1
     9    82    81    2
    10    68    67    2
    11    67    72   am
    12    81    80    1
    13    56    54   ar
    14    56    55   ar
    15    72    73    1
    16    26    25    1
    17    54    52   ar
    18    83    80    1
    19    83    84    1
    20    79    80    1
    21    79    74   am
    22    86    84   ar
    23    86    88   ar
    24    55    53   ar
    25    73    74    1
    26    73    76    1
    27    74    75    2
    28    25    22    1
    29    84    85   ar
    30    52    51   ar
    31    52    50   ar
    32    22    21    1
    33    22    23    1
    34    88    89   ar
    35    51    49   ar
    36    53    50   ar
    37    76    78    1
    38    76    77    1
    39    50    48   ar
    40    85    87   ar
    41    23    29   am
    42    23    24    2
    43    29    30    1
    44    89    87   ar
    45    89    90    1
    46    49    48   ar
    47    32    31    2
    48    20    18   ar
    49    48    47    1
    50    42    40    1
    51    15    14    2
    52    30    31    1
    53    30    33    1
    54    31    35   am
    55    43    44    1
    56    34    33    1
    57    18    17    1
    58    18    19   ar
    59    14    13    1
    60    44    47    1
    61    44    45    1
    62    40    41    1
    63    40    39    1
    64    17    16    1
    65    35    36    1
    66    16    13    1
    67    36    39    1
    68    36    37    1
    69    60    59    2
    70    13    12    1
    71    64    62    1
    72    63    61    1
    73    45    46    2
    74    61    62    1
    75    61    58    1
    76    37    38    2
    77    59    58    1
    78    57    58    1
    79     4     3    2
    80     3     2    1
    81     9     7   ar
    82     9    11   ar
    83     7     6   ar
    84     1     2    1
    85     2     5    1
    86    11    10   ar
    87     6     5    1
    88     6     8   ar
    89    10     8   ar
