@<TRIPOS>MOLECULE
tmp/4yv1D01.pdb
 105 106 0 0 0
SMALL
GASTEIGER

@<TRIPOS>ATOM
      1  N         -8.8310   23.4640  -12.2290 N.3    10  GLU10      -0.1231
      2  CA        -7.5990   23.9160  -12.8800 C.3    10  GLU10       0.1699
      3  C         -6.7340   24.6470  -11.8670 C.2    10  GLU10       0.2592
      4  O         -7.2220   25.5740  -11.1940 O.2    10  GLU10      -0.2718
      5  CB        -7.8880   24.9300  -13.9740 C.3    10  GLU10       0.0402
      6  CG        -8.9700   24.5570  -14.9180 C.3    10  GLU10       0.1161
      7  CD        -9.2160   25.6980  -15.8760 C.2    10  GLU10       0.3649
      8  OE1      -10.0700   26.5500  -15.5770 O.co2  10  GLU10      -0.2457
      9  OE2       -8.5520   25.7290  -16.9080 O.co2  10  GLU10      -0.2457
     10  N         -5.4990   24.1630  -11.7350 N.am   11  GLU11      -0.1966
     11  CA        -4.3750   24.8510  -11.0850 C.3    11  GLU11       0.1733
     12  C         -3.2520   24.5930  -12.0460 C.2    11  GLU11       0.2616
     13  O         -3.2050   23.5150  -12.6880 O.2    11  GLU11      -0.2715
     14  CB        -3.9350   24.2030   -9.7710 C.3    11  GLU11       0.0429
     15  CG        -4.7970   24.4220   -8.5520 C.3    11  GLU11       0.1163
     16  CD        -4.2720   23.6640   -7.3380 C.2    11  GLU11       0.3649
     17  OE1       -5.0500   22.8740   -6.7440 O.co2  11  GLU11      -0.2457
     18  OE2       -3.0960   23.8590   -6.9790 O.co2  11  GLU11      -0.2457
     19  N         -2.3480   25.5590  -12.1390 N.am   12  ASN12      -0.1972
     20  CA        -1.1950   25.4940  -13.0170 C.3    12  ASN12       0.1688
     21  C          0.0080   25.7820  -12.1410 C.2    12  ASN12       0.2292
     22  O         -0.0290   26.7380  -11.3740 O.2    12  ASN12      -0.2864
     23  CB        -1.3360   26.5680  -14.0930 C.3    12  ASN12       0.1181
     24  CG        -0.4750   26.2990  -15.3140 C.2    12  ASN12       0.2629
     25  OD1       -0.7310   25.3610  -16.0760 O.2    12  ASN12      -0.2716
     26  ND2        0.5350   27.1340  -15.5210 N.am   12  ASN12      -0.0877
     27  N          1.3030   29.2460  -11.9530 N.3    15  TRP15      -0.1241
     28  CA         0.5130   30.2500  -11.2060 C.3    15  TRP15       0.1605
     29  C          0.1560   29.7480   -9.7950 C.2    15  TRP15       0.2264
     30  O         -0.9700   29.2990   -9.5630 O.2    15  TRP15      -0.2867
     31  CB        -0.7520   30.5970  -11.9980 C.3    15  TRP15       0.0550
     32  CG        -0.4600   30.8670  -13.4460 C.ar   15  TRP15       0.0003
     33  CD1        0.5460   31.6490  -13.9450 C.ar   15  TRP15       0.0946
     34  CD2       -1.2010   30.3830  -14.5870 C.ar   15  TRP15       0.0152
     35  NE1        0.4940   31.6660  -15.3250 N.ar   15  TRP15      -0.2442
     36  CE2       -0.5620   30.9020  -15.7490 C.ar   15  TRP15       0.0810
     37  CE3       -2.3230   29.5460  -14.7420 C.ar   15  TRP15       0.0012
     38  CZ2       -1.0200   30.6290  -17.0500 C.ar   15  TRP15       0.0191
     39  CZ3       -2.7760   29.2600  -16.0480 C.ar   15  TRP15       0.0001
     40  CH2       -2.1240   29.8060  -17.1850 C.ar   15  TRP15       0.0015
     41  N         -3.6470   29.4110   -6.7180 N.3    18  GLN18      -0.1231
     42  CA        -4.9840   29.8150   -7.1800 C.3    18  GLN18       0.1698
     43  C         -5.5860   28.6980   -8.0520 C.2    18  GLN18       0.2592
     44  O         -4.8600   27.9760   -8.7380 O.2    18  GLN18      -0.2718
     45  CB        -4.8940   31.1480   -7.9710 C.3    18  GLN18       0.0381
     46  CG        -4.0320   31.0700   -9.2390 C.3    18  GLN18       0.0905
     47  CD        -4.0080   32.3760  -10.0480 C.2    18  GLN18       0.2608
     48  OE1       -3.2340   33.3030   -9.7420 O.2    18  GLN18      -0.2717
     49  NE2       -4.8130   32.4280  -11.1250 N.am   18  GLN18      -0.0878
     50  N         -6.9130   28.6340   -8.1080 N.am   19  ALA19      -0.1966
     51  CA        -7.5970   27.5460   -8.7950 C.3    19  ALA19       0.1728
     52  C         -8.9490   28.0480   -9.2350 C.2    19  ALA19       0.2616
     53  O         -9.5080   28.9480   -8.5890 O.2    19  ALA19      -0.2715
     54  CB        -7.7850   26.3760   -7.8410 C.3    19  ALA19       0.0334
     55  N         -9.4860   27.4970  -10.3170 N.am   20  MET20      -0.1977
     56  CA       -10.8860   27.7030  -10.6810 C.3    20  MET20       0.1605
     57  C        -11.4550   26.3210  -10.8900 C.2    20  MET20       0.2287
     58  O        -10.7480   25.4150  -11.3690 O.2    20  MET20      -0.2864
     59  CB       -11.0790   28.4790  -12.0120 C.3    20  MET20       0.0413
     60  CG       -12.5890   28.6510  -12.3380 C.3    20  MET20       0.0598
     61  SD       -13.1220   29.6990  -13.7370 S.3    20  MET20      -0.1393
     62  CE       -14.9190   29.6760  -13.5690 C.3    20  MET20       0.0692
     63  N        -14.0620   35.2630  -19.3960 N.2   229  PRO229     -0.2571
     64  CA       -14.2540   34.8940  -17.9920 C.3   229  PRO229      0.2026
     65  C        -13.6200   33.5680  -17.6320 C.2   229  PRO229      0.2684
     66  O        -13.2990   33.3560  -16.4770 O.2   229  PRO229     -0.2709
     67  CB       -15.7540   34.7560  -17.8380 C.2   229  PRO229      0.0085
     68  CG       -16.3900   35.1630  -19.1130 C.2   229  PRO229      0.0180
     69  CD       -15.3080   35.6100  -20.0890 C.2   229  PRO229      0.0938
     70  N        -13.4590   32.6500  -18.5890 N.am  230  THR230     -0.1932
     71  CA       -13.0040   31.2830  -18.2310 C.3   230  THR230      0.2028
     72  C        -11.4940   31.0890  -18.3790 C.2   230  THR230      0.2642
     73  O        -11.0060   30.0080  -18.1720 O.2   230  THR230     -0.2714
     74  CB       -13.7280   30.1750  -19.0650 C.3   230  THR230      0.1808
     75  OG1      -13.5460   30.4490  -20.4550 O.3   230  THR230     -0.2208
     76  CG2      -15.2480   30.0950  -18.7530 C.3   230  THR230      0.0379
     77  N        -10.7710   32.1240  -18.8020 N.am  231  TYR231     -0.1960
     78  CA        -9.3220   32.1180  -18.9070 C.3   231  TYR231      0.1756
     79  C         -8.7660   32.6600  -17.5580 C.2   231  TYR231      0.2461
     80  O         -9.4860   33.3130  -16.8110 O.2   231  TYR231     -0.2730
     81  CB        -8.8280   32.9200  -20.1330 C.3   231  TYR231      0.0574
     82  CG        -9.0110   32.2200  -21.5120 C.ar  231  TYR231     -0.0198
     83  CD1       -9.4140   30.8620  -21.6140 C.ar  231  TYR231     -0.0009
     84  CD2       -8.8030   32.9190  -22.7390 C.ar  231  TYR231     -0.0009
     85  CE1       -9.5260   30.2260  -22.8670 C.ar  231  TYR231      0.0417
     86  CE2       -8.9670   32.2920  -23.9940 C.ar  231  TYR231      0.0417
     87  CZ        -9.3100   30.9480  -24.0540 C.ar  231  TYR231      0.1957
     88  OH        -9.4310   30.3010  -25.2740 O.3   231  TYR231     -0.2866
     89  N         -7.5050   32.2690  -17.1850 N.am  232  PRO232     -0.2716
     90  CA        -6.8600   32.6010  -15.9080 C.3   232  PRO232      0.1536
     91  C         -6.8590   34.1290  -15.6740 C.2   232  PRO232      0.2599
     92  O         -6.4300   34.8560  -16.5770 O.2   232  PRO232     -0.2715
     93  CB        -5.4000   32.1320  -16.1390 C.3   232  PRO232      0.0310
     94  CG        -5.5730   30.9320  -17.0240 C.3   232  PRO232      0.0237
     95  CD        -6.7240   31.2790  -17.9540 C.3   232  PRO232      0.0939
     96  N         -7.3850   34.5560  -14.5420 N.am  233  CYS233     -0.1954
     97  CA        -7.5140   35.9880  -14.1700 C.3   233  CYS233      0.1843
     98  C         -8.4660   36.7960  -15.0750 C.2   233  CYS233      0.2626
     99  O         -8.5450   38.0170  -14.9510 O.2   233  CYS233     -0.2714
    100  CB        -6.1400   36.6910  -14.1450 C.3   233  CYS233      0.0997
    101  SG        -5.1500   36.2060  -12.6920 S.3   233  CYS233     -0.0797
    102  N         -9.2090   36.1100  -15.9370 N.am  234  GLY234     -0.1954
    103  CA       -10.3820   36.7590  -16.5880 C.3   234  GLY234      0.1869
    104  C        -10.1140   37.5720  -17.8450 C.2   234  GLY234      0.2309
    105  O        -11.0280   38.2070  -18.4050 O.2   234  GLY234     -0.2863
@<TRIPOS>BOND
     1    88    87    1
     2    87    86   ar
     3    87    85   ar
     4    86    84   ar
     5    85    83   ar
     6    84    82   ar
     7    83    82   ar
     8    82    81    1
     9    75    74    1
    10    81    78    1
    11    69    63    2
    12    69    68    1
    13    63    64    1
    14    68    67    2
    15    74    76    1
    16    74    71    1
    17    78    77    1
    18    78    79    1
    19    77    72   am
    20    70    71    1
    21    70    65   am
    22   105   104    2
    23    72    71    1
    24    72    73    2
    25    64    67    1
    26    64    65    1
    27    95    89    1
    28    95    94    1
    29   104   103    1
    30    65    66    2
    31    79    89   am
    32    79    80    2
    33    89    90    1
    34    40    38   ar
    35    40    39   ar
    36    38    36   ar
    37    94    93    1
    38     9     7   ar
    39   103   102    1
    40    92    91    2
    41    93    90    1
    42    25    24    2
    43    39    37   ar
    44   102    98   am
    45    90    91    1
    46     7     8   ar
    47     7     6    1
    48    36    35   ar
    49    36    34   ar
    50    91    96   am
    51    26    24   am
    52    35    33   ar
    53    24    23    1
    54    98    99    2
    55    98    97    1
    56     6     5    1
    57    37    34   ar
    58    34    32   ar
    59    96    97    1
    60    97   100    1
    61   100   101    1
    62    23    20    1
    63     5     2    1
    64    33    32   ar
    65    61    62    1
    66    61    60    1
    67    32    31    1
    68    20    21    1
    69    20    19    1
    70     2     1    1
    71     2     3    1
    72    13    12    2
    73    60    59    1
    74    21    22    2
    75    19    12   am
    76    12    11    1
    77    59    56    1
    78    31    28    1
    79    27    28    1
    80     3    10   am
    81     3     4    2
    82    10    11    1
    83    58    57    2
    84    28    29    1
    85    49    47   am
    86    11    14    1
    87    57    56    1
    88    56    55    1
    89    55    52   am
    90    47    48    2
    91    47    46    1
    92    29    30    2
    93    14    15    1
    94    46    45    1
    95    52    51    1
    96    52    53    2
    97    51    50    1
    98    51    54    1
    99    44    43    2
   100    15    16    1
   101    50    43   am
   102    43    42    1
   103    45    42    1
   104    16    18   ar
   105    16    17   ar
   106    42    41    1
