@<TRIPOS>MOLECULE
tmp/4yv2A02.pdb
 87 84 0 0 0
SMALL
GASTEIGER

@<TRIPOS>ATOM
      1  N         12.9820   18.8280   10.9960 N.3    10  GLU10      -0.1245
      2  CA        14.2430   18.4200   11.6300 C.3    10  GLU10       0.1567
      3  C         15.0890   17.5170   10.7340 C.2    10  GLU10       0.2260
      4  O         14.5980   16.6310   10.0390 O.2    10  GLU10      -0.2867
      5  CB        14.0390   17.8550   13.0500 C.3    10  GLU10       0.0388
      6  CG        13.9860   16.3350   13.2040 C.3    10  GLU10       0.1160
      7  CD        13.9860   15.8990   14.6810 C.2    10  GLU10       0.3649
      8  OE1       15.0330   15.4000   15.1720 O.co2  10  GLU10      -0.2457
      9  OE2       12.9520   16.0650   15.3720 O.co2  10  GLU10      -0.2457
     10  N         12.5850   14.8880    8.7940 N.3    20  MET20      -0.1245
     11  CA        11.3080   14.6530    9.4090 C.3    20  MET20       0.1570
     12  C         10.6450   16.0370    9.6130 C.2    20  MET20       0.2261
     13  O         11.3280   16.9970    9.9260 O.2    20  MET20      -0.2867
     14  CB        11.5680   14.0020   10.7590 C.3    20  MET20       0.0387
     15  CG        10.3300   13.4920   11.4610 C.3    20  MET20       0.0595
     16  SD         9.4020   14.8210   12.2370 S.3    20  MET20      -0.1393
     17  CE         7.7500   14.1450   12.0480 C.3    20  MET20       0.0692
     18  N          6.9010   18.3700   11.0390 N.3    22  LEU22      -0.1245
     19  CA         5.5500   18.4670   11.6240 C.3    22  LEU22       0.1561
     20  C          4.8910   19.7880   11.2720 C.2    22  LEU22       0.2260
     21  O          5.5390   20.8110   11.4410 O.2    22  LEU22      -0.2867
     22  CB         5.6160   18.4350   13.1560 C.3    22  LEU22       0.0270
     23  CG         5.6760   17.1700   14.0120 C.3    22  LEU22       0.0019
     24  CD1        5.7230   17.6300   15.4710 C.3    22  LEU22       0.0001
     25  CD2        4.4890   16.2360   13.7920 C.3    22  LEU22       0.0001
     26  N         -2.3450   13.0180   15.8920 N.3    48  PRO48      -0.2102
     27  CA        -2.4110   12.6090   17.3050 C.3    48  PRO48       0.1504
     28  C         -1.4330   13.3160   18.2700 C.2    48  PRO48       0.2575
     29  O         -1.5710   13.2160   19.5030 O.2    48  PRO48      -0.2718
     30  CB        -2.0930   11.1160   17.2300 C.3    48  PRO48       0.0282
     31  CG        -1.1540   11.0060   16.0310 C.3    48  PRO48       0.0208
     32  CD        -1.8020   11.9340   15.0320 C.3    48  PRO48       0.0893
     33  N         -0.4990   14.0730   17.7200 N.am   49  TRP49      -0.1977
     34  CA         0.6880   14.4620   18.4500 C.3    49  TRP49       0.1640
     35  C          0.4950   15.5090   19.5740 C.2    49  TRP49       0.2290
     36  O          1.3680   15.6390   20.4330 O.2    49  TRP49      -0.2864
     37  CB         1.7930   14.8670   17.4460 C.3    49  TRP49       0.0576
     38  CG         1.9970   13.8240   16.4500 C.ar   49  TRP49       0.0006
     39  CD1        2.6600   12.6370   16.6330 C.ar   49  TRP49       0.0946
     40  CD2        1.4760   13.7880   15.1100 C.ar   49  TRP49       0.0152
     41  NE1        2.6060   11.8810   15.4820 N.ar   49  TRP49      -0.2442
     42  CE2        1.8980   12.5640   14.5310 C.ar   49  TRP49       0.0810
     43  CE3        0.7170   14.6870   14.3280 C.ar   49  TRP49       0.0012
     44  CZ2        1.5880   12.2070   13.1980 C.ar   49  TRP49       0.0191
     45  CZ3        0.4010   14.3240   13.0010 C.ar   49  TRP49       0.0001
     46  CH2        0.8300   13.0920   12.4590 C.ar   49  TRP49       0.0015
     47  N         13.0500   17.1980   18.7830 N.3    59  ILE59      -0.1245
     48  CA        11.8210   16.9740   19.5390 C.3    59  ILE59       0.1561
     49  C         12.1290   16.1460   20.7610 C.2    59  ILE59       0.2260
     50  O         12.9320   15.2530   20.7390 O.2    59  ILE59      -0.2867
     51  CB        10.7530   16.2670   18.6760 C.3    59  ILE59       0.0252
     52  CG1       10.2310   17.2110   17.6040 C.3    59  ILE59       0.0019
     53  CG2        9.5850   15.7670   19.5230 C.3    59  ILE59       0.0019
     54  CD1        9.9870   16.5020   16.2970 C.3    59  ILE59       0.0001
     55  N          6.2390   14.8640   23.2710 N.3    62  THR62      -0.1218
     56  CA         4.9560   15.1780   22.6930 C.3    62  THR62       0.1862
     57  C          3.9340   14.6180   23.6270 C.2    62  THR62       0.2287
     58  O          4.2390   13.7160   24.4170 O.2    62  THR62      -0.2866
     59  CB         4.8010   14.5310   21.3200 C.3    62  THR62       0.1770
     60  OG1        4.4820   13.1390   21.4890 O.3    62  THR62      -0.2211
     61  CG2        6.1230   14.7500   20.4120 C.3    62  THR62       0.0375
     62  N          1.6300   12.8740   22.9970 N.3    64  TYR64      -0.1241
     63  CA         1.3550   11.5970   22.3920 C.3    64  TYR64       0.1605
     64  C          2.0720   10.3680   22.9700 C.2    64  TYR64       0.2264
     65  O          1.4500    9.3670   23.2380 O.2    64  TYR64      -0.2867
     66  CB         1.8110   11.7190   20.9410 C.3    64  TYR64       0.0534
     67  CG         1.4730   10.5220   20.0610 C.ar   64  TYR64      -0.0201
     68  CD1        0.2250    9.9080   20.1680 C.ar   64  TYR64      -0.0009
     69  CD2        2.3840   10.0440   19.0950 C.ar   64  TYR64      -0.0009
     70  CE1       -0.1140    8.8450   19.3700 C.ar   64  TYR64       0.0417
     71  CE2        2.0580    8.9670   18.2710 C.ar   64  TYR64       0.0417
     72  CZ         0.7930    8.3780   18.4190 C.ar   64  TYR64       0.1957
     73  OH         0.3760    7.3140   17.6610 O.3    64  TYR64      -0.2866
     74  N          7.6550    6.3400   19.0780 N.3   219  PRO219     -0.2102
     75  CA         7.4680    6.6260   17.6240 C.3   219  PRO219      0.1504
     76  C          7.9490    8.0110   17.1680 C.2   219  PRO219      0.2576
     77  O          8.3370    8.1980   15.9960 O.2   219  PRO219     -0.2718
     78  CB         5.9660    6.4790   17.4180 C.3   219  PRO219      0.0282
     79  CG         5.3540    6.6230   18.7710 C.3   219  PRO219      0.0208
     80  CD         6.3720    6.1220   19.7700 C.3   219  PRO219      0.0893
     81  N          7.9520    8.9660   18.0930 N.am  220  THR220     -0.1953
     82  CA         8.4300   10.3200   17.7780 C.3   220  THR220      0.1897
     83  C          9.9710   10.5100   17.8650 C.2   220  THR220      0.2313
     84  O         10.4700   11.5740   17.5390 O.2   220  THR220     -0.2863
     85  CB         7.6680   11.4090   18.6030 C.3   220  THR220      0.1794
     86  OG1        7.9880   11.2450   19.9810 O.3   220  THR220     -0.2208
     87  CG2        6.1420   11.2340   18.4430 C.3   220  THR220      0.0378
@<TRIPOS>BOND
     1    10    11    1
     2    11    12    1
     3    11    14    1
     4    12    13    2
     5     4     3    2
     6     3     2    1
     7    14    15    1
     8     1     2    1
     9    18    19    1
    10    20    21    2
    11    20    19    1
    12    15    16    1
    13    19    22    1
    14     2     5    1
    15    17    16    1
    16    46    45   ar
    17    46    44   ar
    18    45    43   ar
    19     5     6    1
    20    22    23    1
    21    44    42   ar
    22     6     7    1
    23    25    23    1
    24    23    24    1
    25    43    40   ar
    26    42    40   ar
    27    42    41   ar
    28     7     8   ar
    29     7     9   ar
    30    32    26    1
    31    32    31    1
    32    40    38   ar
    33    41    39   ar
    34    26    27    1
    35    77    76    2
    36    31    30    1
    37    54    52    1
    38    38    39   ar
    39    38    37    1
    40    76    75    1
    41    76    81   am
    42    30    27    1
    43    27    28    1
    44    78    75    1
    45    78    79    1
    46    37    34    1
    47    84    83    2
    48    52    51    1
    49    75    74    1
    50    73    72    1
    51    33    28   am
    52    33    34    1
    53    82    83    1
    54    82    81    1
    55    82    85    1
    56    28    29    2
    57    71    72   ar
    58    71    69   ar
    59    72    70   ar
    60    87    85    1
    61    34    35    1
    62    85    86    1
    63    51    53    1
    64    51    48    1
    65    79    80    1
    66    47    48    1
    67    74    80    1
    68    69    67   ar
    69    70    68   ar
    70    48    49    1
    71    35    36    2
    72    67    68   ar
    73    67    66    1
    74    61    59    1
    75    50    49    2
    76    66    63    1
    77    59    60    1
    78    59    56    1
    79    63    64    1
    80    63    62    1
    81    56    55    1
    82    56    57    1
    83    64    65    2
    84    57    58    2
