@<TRIPOS>MOLECULE
tmp/4yv8A00.pdb
 154 151 0 0 0
SMALL
GASTEIGER

@<TRIPOS>ATOM
      1  N        -16.2800   -0.3540   -2.5150 N.3    17  GLN17      -0.1245
      2  CA       -15.2990    0.7010   -2.4170 C.3    17  GLN17       0.1566
      3  C        -14.5220    0.7560   -1.0960 C.2    17  GLN17       0.2260
      4  O        -13.4740    1.2900   -1.0550 O.2    17  GLN17      -0.2867
      5  CB       -15.8370    2.0830   -2.8250 C.3    17  GLN17       0.0367
      6  CG       -16.9220    2.6550   -1.9890 C.3    17  GLN17       0.0905
      7  CD       -17.6840    3.7940   -2.6670 C.2    17  GLN17       0.2608
      8  OE1      -18.5010    3.5970   -3.5340 O.2    17  GLN17      -0.2717
      9  NE2      -17.4040    4.9600   -2.2380 N.am   17  GLN17      -0.0878
     10  N        -13.1120    4.6280    0.9820 N.3    20  CYS20      -0.1221
     11  CA       -12.5740    5.4580   -0.0620 C.3    20  CYS20       0.1808
     12  C        -13.7200    6.0190   -0.8790 C.2    20  CYS20       0.2601
     13  O        -14.5730    5.3040   -1.2990 O.2    20  CYS20      -0.2717
     14  CB       -11.6540    4.6340   -0.9740 C.3    20  CYS20       0.0970
     15  SG       -11.0170    5.4280   -2.4560 S.3    20  CYS20      -0.0800
     16  N        -13.7080    7.3110   -1.1180 N.am   21  GLY21      -0.1957
     17  CA       -14.7810    7.8900   -1.8670 C.3    21  GLY21       0.1869
     18  C        -14.5560    7.7830   -3.3390 C.2    21  GLY21       0.2309
     19  O        -14.4350    8.7620   -3.9910 O.2    21  GLY21      -0.2863
     20  N        -16.5360    6.1770   -5.6320 N.3    23  CYS23      -0.1221
     21  CA       -17.7560    5.7740   -6.2740 C.3    23  CYS23       0.1808
     22  C        -17.7180    6.1060   -7.7590 C.2    23  CYS23       0.2601
     23  O        -18.1250    5.3180   -8.5700 O.2    23  CYS23      -0.2717
     24  CB       -18.9460    6.4750   -5.6340 C.3    23  CYS23       0.0970
     25  SG       -18.8840    8.2540   -5.6530 S.3    23  CYS23      -0.0800
     26  N        -17.1470    7.2430   -8.0890 N.am   24  TRP24      -0.1976
     27  CA       -17.0000    7.6720   -9.4620 C.3    24  TRP24       0.1640
     28  C        -16.1760    6.6780  -10.3130 C.2    24  TRP24       0.2290
     29  O        -16.4770    6.4760  -11.4380 O.2    24  TRP24      -0.2864
     30  CB       -16.3540    9.0400   -9.5190 C.3    24  TRP24       0.0576
     31  CG       -15.0090    9.1570   -8.9100 C.ar   24  TRP24       0.0006
     32  CD1      -14.7110    9.4340   -7.6270 C.ar   24  TRP24       0.0946
     33  CD2      -13.7660    8.9410   -9.5490 C.ar   24  TRP24       0.0152
     34  NE1      -13.3830    9.4520   -7.4280 N.ar   24  TRP24      -0.2442
     35  CE2      -12.7690    9.1410   -8.5950 C.ar   24  TRP24       0.0810
     36  CE3      -13.3960    8.6350  -10.8430 C.ar   24  TRP24       0.0012
     37  CZ2      -11.4460    9.0210   -8.8920 C.ar   24  TRP24       0.0191
     38  CZ3      -12.0930    8.5320  -11.1220 C.ar   24  TRP24       0.0001
     39  CH2      -11.1250    8.7440  -10.1600 C.ar   24  TRP24       0.0015
     40  N         -9.7230    9.3410   -3.6350 N.3    61  CYS61      -0.1221
     41  CA       -10.6700    8.9080   -2.6330 C.3    61  CYS61       0.1808
     42  C        -11.5290   10.0660   -2.1500 C.2    61  CYS61       0.2602
     43  O        -12.3810    9.9240   -1.3630 O.2    61  CYS61      -0.2717
     44  CB        -9.9620    8.2050   -1.4840 C.3    61  CYS61       0.0970
     45  SG        -9.3910    6.5630   -1.8910 S.3    61  CYS61      -0.0800
     46  N        -11.2200   11.2340   -2.6450 N.am   62  GLY62      -0.1942
     47  CA       -11.9680   12.4090   -2.3300 C.3    62  GLY62       0.2014
     48  C        -13.0660   12.7640   -3.2990 C.2    62  GLY62       0.2639
     49  O        -13.6950   13.7710   -3.1380 O.2    62  GLY62      -0.2714
     50  N        -13.3090   11.9440   -4.2940 N.am   63  GLY63      -0.1939
     51  CA       -14.2900   12.2700   -5.2840 C.3    63  GLY63       0.2014
     52  C        -13.7880   12.6050   -6.6710 C.2    63  GLY63       0.2639
     53  O        -12.6540   12.8890   -6.8460 O.2    63  GLY63      -0.2714
     54  N        -14.6580   12.4680   -7.6420 N.am   64  GLY64      -0.1939
     55  CA       -14.3090   12.6760   -9.0200 C.3    64  GLY64       0.2014
     56  C        -15.4810   12.6720   -9.9720 C.2    64  GLY64       0.2639
     57  O        -16.5510   12.3240   -9.6030 O.2    64  GLY64      -0.2714
     58  N        -15.2170   13.0300  -11.2010 N.am   65  TYR65      -0.1959
     59  CA       -16.1660   12.9790  -12.2480 C.3    65  TYR65       0.1771
     60  C        -15.9060   11.8390  -13.2040 C.2    65  TYR65       0.2619
     61  O        -14.8090   11.6260  -13.6170 O.2    65  TYR65      -0.2715
     62  CB       -16.2210   14.2840  -13.0120 C.3    65  TYR65       0.0574
     63  CG       -16.7460   15.4550  -12.2280 C.ar   65  TYR65      -0.0198
     64  CD1      -18.0730   15.5330  -11.8690 C.ar   65  TYR65      -0.0009
     65  CD2      -15.9120   16.4680  -11.8190 C.ar   65  TYR65      -0.0009
     66  CE1      -18.5460   16.5950  -11.1500 C.ar   65  TYR65       0.0417
     67  CE2      -16.3800   17.5390  -11.1040 C.ar   65  TYR65       0.0417
     68  CZ       -17.7020   17.5900  -10.7780 C.ar   65  TYR65       0.1957
     69  OH       -18.1960   18.6070  -10.0880 O.3    65  TYR65      -0.2866
     70  N        -16.9670   11.1580  -13.5820 N.am   66  MET66      -0.1977
     71  CA       -16.8800   10.0650  -14.5160 C.3    66  MET66       0.1605
     72  C        -16.3370   10.5300  -15.9030 C.2    66  MET66       0.2287
     73  O        -15.5620    9.8650  -16.5070 O.2    66  MET66      -0.2864
     74  CB       -18.2040    9.3110  -14.6510 C.3    66  MET66       0.0413
     75  CG       -18.7340    8.7130  -13.3660 C.3    66  MET66       0.0598
     76  SD       -19.5360    9.8790  -12.2860 S.3    66  MET66      -0.1393
     77  CE       -21.1860    9.9000  -12.9290 C.3    66  MET66       0.0692
     78  N        -29.0660   17.4790  -19.4260 N.3   113  GLU113     -0.1245
     79  CA       -29.2780   17.5980  -17.9990 C.3   113  GLU113      0.1567
     80  C        -30.7400   17.5780  -17.6100 C.2   113  GLU113      0.2260
     81  O        -31.5030   18.3340  -18.1030 O.2   113  GLU113     -0.2867
     82  CB       -28.6530   18.8980  -17.5320 C.3   113  GLU113      0.0388
     83  CG       -28.6490   19.1370  -16.0510 C.3   113  GLU113      0.1160
     84  CD       -28.0140   20.4770  -15.7150 C.2   113  GLU113      0.3649
     85  OE1      -28.3810   21.4930  -16.3050 O.co2 113  GLU113     -0.2457
     86  OE2      -27.1470   20.5020  -14.8860 O.co2 113  GLU113     -0.2457
     87  N        -24.9760   10.0920  -11.4560 N.3   132  ALA132     -0.1245
     88  CA       -24.8580   10.5470  -10.1000 C.3   132  ALA132      0.1562
     89  C        -26.1650   10.9490   -9.4010 C.2   132  ALA132      0.2260
     90  O        -27.0390   11.4690   -9.9790 O.2   132  ALA132     -0.2867
     91  CB       -23.7980   11.5750   -9.9300 C.3   132  ALA132      0.0290
     92  N        -30.1850   18.4560   -6.4440 N.3   156  ASP156     -0.1225
     93  CA       -29.0850   19.3530   -6.5650 C.3   156  ASP156      0.1805
     94  C        -27.9040   19.0080   -5.6720 C.2   156  ASP156      0.2598
     95  O        -27.0160   19.7870   -5.5550 O.2   156  ASP156     -0.2718
     96  CB       -29.5410   20.7630   -6.3470 C.3   156  ASP156      0.1424
     97  CG       -30.0690   21.3990   -7.6130 C.2   156  ASP156      0.3668
     98  OD1      -30.6170   20.7010   -8.4600 O.co2 156  ASP156     -0.2456
     99  OD2      -29.9190   22.6130   -7.7530 O.co2 156  ASP156     -0.2456
    100  N        -27.9190   17.8350   -5.0680 N.am  157  ASN157     -0.1960
    101  CA       -26.8850   17.3800   -4.1730 C.3   157  ASN157      0.1819
    102  C        -26.4340   16.0210   -4.6540 C.2   157  ASN157      0.2621
    103  O        -26.7910   15.0350   -4.1130 O.2   157  ASN157     -0.2715
    104  CB       -27.4130   17.2950   -2.7490 C.3   157  ASN157      0.1195
    105  CG       -26.3820   16.7990   -1.7390 C.2   157  ASN157      0.2630
    106  OD1      -25.2250   16.6940   -2.0030 O.2   157  ASN157     -0.2716
    107  ND2      -26.8460   16.5060   -0.5780 N.am  157  ASN157     -0.0877
    108  N        -25.6450   16.0160   -5.7060 N.am  158  LEU158     -0.1963
    109  CA       -25.2020   14.8030   -6.3280 C.3   158  LEU158      0.1728
    110  C        -23.9460   14.2670   -5.6730 C.2   158  LEU158      0.2616
    111  O        -22.8920   14.4990   -6.1450 O.2   158  LEU158     -0.2715
    112  CB       -24.9830   15.0730   -7.8070 C.3   158  LEU158      0.0311
    113  CG       -26.2050   15.5870   -8.5410 C.3   158  LEU158      0.0022
    114  CD1      -25.8870   16.0230   -9.9450 C.3   158  LEU158      0.0001
    115  CD2      -27.4070   14.6760   -8.5130 C.3   158  LEU158      0.0001
    116  N        -24.0680   13.6010   -4.5520 N.am  159  ASN159     -0.1958
    117  CA       -22.9050   13.2010   -3.7700 C.3   159  ASN159      0.1819
    118  C        -22.3710   11.7840   -4.0080 C.2   159  ASN159      0.2621
    119  O        -21.4210   11.3580   -3.4210 O.2   159  ASN159     -0.2715
    120  CB       -23.2420   13.3520   -2.3100 C.3   159  ASN159      0.1195
    121  CG       -24.5760   12.7610   -2.0050 C.2   159  ASN159      0.2630
    122  OD1      -24.8160   11.6370   -2.3030 O.2   159  ASN159     -0.2716
    123  ND2      -25.4590   13.5600   -1.5170 N.am  159  ASN159     -0.0877
    124  N        -23.0980   11.0370   -4.8030 N.am  160  HIS160     -0.1959
    125  CA       -22.7950    9.6490   -5.0010 C.3   160  HIS160      0.1787
    126  C        -22.9890    9.1390   -6.4460 C.2   160  HIS160      0.2620
    127  O        -24.0630    9.1970   -6.9390 O.2   160  HIS160     -0.2715
    128  CB       -23.5800    8.8100   -4.0080 C.3   160  HIS160      0.0785
    129  CG       -23.1200    7.4080   -3.9210 C.ar  160  HIS160      0.0821
    130  ND1      -21.9540    7.0430   -3.3000 N.ar  160  HIS160     -0.2267
    131  CD2      -23.6450    6.2750   -4.4240 C.ar  160  HIS160      0.1154
    132  CE1      -21.8020    5.7430   -3.4000 C.ar  160  HIS160      0.1986
    133  NE2      -22.8130    5.2560   -4.0770 N.ar  160  HIS160     -0.2212
    134  N        -21.9220    8.6330   -7.0560 N.am  161  ALA161     -0.1977
    135  CA       -21.9500    8.0720   -8.3880 C.3   161  ALA161      0.1597
    136  C        -22.2910    6.5680   -8.4200 C.2   161  ALA161      0.2287
    137  O        -21.8000    5.8210   -7.6480 O.2   161  ALA161     -0.2864
    138  CB       -20.6520    8.3030   -9.0870 C.3   161  ALA161      0.0319
    139  N        -29.3130   14.1460  -13.8190 N.3   206  ASN206     -0.1225
    140  CA       -28.5300   15.3500  -13.7560 C.3   206  ASN206      0.1785
    141  C        -27.0840   15.3470  -14.2360 C.2   206  ASN206      0.2597
    142  O        -26.5480   16.3560  -14.5450 O.2   206  ASN206     -0.2718
    143  CB       -28.6940   16.0520  -12.4180 C.3   206  ASN206      0.1169
    144  CG       -29.9850   16.8550  -12.3260 C.2   206  ASN206      0.2627
    145  OD1      -30.7400   16.9290  -13.2460 O.2   206  ASN206     -0.2716
    146  ND2      -30.2010   17.4470  -11.1990 N.am  206  ASN206     -0.0877
    147  N        -26.4540   14.2000  -14.1370 N.am  207  LEU207     -0.1980
    148  CA       -25.0670   14.0520  -14.3940 C.3   207  LEU207      0.1596
    149  C        -24.7770   12.6560  -14.9820 C.2   207  LEU207      0.2287
    150  O        -24.0650   11.8780  -14.4090 O.2   207  LEU207     -0.2864
    151  CB       -24.3000   14.2990  -13.1240 C.3   207  LEU207      0.0297
    152  CG       -22.8090   14.5070  -13.2360 C.3   207  LEU207      0.0022
    153  CD1      -22.4970   15.7180  -14.0820 C.3   207  LEU207      0.0001
    154  CD2      -22.1720   14.5860  -11.8830 C.3   207  LEU207      0.0001
@<TRIPOS>BOND
     1    78    79    1
     2    81    80    2
     3    79    80    1
     4    79    82    1
     5    82    83    1
     6    73    72    2
     7    85    84   ar
     8    83    84    1
     9    72    71    1
    10    84    86   ar
    11   149   150    2
    12   149   148    1
    13    74    71    1
    14    74    75    1
    15   142   141    2
    16    71    70    1
    17   148   147    1
    18   148   151    1
    19   141   147   am
    20   141   140    1
    21   153   152    1
    22   139   140    1
    23   140   143    1
    24    61    60    2
    25    70    60   am
    26    75    76    1
    27   145   144    2
    28   152   151    1
    29   152   154    1
    30    60    59    1
    31    62    59    1
    32    62    63    1
    33    77    76    1
    34   143   144    1
    35   144   146   am
    36    59    58    1
    37    63    64   ar
    38    63    65   ar
    39    64    66   ar
    40    65    67   ar
    41    87    88    1
    42    29    28    2
    43    58    56   am
    44    66    68   ar
    45    38    36   ar
    46    38    39   ar
    47    67    68   ar
    48    36    33   ar
    49    68    69    1
    50    28    27    1
    51    39    37   ar
    52    88    91    1
    53    88    89    1
    54    90    89    2
    55    56    57    2
    56    56    55    1
    57   114   113    1
    58    33    31   ar
    59    33    35   ar
    60    30    27    1
    61    30    31    1
    62    27    26    1
    63   138   135    1
    64    55    54    1
    65    31    32   ar
    66    37    35   ar
    67    35    34   ar
    68    23    22    2
    69   113   115    1
    70   113   112    1
    71    98    97   ar
    72   136   135    1
    73   136   137    2
    74   135   134    1
    75    26    22   am
    76   112   109    1
    77    22    21    1
    78    99    97   ar
    79    54    52   am
    80    32    34   ar
    81    97    96    1
    82   134   126   am
    83   127   126    2
    84    53    52    2
    85    52    51    1
    86    93    92    1
    87    93    96    1
    88    93    94    1
    89   126   125    1
    90   109   108    1
    91   109   110    1
    92    21    24    1
    93    21    20    1
    94   111   110    2
    95   108   102   am
    96   110   116   am
    97    94    95    2
    98    94   100   am
    99    25    24    1
   100    51    50    1
   101   100   101    1
   102   125   124    1
   103   125   128    1
   104   124   118   am
   105   102   101    1
   106   102   103    2
   107   116   117    1
   108   131   133   ar
   109   131   129   ar
   110    50    48   am
   111   101   104    1
   112   133   132   ar
   113   128   129    1
   114   118   117    1
   115   118   119    2
   116    19    18    2
   117   129   130   ar
   118   117   120    1
   119    40    41    1
   120     8     7    2
   121   132   130   ar
   122    18    17    1
   123    48    49    2
   124    48    47    1
   125     5     2    1
   126     5     6    1
   127   104   105    1
   128     7     9   am
   129     7     6    1
   130    46    47    1
   131    46    42   am
   132    41    42    1
   133    41    44    1
   134     1     2    1
   135    15    45    1
   136    15    14    1
   137     2     3    1
   138   120   121    1
   139   122   121    2
   140    42    43    2
   141   121   123   am
   142   106   105    2
   143    45    44    1
   144    17    16    1
   145   105   107   am
   146    13    12    2
   147    16    12   am
   148     3     4    2
   149    14    11    1
   150    12    11    1
   151    11    10    1
