@<TRIPOS>MOLECULE
tmp/4yv9B01.pdb
 244 229 0 0 0
SMALL
GASTEIGER

@<TRIPOS>ATOM
      1  N          5.8950  -22.5120   57.0090 N.3    70  PHE70      -0.1241
      2  CA         5.0850  -21.3360   56.7260 C.3    70  PHE70       0.1605
      3  C          5.3810  -20.8170   55.3130 C.2    70  PHE70       0.2264
      4  O          4.5040  -20.2570   54.6470 O.2    70  PHE70      -0.2867
      5  CB         5.3360  -20.2390   57.7690 C.3    70  PHE70       0.0534
      6  CG         4.2560  -19.1960   57.8180 C.ar   70  PHE70      -0.0203
      7  CD1        3.0730  -19.4330   58.5060 C.ar   70  PHE70      -0.0042
      8  CD2        4.4110  -17.9910   57.1550 C.ar   70  PHE70      -0.0042
      9  CE1        2.0720  -18.4760   58.5460 C.ar   70  PHE70      -0.0003
     10  CE2        3.4190  -17.0280   57.1920 C.ar   70  PHE70      -0.0003
     11  CZ         2.2460  -17.2710   57.8870 C.ar   70  PHE70      -0.0000
     12  N          3.4030  -23.0970   53.0660 N.3    73  LEU73      -0.1245
     13  CA         2.0010  -22.6960   53.1100 C.3    73  LEU73       0.1561
     14  C          1.7160  -21.4310   52.3090 C.2    73  LEU73       0.2260
     15  O          0.6780  -21.3310   51.6610 O.2    73  LEU73      -0.2867
     16  CB         1.5540  -22.4830   54.5470 C.3    73  LEU73       0.0270
     17  CG         1.5320  -23.7580   55.3770 C.3    73  LEU73       0.0019
     18  CD1        1.0400  -23.4880   56.7920 C.3    73  LEU73       0.0001
     19  CD2        0.6480  -24.7350   54.6900 C.3    73  LEU73       0.0001
     20  N          1.7990  -22.2960   48.4590 N.3    76  VAL76      -0.1231
     21  CA         0.5910  -23.0720   48.1670 C.3    76  VAL76       0.1692
     22  C         -0.6480  -22.1810   48.1660 C.2    76  VAL76       0.2591
     23  O         -1.5470  -22.3290   47.3330 O.2    76  VAL76      -0.2718
     24  CB         0.3950  -24.2180   49.2010 C.3    76  VAL76       0.0266
     25  CG1       -0.8820  -24.9900   48.9150 C.3    76  VAL76       0.0020
     26  CG2        1.5900  -25.1540   49.2000 C.3    76  VAL76       0.0020
     27  N         -0.6540  -21.2390   49.1030 N.am   77  ARG77      -0.1980
     28  CA        -1.7530  -20.3070   49.3230 C.3    77  ARG77       0.1597
     29  C         -2.1490  -19.5120   48.0940 C.2    77  ARG77       0.2287
     30  O         -3.3150  -19.4840   47.6950 O.2    77  ARG77      -0.2864
     31  CB        -1.3740  -19.3260   50.4320 C.3    77  ARG77       0.0334
     32  CG        -2.1420  -19.5330   51.7010 C.3    77  ARG77       0.0492
     33  CD        -3.4990  -18.8780   51.5900 C.3    77  ARG77       0.2205
     34  NE        -3.4460  -17.4180   51.6240 N.pl3  77  ARG77      -0.0865
     35  CZ        -4.5020  -16.6340   51.4260 C.cat  77  ARG77       0.5346
     36  NH1       -5.6890  -17.1670   51.1690 N.pl3  77  ARG77       0.1354
     37  NH2       -4.3720  -15.3170   51.4820 N.pl3  77  ARG77       0.1354
     38  N         -3.4000  -21.5540   45.0690 N.3    80  TYR80      -0.1241
     39  CA        -4.7490  -22.0800   45.2310 C.3    80  TYR80       0.1605
     40  C         -5.7840  -21.0050   44.9230 C.2    80  TYR80       0.2264
     41  O         -6.8620  -21.2900   44.3940 O.2    80  TYR80      -0.2867
     42  CB        -4.9440  -22.6140   46.6490 C.3    80  TYR80       0.0534
     43  CG        -6.3430  -23.1000   46.9380 C.ar   80  TYR80      -0.0201
     44  CD1       -6.7810  -24.3290   46.4650 C.ar   80  TYR80      -0.0009
     45  CD2       -7.2200  -22.3360   47.6970 C.ar   80  TYR80      -0.0009
     46  CE1       -8.0600  -24.7810   46.7290 C.ar   80  TYR80       0.0417
     47  CE2       -8.5000  -22.7800   47.9700 C.ar   80  TYR80       0.0417
     48  CZ        -8.9160  -24.0040   47.4830 C.ar   80  TYR80       0.1957
     49  OH       -10.1910  -24.4550   47.7460 O.3    80  TYR80      -0.2866
     50  N         -4.0010  -30.8810   48.5710 N.3   107  ILE107     -0.1245
     51  CA        -4.4730  -29.5470   48.2150 C.3   107  ILE107      0.1561
     52  C         -4.6650  -29.4440   46.7200 C.2   107  ILE107      0.2260
     53  O         -5.6850  -28.9430   46.2420 O.2   107  ILE107     -0.2867
     54  CB        -3.4900  -28.4500   48.6770 C.3   107  ILE107      0.0252
     55  CG1       -3.5090  -28.3370   50.1920 C.3   107  ILE107      0.0019
     56  CG2       -3.8380  -27.1070   48.0390 C.3   107  ILE107      0.0019
     57  CD1       -2.2430  -27.7350   50.7590 C.3   107  ILE107      0.0001
     58  N         -7.7990  -30.6000   44.9010 N.3   110  SER110     -0.1217
     59  CA        -8.9890  -29.7500   44.9510 C.3   110  SER110      0.1889
     60  C         -9.1270  -28.8380   43.7410 C.2   110  SER110      0.2288
     61  O        -10.1380  -28.1590   43.5960 O.2   110  SER110     -0.2866
     62  CB        -8.9990  -28.9000   46.2260 C.3   110  SER110      0.2089
     63  OG        -9.7200  -29.5410   47.2670 O.3   110  SER110     -0.2183
     64  N          1.0460  -26.4690   65.4240 N.3   137  TYR137     -0.1241
     65  CA         0.5740  -25.9160   64.1540 C.3   137  TYR137      0.1605
     66  C          0.7740  -26.8890   62.9780 C.2   137  TYR137      0.2264
     67  O         -0.1330  -27.0950   62.1640 O.2   137  TYR137     -0.2867
     68  CB         1.3080  -24.6000   63.8940 C.3   137  TYR137      0.0534
     69  CG         0.8310  -23.8140   62.7070 C.ar  137  TYR137     -0.0201
     70  CD1       -0.3500  -23.0920   62.7630 C.ar  137  TYR137     -0.0009
     71  CD2        1.5890  -23.7550   61.5370 C.ar  137  TYR137     -0.0009
     72  CE1       -0.7950  -22.3480   61.6570 C.ar  137  TYR137      0.0417
     73  CE2        1.1660  -23.0150   60.4450 C.ar  137  TYR137      0.0417
     74  CZ        -0.0260  -22.3130   60.5090 C.ar  137  TYR137      0.1957
     75  OH        -0.4470  -21.5730   59.4240 O.3   137  TYR137     -0.2866
     76  N         -1.6710  -29.8970   63.0610 N.3   140  ILE140     -0.1231
     77  CA        -3.0230  -29.3900   62.8650 C.3   140  ILE140      0.1692
     78  C         -3.2520  -29.0200   61.3950 C.2   140  ILE140      0.2591
     79  O         -4.2840  -29.3550   60.8130 O.2   140  ILE140     -0.2718
     80  CB        -3.2990  -28.1470   63.7730 C.3   140  ILE140      0.0266
     81  CG1       -3.2210  -28.5230   65.2560 C.3   140  ILE140      0.0019
     82  CG2       -4.6680  -27.5390   63.4640 C.3   140  ILE140      0.0020
     83  CD1       -3.0970  -27.2870   66.1650 C.3   140  ILE140      0.0001
     84  N         -2.2880  -28.3370   60.7910 N.am  141  ILE141     -0.1980
     85  CA        -2.4240  -27.9330   59.3860 C.3   141  ILE141      0.1595
     86  C         -2.3640  -29.1500   58.4460 C.2   141  ILE141      0.2287
     87  O         -3.0970  -29.2330   57.4490 O.2   141  ILE141     -0.2864
     88  CB        -1.3400  -26.9130   59.0090 C.3   141  ILE141      0.0276
     89  CG1       -1.5460  -25.6080   59.7910 C.3   141  ILE141      0.0022
     90  CG2       -1.3300  -26.6430   57.4860 C.3   141  ILE141      0.0022
     91  CD1       -2.8290  -24.9020   59.4750 C.3   141  ILE141      0.0001
     92  N         -5.7860  -30.8420   58.8020 N.3   144  GLY144     -0.1210
     93  CA        -6.8090  -30.0150   58.1950 C.3   144  GLY144      0.1956
     94  C         -6.7970  -30.1460   56.6840 C.2   144  GLY144      0.2611
     95  O         -7.8400  -30.3060   56.0650 O.2   144  GLY144     -0.2717
     96  N         -5.6140  -30.1230   56.0850 N.am  145  ASN145     -0.1974
     97  CA        -5.5430  -30.1070   54.6320 C.3   145  ASN145      0.1688
     98  C         -5.5840  -31.4960   53.9830 C.2   145  ASN145      0.2292
     99  O         -5.7990  -31.6050   52.7850 O.2   145  ASN145     -0.2864
    100  CB        -4.2990  -29.3370   54.1920 C.3   145  ASN145      0.1181
    101  CG        -4.4780  -27.8340   54.3410 C.2   145  ASN145      0.2629
    102  OD1       -5.4840  -27.2760   53.9140 O.2   145  ASN145     -0.2716
    103  ND2       -3.5150  -27.1820   54.9470 N.am  145  ASN145     -0.0877
    104  N         -7.6580  -33.9820   55.2950 N.3   147  SER147     -0.1202
    105  CA        -8.8490  -34.6280   55.8620 C.3   147  SER147      0.2020
    106  C         -9.7290  -35.3170   54.8250 C.2   147  SER147      0.2618
    107  O        -10.3810  -36.3250   55.1130 O.2   147  SER147     -0.2717
    108  CB        -9.6870  -33.6050   56.6380 C.3   147  SER147      0.2103
    109  OG        -9.0390  -33.2570   57.8620 O.3   147  SER147     -0.2182
    110  N         -9.7610  -34.7810   53.6140 N.am  148  ARG148     -0.1979
    111  CA       -10.6220  -35.3760   52.5900 C.3   148  ARG148      0.1597
    112  C        -10.1640  -36.7700   52.1740 C.2   148  ARG148      0.2287
    113  O        -10.9010  -37.4980   51.5090 O.2   148  ARG148     -0.2864
    114  CB       -10.6980  -34.4720   51.3650 C.3   148  ARG148      0.0334
    115  CG       -11.9020  -33.5390   51.3600 C.3   148  ARG148      0.0492
    116  CD       -11.8210  -32.6550   50.1470 C.3   148  ARG148      0.2205
    117  NE       -10.4530  -32.1650   50.0430 N.pl3 148  ARG148     -0.0865
    118  CZ        -9.7450  -32.1260   48.9210 C.cat 148  ARG148      0.5346
    119  NH1      -10.2770  -32.5480   47.7680 N.pl3 148  ARG148      0.1354
    120  NH2       -8.4950  -31.6670   48.9660 N.pl3 148  ARG148      0.1354
    121  N         -3.8530  -19.0600   68.6750 N.3   173  THR173     -0.1218
    122  CA        -3.8280  -19.4260   67.2720 C.3   173  THR173      0.1862
    123  C         -4.1550  -20.9000   67.1080 C.2   173  THR173      0.2287
    124  O         -5.0580  -21.2420   66.3530 O.2   173  THR173     -0.2866
    125  CB        -2.4680  -19.1100   66.6380 C.3   173  THR173      0.1770
    126  OG1       -2.2250  -17.7040   66.7540 O.3   173  THR173     -0.2211
    127  CG2       -2.4700  -19.4850   65.1730 C.3   173  THR173      0.0375
    128  N         -7.6980  -22.7780   65.5160 N.3   177  LEU177     -0.1245
    129  CA        -7.6130  -23.7920   64.4640 C.3   177  LEU177      0.1561
    130  C         -8.2420  -25.1130   64.9100 C.2   177  LEU177      0.2260
    131  O         -9.0390  -25.6980   64.1730 O.2   177  LEU177     -0.2867
    132  CB        -6.1590  -24.0250   64.0260 C.3   177  LEU177      0.0270
    133  CG        -5.5310  -22.9240   63.1650 C.3   177  LEU177      0.0019
    134  CD1       -4.0250  -23.0650   63.0770 C.3   177  LEU177      0.0001
    135  CD2       -6.1330  -22.9540   61.7780 C.3   177  LEU177      0.0001
    136  N        -11.9360  -24.8610   64.7300 N.3   180  GLN180     -0.1231
    137  CA       -12.4140  -24.9360   63.3570 C.3   180  GLN180      0.1698
    138  C        -12.4200  -26.3690   62.8250 C.2   180  GLN180      0.2592
    139  O        -13.3970  -26.7960   62.2100 O.2   180  GLN180     -0.2718
    140  CB       -11.5710  -24.0240   62.4640 C.3   180  GLN180      0.0381
    141  CG       -11.8460  -22.5420   62.7300 C.3   180  GLN180      0.0905
    142  CD       -10.7770  -21.5980   62.1630 C.2   180  GLN180      0.2608
    143  OE1       -9.6890  -22.0250   61.7610 O.2   180  GLN180     -0.2717
    144  NE2      -11.0810  -20.3030   62.1600 N.am  180  GLN180     -0.0878
    145  N        -11.3520  -27.1230   63.0750 N.am  181  LEU181     -0.1980
    146  CA       -11.2910  -28.5010   62.5840 C.3   181  LEU181      0.1596
    147  C        -12.2560  -29.4320   63.3240 C.2   181  LEU181      0.2287
    148  O        -12.7100  -30.4310   62.7630 O.2   181  LEU181     -0.2864
    149  CB        -9.8660  -29.0470   62.6910 C.3   181  LEU181      0.0297
    150  CG        -8.8230  -28.4550   61.7350 C.3   181  LEU181      0.0022
    151  CD1       -7.6140  -29.3690   61.7040 C.3   181  LEU181      0.0001
    152  CD2       -9.3820  -28.2550   60.3200 C.3   181  LEU181      0.0001
    153  N        -15.2410  -28.4620   64.4270 N.3   183  ILE183     -0.1231
    154  CA       -16.5000  -28.1580   63.7550 C.3   183  ILE183      0.1692
    155  C        -16.5830  -28.8660   62.3930 C.2   183  ILE183      0.2592
    156  O        -17.6290  -29.4140   62.0390 O.2   183  ILE183     -0.2718
    157  CB       -16.6840  -26.6340   63.5860 C.3   183  ILE183      0.0266
    158  CG1      -16.8540  -25.9790   64.9670 C.3   183  ILE183      0.0019
    159  CG2      -17.8910  -26.3280   62.6830 C.3   183  ILE183      0.0020
    160  CD1      -16.8520  -24.4710   64.9510 C.3   183  ILE183      0.0001
    161  N        -15.4760  -28.8710   61.6520 N.am  184  ASN184     -0.1974
    162  CA       -15.3850  -29.5810   60.3710 C.3   184  ASN184      0.1688
    163  C        -15.7090  -31.0660   60.5430 C.2   184  ASN184      0.2292
    164  O        -16.4250  -31.6540   59.7410 O.2   184  ASN184     -0.2864
    165  CB       -13.9860  -29.4040   59.7550 C.3   184  ASN184      0.1181
    166  CG       -13.8810  -29.9810   58.3380 C.2   184  ASN184      0.2629
    167  OD1      -14.5290  -29.4990   57.4120 O.2   184  ASN184     -0.2716
    168  ND2      -13.0420  -30.9990   58.1670 N.am  184  ASN184     -0.0877
    169  N        -19.4600  -31.5350   61.2470 N.3   187  ILE187     -0.1245
    170  CA       -20.2330  -31.4720   60.0000 C.3   187  ILE187      0.1561
    171  C        -20.3280  -32.8440   59.3150 C.2   187  ILE187      0.2260
    172  O        -21.4140  -33.2720   58.9040 O.2   187  ILE187     -0.2867
    173  CB       -19.6200  -30.4260   59.0340 C.3   187  ILE187      0.0252
    174  CG1      -20.0410  -29.0250   59.4680 C.3   187  ILE187      0.0019
    175  CG2      -20.0490  -30.6770   57.5940 C.3   187  ILE187      0.0019
    176  CD1      -19.1740  -27.9120   58.8930 C.3   187  ILE187      0.0001
    177  N        -16.6280  -16.0100   64.6720 N.3   216  TYR216     -0.1227
    178  CA       -16.7860  -16.7510   63.4210 C.3   216  TYR216      0.1736
    179  C        -17.1230  -18.2070   63.7130 C.2   216  TYR216      0.2595
    180  O        -18.0430  -18.7850   63.1350 O.2   216  TYR216     -0.2718
    181  CB       -15.5320  -16.6720   62.5560 C.3   216  TYR216      0.0548
    182  CG       -15.5690  -17.6650   61.4260 C.ar  216  TYR216     -0.0200
    183  CD1      -16.4990  -17.5310   60.3940 C.ar  216  TYR216     -0.0009
    184  CD2      -14.7050  -18.7480   61.3960 C.ar  216  TYR216     -0.0009
    185  CE1      -16.5480  -18.4300   59.3550 C.ar  216  TYR216      0.0417
    186  CE2      -14.7510  -19.6630   60.3500 C.ar  216  TYR216      0.0417
    187  CZ       -15.6750  -19.4980   59.3390 C.ar  216  TYR216      0.1957
    188  OH       -15.7390  -20.3940   58.2930 O.3   216  TYR216     -0.2866
    189  N        -16.3840  -18.8040   64.6320 N.am  217  GLU217     -0.1979
    190  CA       -16.6330  -20.1940   64.9640 C.3   217  GLU217      0.1602
    191  C        -17.9630  -20.3520   65.6780 C.2   217  GLU217      0.2287
    192  O        -18.6350  -21.3390   65.4860 O.2   217  GLU217     -0.2864
    193  CB       -15.4920  -20.7540   65.8250 C.3   217  GLU217      0.0415
    194  CG       -14.1630  -20.8340   65.0780 C.3   217  GLU217      0.1163
    195  CD       -13.4610  -19.4820   64.9630 C.2   217  GLU217      0.3649
    196  OE1      -13.7600  -18.5760   65.7850 O.co2 217  GLU217     -0.2457
    197  OE2      -12.5990  -19.3400   64.0680 O.co2 217  GLU217     -0.2457
    198  N        -20.6870  -20.2730   62.8880 N.3   220  VAL220     -0.1245
    199  CA       -20.7240  -21.5310   62.1460 C.3   220  VAL220      0.1561
    200  C        -21.2960  -22.6360   63.0320 C.2   220  VAL220      0.2260
    201  O        -22.1310  -23.4260   62.5940 O.2   220  VAL220     -0.2867
    202  CB       -19.3150  -21.9140   61.6260 C.3   220  VAL220      0.0252
    203  CG1      -19.2840  -23.3400   61.1080 C.3   220  VAL220      0.0019
    204  CG2      -18.8710  -20.9320   60.5260 C.3   220  VAL220      0.0019
    205  N        -20.8160  -10.4710   55.0890 N.3   252  GLU252     -0.1245
    206  CA       -20.0600  -11.6430   54.6550 C.3   252  GLU252      0.1567
    207  C        -20.8160  -12.3970   53.5490 C.2   252  GLU252      0.2260
    208  O        -21.3760  -13.4690   53.7820 O.2   252  GLU252     -0.2867
    209  CB       -19.7780  -12.5630   55.8430 C.3   252  GLU252      0.0388
    210  CG       -18.8460  -11.9340   56.9090 C.3   252  GLU252      0.1160
    211  CD       -17.3880  -11.8210   56.4400 C.2   252  GLU252      0.3649
    212  OE1      -16.9140  -12.7160   55.7110 O.co2 252  GLU252     -0.2457
    213  OE2      -16.7170  -10.8250   56.8030 O.co2 252  GLU252     -0.2457
    214  N        -20.0940  -14.1010   50.7240 N.3   254  ALA254     -0.1231
    215  CA       -19.7190  -15.4310   50.2480 C.3   254  ALA254      0.1694
    216  C        -20.1700  -16.5050   51.2330 C.2   254  ALA254      0.2591
    217  O        -20.6970  -17.5490   50.8410 O.2   254  ALA254     -0.2718
    218  CB       -18.2080  -15.5140   50.0150 C.3   254  ALA254      0.0304
    219  N        -19.9620  -16.2430   52.5160 N.am  255  LEU255     -0.1980
    220  CA       -20.4110  -17.1580   53.5530 C.3   255  LEU255      0.1596
    221  C        -21.9280  -17.2350   53.5700 C.2   255  LEU255      0.2287
    222  O        -22.4980  -18.3190   53.6780 O.2   255  LEU255     -0.2864
    223  CB       -19.8790  -16.7190   54.9260 C.3   255  LEU255      0.0297
    224  CG       -18.4260  -17.1310   55.1600 C.3   255  LEU255      0.0022
    225  CD1      -17.8070  -16.4130   56.3640 C.3   255  LEU255      0.0001
    226  CD2      -18.3690  -18.6380   55.3560 C.3   255  LEU255      0.0001
    227  N        -23.0560  -19.2840   50.6480 N.3   258  SER258     -0.1202
    228  CA       -22.6470  -20.6730   50.7390 C.3   258  SER258      0.2020
    229  C        -23.4960  -21.4370   51.7600 C.2   258  SER258      0.2618
    230  O        -23.9320  -22.5590   51.4970 O.2   258  SER258     -0.2717
    231  CB       -21.1620  -20.7550   51.0900 C.3   258  SER258      0.2103
    232  OG       -20.6870  -22.0800   50.9610 O.3   258  SER258     -0.2182
    233  N        -23.7500  -20.8320   52.9180 N.am  259  TYR259     -0.1975
    234  CA       -24.5900  -21.4970   53.9090 C.3   259  TYR259      0.1639
    235  C        -26.0750  -21.4810   53.5240 C.2   259  TYR259      0.2290
    236  O        -26.8110  -22.4180   53.8380 O.2   259  TYR259     -0.2864
    237  CB       -24.3720  -20.8740   55.2910 C.3   259  TYR259      0.0560
    238  CG       -23.1450  -21.4460   55.9560 C.ar  259  TYR259     -0.0198
    239  CD1      -21.8910  -20.9110   55.7160 C.ar  259  TYR259     -0.0009
    240  CD2      -23.2380  -22.5600   56.7810 C.ar  259  TYR259     -0.0009
    241  CE1      -20.7650  -21.4460   56.2970 C.ar  259  TYR259      0.0417
    242  CE2      -22.1240  -23.1020   57.3630 C.ar  259  TYR259      0.0417
    243  CZ       -20.8880  -22.5420   57.1210 C.ar  259  TYR259      0.1957
    244  OH       -19.7720  -23.0900   57.7060 O.3   259  TYR259     -0.2866
@<TRIPOS>BOND
     1    61    60    2
     2    60    59    1
     3    41    40    2
     4    58    59    1
     5    40    39    1
     6    59    62    1
     7    38    39    1
     8    39    42    1
     9    62    63    1
    10    53    52    2
    11    44    46   ar
    12    44    43   ar
    13    42    43    1
    14    52    51    1
    15    46    48   ar
    16    43    45   ar
    17    23    22    2
    18    48    49    1
    19    48    47   ar
    20    30    29    2
    21    45    47   ar
    22   119   118    1
    23    56    54    1
    24    29    28    1
    25    22    21    1
    26    22    27   am
    27    21    20    1
    28    21    24    1
    29    51    50    1
    30    51    54    1
    31    54    55    1
    32    25    24    1
    33   118   120    1
    34   118   117    2
    35    27    28    1
    36    26    24    1
    37    28    31    1
    38   218   215    1
    39   117   116    1
    40   116   115    1
    41    55    57    1
    42   215   214    1
    43   215   216    1
    44    31    32    1
    45   227   228    1
    46   228   231    1
    47   228   229    1
    48   217   216    2
    49   232   231    1
    50    36    35    1
    51   216   219   am
    52   115   114    1
    53   114   111    1
    54    35    37    1
    55    35    34    2
    56   230   229    2
    57   113   112    2
    58    33    34    1
    59    33    32    1
    60    15    14    2
    61   229   233   am
    62   112   111    1
    63    14    13    1
    64   219   220    1
    65   111   110    1
    66    99    98    2
    67   233   234    1
    68    12    13    1
    69    13    16    1
    70   235   236    2
    71   235   234    1
    72   207   208    2
    73   207   206    1
    74   220   221    1
    75   220   223    1
    76   221   222    2
    77   110   106   am
    78   234   237    1
    79   102   101    2
    80    98    97    1
    81   100   101    1
    82   100    97    1
    83   101   103   am
    84    16    17    1
    85    97    96    1
    86     4     3    2
    87   206   205    1
    88   206   209    1
    89    19    17    1
    90   106   107    2
    91   106   105    1
    92   223   224    1
    93   224   226    1
    94   224   225    1
    95   237   238    1
    96   104   105    1
    97     3     2    1
    98    17    18    1
    99   212   211   ar
   100   239   238   ar
   101   239   241   ar
   102   209   210    1
   103   105   108    1
   104   238   240   ar
   105    95    94    2
   106    96    94   am
   107   241   243   ar
   108   211   213   ar
   109   211   210    1
   110   108   109    1
   111    94    93    1
   112     2     1    1
   113     2     5    1
   114   240   242   ar
   115   243   242   ar
   116   243   244    1
   117     8    10   ar
   118     8     6   ar
   119    10    11   ar
   120   167   166    2
   121    87    86    2
   122    90    88    1
   123   175   173    1
   124     5     6    1
   125     6     7   ar
   126    11     9   ar
   127   168   166   am
   128    93    92    1
   129   188   187    1
   130   166   165    1
   131    86    85    1
   132     7     9   ar
   133   176   174    1
   134   172   171    2
   135    88    85    1
   136    88    89    1
   137   173   174    1
   138   173   170    1
   139   171   170    1
   140   187   185   ar
   141   187   186   ar
   142   185   183   ar
   143    85    84    1
   144    75    74    1
   145    91    89    1
   146   164   163    2
   147   165   162    1
   148   170   169    1
   149   152   150    1
   150   186   184   ar
   151   162   163    1
   152   162   161    1
   153   183   182   ar
   154    73    74   ar
   155    73    71   ar
   156    74    72   ar
   157   204   202    1
   158    84    78   am
   159    79    78    2
   160   203   202    1
   161    78    77    1
   162   184   182   ar
   163   182   181    1
   164    71    69   ar
   165   202   199    1
   166   161   155   am
   167    72    70   ar
   168   151   150    1
   169   150   149    1
   170   143   142    2
   171   135   133    1
   172   156   155    2
   173   199   198    1
   174   199   200    1
   175   144   142   am
   176   142   141    1
   177    67    66    2
   178   139   138    2
   179   155   154    1
   180   140   141    1
   181   140   137    1
   182   181   178    1
   183   146   149    1
   184   146   145    1
   185   146   147    1
   186   201   200    2
   187   159   157    1
   188    69    70   ar
   189    69    68    1
   190   148   147    2
   191   138   145   am
   192   138   137    1
   193    77    76    1
   194    77    80    1
   195    66    65    1
   196   134   133    1
   197   180   179    2
   198   133   132    1
   199   137   136    1
   200   178   179    1
   201   178   177    1
   202    82    80    1
   203   157   154    1
   204   157   158    1
   205   179   189   am
   206   154   153    1
   207    80    81    1
   208    68    65    1
   209   132   129    1
   210   197   195   ar
   211    65    64    1
   212   131   130    2
   213   129   130    1
   214   129   128    1
   215   189   190    1
   216   160   158    1
   217   195   194    1
   218   195   196   ar
   219   190   191    1
   220   190   193    1
   221   194   193    1
   222   127   125    1
   223    81    83    1
   224   192   191    2
   225   124   123    2
   226   125   126    1
   227   125   122    1
   228   123   122    1
   229   122   121    1
