@<TRIPOS>MOLECULE
tmp/4yvcB00.pdb
 161 151 0 0 0
SMALL
GASTEIGER

@<TRIPOS>ATOM
      1  N          2.0380  143.7560   20.6570 N.3    78  ILE78      -0.1231
      2  CA         0.6660  143.4020   20.2570 C.3    78  ILE78       0.1692
      3  C         -0.1370  142.6970   21.3750 C.2    78  ILE78       0.2593
      4  O         -1.3540  142.8230   21.4130 O.2    78  ILE78      -0.2718
      5  CB         0.6010  142.6290   18.9080 C.3    78  ILE78       0.0266
      6  CG1        1.5750  141.4410   18.8900 C.3    78  ILE78       0.0019
      7  CG2        0.8430  143.6010   17.7250 C.3    78  ILE78       0.0020
      8  CD1        1.4410  140.5380   17.7210 C.3    78  ILE78       0.0001
      9  N          0.5370  142.0380   22.2920 N.am   79  GLY79      -0.1942
     10  CA        -0.1290  141.3530   23.3870 C.3    79  GLY79       0.2014
     11  C          0.6790  141.4270   24.6560 C.2    79  GLY79       0.2639
     12  O          1.8910  141.6700   24.6080 O.2    79  GLY79      -0.2714
     13  N          0.0040  141.2510   25.8030 N.am   80  ARG80      -0.1963
     14  CA         0.6640  141.2890   27.1050 C.3    80  ARG80       0.1729
     15  C         -0.0650  140.3920   28.0940 C.2    80  ARG80       0.2616
     16  O         -1.2910  140.4010   28.1610 O.2    80  ARG80      -0.2715
     17  CB         0.7920  142.7380   27.6210 C.3    80  ARG80       0.0348
     18  CG         1.8130  142.9410   28.7440 C.3    80  ARG80       0.0492
     19  CD         2.8440  144.0400   28.4540 C.3    80  ARG80       0.2205
     20  NE         2.2270  145.3260   28.1080 N.pl3  80  ARG80      -0.0865
     21  CZ         2.8530  146.3360   27.5050 C.cat  80  ARG80       0.5346
     22  NH1        4.1390  146.2340   27.1820 N.pl3  80  ARG80       0.1354
     23  NH2        2.2000  147.4570   27.2270 N.pl3  80  ARG80       0.1354
     24  N          0.7060  139.5850   28.8020 N.am   81  GLY81      -0.1955
     25  CA         0.2250  138.6540   29.8140 C.3    81  GLY81       0.1869
     26  C          1.0910  138.6430   31.0610 C.2    81  GLY81       0.2309
     27  O          2.0150  139.4640   31.1810 O.2    81  GLY81      -0.2863
     28  N          3.0010  136.1330   32.1500 N.3    83  PHE83      -0.1241
     29  CA         4.1820  135.4720   31.6310 C.3    83  PHE83       0.1605
     30  C          5.1450  136.4570   30.9570 C.2    83  PHE83       0.2264
     31  O          6.3340  136.2230   30.9620 O.2    83  PHE83      -0.2867
     32  CB         3.7180  134.4380   30.5660 C.3    83  PHE83       0.0534
     33  CG         2.9290  135.0150   29.3820 C.ar   83  PHE83      -0.0203
     34  CD1        1.5520  135.2200   29.4710 C.ar   83  PHE83      -0.0042
     35  CD2        3.5780  135.3930   28.1980 C.ar   83  PHE83      -0.0042
     36  CE1        0.8400  135.7630   28.3940 C.ar   83  PHE83      -0.0003
     37  CE2        2.8650  135.9580   27.1280 C.ar   83  PHE83      -0.0003
     38  CZ         1.5030  136.1420   27.2340 C.ar   83  PHE83      -0.0000
     39  N          3.7710  139.7140   23.9110 N.3    86  VAL86      -0.1245
     40  CA         3.7750  139.2590   22.5130 C.3    86  VAL86       0.1561
     41  C          4.0970  140.4950   21.6590 C.2    86  VAL86       0.2260
     42  O          3.4820  141.5470   21.8660 O.2    86  VAL86      -0.2867
     43  CB         2.4130  138.6020   22.1250 C.3    86  VAL86       0.0252
     44  CG1        2.3740  138.2180   20.6490 C.3    86  VAL86       0.0019
     45  CG2        2.1130  137.3910   23.0000 C.3    86  VAL86       0.0019
     46  N          6.0770  137.5160   14.7630 N.3    99  ALA99      -0.1245
     47  CA         5.4910  137.8220   16.0540 C.3    99  ALA99       0.1562
     48  C          6.3420  136.9900   17.0730 C.2    99  ALA99       0.2260
     49  O          6.6160  135.8090   16.8350 O.2    99  ALA99      -0.2867
     50  CB         4.0290  137.4140   16.0780 C.3    99  ALA99       0.0290
     51  N          6.7770  135.8150   21.1490 N.3   101  LYS101     -0.1245
     52  CA         6.2130  135.6390   22.4930 C.3   101  LYS101      0.1561
     53  C          7.3530  135.4230   23.5120 C.2   101  LYS101      0.2260
     54  O          8.1000  134.4540   23.3870 O.2   101  LYS101     -0.2867
     55  CB         5.2220  134.4690   22.5200 C.3   101  LYS101      0.0271
     56  CG         4.4370  134.3420   23.8290 C.3   101  LYS101      0.0035
     57  CD         3.4040  133.2250   23.7600 C.3   101  LYS101      0.0206
     58  CE         2.7690  132.9490   25.0880 C.3   101  LYS101      0.1093
     59  NZ         1.5280  132.1400   24.9580 N.3   101  LYS101     -0.1314
     60  N          3.2750  124.2730   24.1010 N.3   120  GLU120     -0.1245
     61  CA         3.2050  125.3910   23.1470 C.3   120  GLU120      0.1567
     62  C          4.3460  125.3040   22.1190 C.2   120  GLU120      0.2260
     63  O          4.0900  125.4360   20.9240 O.2   120  GLU120     -0.2867
     64  CB         3.2250  126.7580   23.8560 C.3   120  GLU120      0.0388
     65  CG         2.8830  127.9060   22.9140 C.3   120  GLU120      0.1160
     66  CD         2.4380  129.2500   23.4700 C.2   120  GLU120      0.3649
     67  OE1        2.0290  130.1140   22.6540 O.co2 120  GLU120     -0.2457
     68  OE2        2.4960  129.4430   24.7090 O.co2 120  GLU120     -0.2457
     69  N         -0.4890  128.1210   14.2660 N.3   133  VAL133     -0.1245
     70  CA         0.5200  129.1660   14.0560 C.3   133  VAL133      0.1561
     71  C          1.9250  128.5090   14.0990 C.2   133  VAL133      0.2260
     72  O          2.2090  127.7450   15.0270 O.2   133  VAL133     -0.2867
     73  CB         0.3750  130.3410   15.0490 C.3   133  VAL133      0.0252
     74  CG1        1.4950  131.3670   14.8600 C.3   133  VAL133      0.0019
     75  CG2       -0.9830  131.0070   14.8890 C.3   133  VAL133      0.0019
     76  N          7.2860  133.2720   15.9150 N.3   149  MET149     -0.1230
     77  CA         6.1870  132.6870   15.1410 C.3   149  MET149      0.1702
     78  C          5.8360  133.4900   13.8990 C.2   149  MET149      0.2592
     79  O          6.3560  134.5970   13.7430 O.2   149  MET149     -0.2718
     80  CB         4.9390  132.6270   16.0200 C.3   149  MET149      0.0401
     81  CG         5.1890  132.0540   17.3780 C.3   149  MET149      0.0596
     82  SD         3.8530  132.5420   18.4520 S.3   149  MET149     -0.1393
     83  CE         4.3110  134.2110   18.8060 C.3   149  MET149      0.0692
     84  N          4.9170  132.9780   13.0380 N.am  150  GLU150     -0.1966
     85  CA         4.4800  133.7950   11.9140 C.3   150  GLU150      0.1733
     86  C          3.4440  134.8020   12.3770 C.2   150  GLU150      0.2616
     87  O          2.5890  134.4580   13.2020 O.2   150  GLU150     -0.2715
     88  CB         3.9750  132.9820   10.7320 C.3   150  GLU150      0.0429
     89  CG         2.9130  131.9610   11.0460 C.3   150  GLU150      0.1163
     90  CD         2.3710  131.3150    9.7870 C.2   150  GLU150      0.3649
     91  OE1        1.9230  130.1450    9.8670 O.co2 150  GLU150     -0.2457
     92  OE2        2.4310  131.9680    8.7150 O.co2 150  GLU150     -0.2457
     93  N          3.5540  136.0670   11.9050 N.am  151  TYR151     -0.1960
     94  CA         2.6150  137.1310   12.2840 C.3   151  TYR151      0.1771
     95  C          1.2530  136.9130   11.6070 C.2   151  TYR151      0.2619
     96  O          1.2070  136.6310   10.4020 O.2   151  TYR151     -0.2715
     97  CB         3.1910  138.5220   11.9840 C.3   151  TYR151      0.0574
     98  CG         2.2570  139.6800   12.2540 C.ar  151  TYR151     -0.0198
     99  CD1        1.7390  139.9000   13.5270 C.ar  151  TYR151     -0.0009
    100  CD2        1.9690  140.6130   11.2630 C.ar  151  TYR151     -0.0009
    101  CE1        0.9380  141.0060   13.8020 C.ar  151  TYR151      0.0417
    102  CE2        1.1710  141.7250   11.5270 C.ar  151  TYR151      0.0417
    103  CZ         0.6500  141.9090   12.7950 C.ar  151  TYR151      0.1957
    104  OH        -0.1460  142.9890   13.0660 O.3   151  TYR151     -0.2866
    105  N          0.1650  136.9890   12.4210 N.am  152  MET152     -0.1977
    106  CA        -1.2350  136.8130   12.0420 C.3   152  MET152      0.1605
    107  C         -1.8620  138.1860   12.0080 C.2   152  MET152      0.2287
    108  O         -2.3880  138.6390   13.0240 O.2   152  MET152     -0.2864
    109  CB        -1.9260  135.9340   13.0780 C.3   152  MET152      0.0413
    110  CG        -1.4510  134.5100   13.0590 C.3   152  MET152      0.0598
    111  SD        -1.9770  133.6500   11.5580 S.3   152  MET152     -0.1393
    112  CE        -0.4340  133.5160   10.7150 C.3   152  MET152      0.0692
    113  N        -10.6610  129.6000   23.3920 N.3   196  LYS196     -0.1245
    114  CA       -11.3670  130.8730   23.4710 C.3   196  LYS196      0.1561
    115  C        -11.0350  131.7530   22.2470 C.2   196  LYS196      0.2260
    116  O        -10.0640  131.4530   21.5290 O.2   196  LYS196     -0.2867
    117  CB       -11.1150  131.5630   24.8440 C.3   196  LYS196      0.0271
    118  CG        -9.6820  131.9900   25.1250 C.3   196  LYS196      0.0035
    119  CD        -9.4080  131.9800   26.6040 C.3   196  LYS196      0.0206
    120  CE        -8.0350  132.5100   26.9230 C.3   196  LYS196      0.1093
    121  NZ        -8.0100  133.9980   27.0010 N.3   196  LYS196     -0.1314
    122  N         -9.6230  134.4530   21.9520 N.3   198  ASP198     -0.1239
    123  CA        -8.3290  135.0710   22.1860 C.3   198  ASP198      0.1674
    124  C         -7.2730  134.1790   21.5520 C.2   198  ASP198      0.2266
    125  O         -6.2180  134.6710   21.1470 O.2   198  ASP198     -0.2867
    126  CB        -8.0660  135.1750   23.6990 C.3   198  ASP198      0.1410
    127  CG        -9.1600  135.8600   24.5040 C.2   198  ASP198      0.3668
    128  OD1      -10.3380  135.4070   24.4290 O.co2 198  ASP198     -0.2456
    129  OD2       -8.8340  136.7870   25.2760 O.co2 198  ASP198     -0.2456
    130  N         -6.6760  133.2290   15.9230 N.3   201  LEU201     -0.1245
    131  CA        -6.0620  134.3140   15.1570 C.3   201  LEU201      0.1561
    132  C         -6.4650  134.1910   13.7040 C.2   201  LEU201      0.2260
    133  O         -6.8420  133.1070   13.2550 O.2   201  LEU201     -0.2867
    134  CB        -4.5290  134.2620   15.2680 C.3   201  LEU201      0.0270
    135  CG        -3.8200  134.8970   16.4770 C.3   201  LEU201      0.0019
    136  CD1       -3.8120  136.3920   16.4100 C.3   201  LEU201      0.0001
    137  CD2       -4.3760  134.4310   17.8050 C.3   201  LEU201      0.0001
    138  N         -3.4810  129.8390   18.2010 N.3   211  ALA211     -0.1231
    139  CA        -2.2440  130.2680   18.8420 C.3   211  ALA211      0.1694
    140  C         -2.4220  130.1710   20.3720 C.2   211  ALA211      0.2592
    141  O         -3.5470  129.9280   20.8450 O.2   211  ALA211     -0.2718
    142  CB        -1.9130  131.6860   18.4220 C.3   211  ALA211      0.0304
    143  N         -1.3050  130.3310   21.1450 N.am  212  ASP212     -0.1974
    144  CA        -1.2890  130.3030   22.6260 C.3   212  ASP212      0.1709
    145  C         -1.7970  128.9660   23.1750 C.2   212  ASP212      0.2293
    146  O         -2.9660  128.8240   23.5490 O.2   212  ASP212     -0.2864
    147  CB        -2.0430  131.5210   23.2040 C.3   212  ASP212      0.1436
    148  CG        -2.1030  131.6570   24.7070 C.2   212  ASP212      0.3671
    149  OD1       -1.2890  130.9900   25.4030 O.co2 212  ASP212     -0.2456
    150  OD2       -2.9590  132.4430   25.1970 O.co2 212  ASP212     -0.2456
    151  N         -4.9010  144.9720   16.0370 N.3   364  PHE364     -0.1241
    152  CA        -4.4290  144.7420   17.3910 C.3   364  PHE364      0.1605
    153  C         -4.5190  146.0550   18.1650 C.2   364  PHE364      0.2264
    154  O         -3.8440  147.0280   17.8140 O.2   364  PHE364     -0.2867
    155  CB        -2.9860  144.1820   17.4040 C.3   364  PHE364      0.0534
    156  CG        -2.8390  142.8240   16.7810 C.ar  364  PHE364     -0.0203
    157  CD1       -3.0450  141.6750   17.5290 C.ar  364  PHE364     -0.0042
    158  CD2       -2.4930  142.6890   15.4410 C.ar  364  PHE364     -0.0042
    159  CE1       -2.9400  140.4120   16.9440 C.ar  364  PHE364     -0.0003
    160  CE2       -2.3970  141.4270   14.8530 C.ar  364  PHE364     -0.0003
    161  CZ        -2.6120  140.2980   15.6140 C.ar  364  PHE364     -0.0000
@<TRIPOS>BOND
     1    92    90   ar
     2    90    91   ar
     3    90    89    1
     4    96    95    2
     5   112   111    1
     6    88    89    1
     7    88    85    1
     8   100   102   ar
     9   100    98   ar
    10   102   103   ar
    11   111   110    1
    12    95    94    1
    13    95   105   am
    14    93    94    1
    15    93    86   am
    16    85    86    1
    17    85    84    1
    18    97    98    1
    19    97    94    1
    20   107   106    1
    21   107   108    2
    22   106   105    1
    23   106   109    1
    24    98    99   ar
    25    86    87    2
    26   103   104    1
    27   103   101   ar
    28    84    78   am
    29   110   109    1
    30   133   132    2
    31    99   101   ar
    32   132   131    1
    33    79    78    2
    34    78    77    1
    35    70    71    1
    36    70    69    1
    37    70    73    1
    38    71    72    2
    39    46    47    1
    40   160   158   ar
    41   160   161   ar
    42    74    73    1
    43    75    73    1
    44    77    76    1
    45    77    80    1
    46   131   134    1
    47   131   130    1
    48   134   135    1
    49   158   156   ar
    50   161   159   ar
    51    80    81    1
    52   151   152    1
    53    47    50    1
    54    47    48    1
    55   136   135    1
    56   135   137    1
    57   156   155    1
    58   156   157   ar
    59    49    48    2
    60   159   157   ar
    61    81    82    1
    62   152   155    1
    63   152   153    1
    64     8     6    1
    65     7     5    1
    66   154   153    2
    67   138   139    1
    68   142   139    1
    69    82    83    1
    70   139   140    1
    71     6     5    1
    72     5     2    1
    73     2     1    1
    74     2     3    1
    75   140   141    2
    76   140   143   am
    77    44    43    1
    78    63    62    2
    79   143   144    1
    80   125   124    2
    81    51    52    1
    82     3     4    2
    83     3     9   am
    84   116   115    2
    85   124   123    1
    86    41    42    2
    87    41    40    1
    88   122   123    1
    89    62    61    1
    90    43    40    1
    91    43    45    1
    92   123   126    1
    93   115   114    1
    94     9    10    1
    95    52    55    1
    96    52    53    1
    97    40    39    1
    98    55    56    1
    99   144   145    1
   100   144   147    1
   101    67    66   ar
   102    65    66    1
   103    65    64    1
   104    61    64    1
   105    61    60    1
   106   145   146    2
   107   147   148    1
   108    54    53    2
   109    10    11    1
   110   113   114    1
   111    66    68   ar
   112   114   117    1
   113   126   127    1
   114    57    56    1
   115    57    58    1
   116   128   127   ar
   117   127   129   ar
   118    12    11    2
   119    11    13   am
   120   148   150   ar
   121   148   149   ar
   122   117   118    1
   123    59    58    1
   124   118   119    1
   125    13    14    1
   126   119   120    1
   127   120   121    1
   128    14    17    1
   129    14    15    1
   130    37    38   ar
   131    37    35   ar
   132    22    21    1
   133    23    21    1
   134    38    36   ar
   135    21    20    2
   136    17    18    1
   137    15    16    2
   138    15    24   am
   139    20    19    1
   140    35    33   ar
   141    36    34   ar
   142    19    18    1
   143    24    25    1
   144    33    34   ar
   145    33    32    1
   146    25    26    1
   147    32    29    1
   148    30    31    2
   149    30    29    1
   150    26    27    2
   151    29    28    1
