@<TRIPOS>MOLECULE
tmp/4yvfB02.pdb
 184 175 0 0 0
SMALL
GASTEIGER

@<TRIPOS>ATOM
      1  N         30.5960  106.1050   24.8220 N.3    51  LEU51      -0.1231
      2  CA        30.3700  106.9970   23.6930 C.3    51  LEU51       0.1693
      3  C         30.3670  106.2040   22.3910 C.2    51  LEU51       0.2592
      4  O         31.2280  105.3510   22.1850 O.2    51  LEU51      -0.2718
      5  CB        31.4970  108.0390   23.6560 C.3    51  LEU51       0.0284
      6  CG        31.2730  109.4290   23.0460 C.3    51  LEU51       0.0019
      7  CD1       32.4640  110.3130   23.3960 C.3    51  LEU51       0.0001
      8  CD2       31.0850  109.3420   21.5470 C.3    51  LEU51       0.0001
      9  N         29.4010  106.4900   21.5220 N.am   52  HIS52      -0.1976
     10  CA        29.2900  105.8230   20.2260 C.3    52  HIS52       0.1656
     11  C         30.6660  105.3370   19.7820 C.2    52  HIS52       0.2291
     12  O         31.5630  106.1450   19.5470 O.2    52  HIS52      -0.2864
     13  CB        28.7400  106.8030   19.1920 C.3    52  HIS52       0.0771
     14  CG        27.5180  107.5340   19.6510 C.ar   52  HIS52       0.0820
     15  ND1       26.2900  106.9230   19.7830 N.ar   52  HIS52      -0.2267
     16  CD2       27.3460  108.8130   20.0640 C.ar   52  HIS52       0.1154
     17  CE1       25.4150  107.7900   20.2580 C.ar   52  HIS52       0.1986
     18  NE2       26.0300  108.9460   20.4360 N.ar   52  HIS52      -0.2212
     19  N         32.5770  104.9010   17.3820 N.3    54  THR54      -0.1203
     20  CA        32.7930  105.2410   15.9830 C.3    54  THR54       0.1994
     21  C         34.2640  105.4550   15.6800 C.2    54  THR54       0.2618
     22  O         35.1130  105.4110   16.5670 O.2    54  THR54      -0.2717
     23  CB        32.0710  106.5420   15.6140 C.3    54  THR54       0.1784
     24  OG1       32.6280  107.6150   16.3860 O.3    54  THR54      -0.2211
     25  CG2       30.5740  106.4310   15.8990 C.3    54  THR54       0.0376
     26  N         34.5460  105.6990   14.4080 N.am   55  VAL55      -0.1965
     27  CA        35.8990  105.9570   13.9480 C.3    55  VAL55       0.1727
     28  C         36.4160  107.1900   14.6770 C.2    55  VAL55       0.2616
     29  O         37.5510  107.2130   15.1530 O.2    55  VAL55      -0.2715
     30  CB        35.9180  106.2360   12.4310 C.3    55  VAL55       0.0290
     31  CG1       37.3120  106.6350   11.9930 C.3    55  VAL55       0.0023
     32  CG2       35.4300  105.0050   11.6720 C.3    55  VAL55       0.0023
     33  N         35.5660  108.2120   14.7620 N.am   56  GLU56      -0.1963
     34  CA        35.9140  109.4590   15.4270 C.3    56  GLU56       0.1733
     35  C         36.1980  109.2170   16.9030 C.2    56  GLU56       0.2617
     36  O         37.1610  109.7480   17.4560 O.2    56  GLU56      -0.2715
     37  CB        34.7790  110.4740   15.2790 C.3    56  GLU56       0.0429
     38  CG        34.6330  111.0710   13.8910 C.3    56  GLU56       0.1163
     39  CD        34.3590  110.0330   12.8270 C.2    56  GLU56       0.3649
     40  OE1       33.5680  109.1030   13.0820 O.co2  56  GLU56      -0.2457
     41  OE2       34.9270  110.1560   11.7240 O.co2  56  GLU56      -0.2457
     42  N         35.3500  108.4170   17.5410 N.am   57  THR57      -0.1951
     43  CA        35.5230  108.0960   18.9550 C.3    57  THR57       0.1897
     44  C         36.8380  107.3460   19.1490 C.2    57  THR57       0.2313
     45  O         37.5620  107.5740   20.1170 O.2    57  THR57      -0.2863
     46  CB        34.3630  107.2340   19.4610 C.3    57  THR57       0.1794
     47  OG1       33.1520  107.9910   19.3860 O.3    57  THR57      -0.2208
     48  CG2       34.6000  106.8020   20.8920 C.3    57  THR57       0.0378
     49  N         25.0350  103.8050   22.5240 N.3    77  ASN77      -0.1240
     50  CA        23.8660  103.4870   21.7180 C.3    77  ASN77       0.1653
     51  C         24.0790  102.1120   21.0690 C.2    77  ASN77       0.2266
     52  O         25.1480  101.8420   20.5210 O.2    77  ASN77      -0.2867
     53  CB        23.6510  104.5670   20.6570 C.3    77  ASN77       0.1155
     54  CG        22.4220  104.3170   19.8170 C.2    77  ASN77       0.2627
     55  OD1       22.4980  103.6850   18.7660 O.2    77  ASN77      -0.2716
     56  ND2       21.2730  104.7950   20.2860 N.am   77  ASN77      -0.0877
     57  N         23.2330  100.9060   18.3420 N.3    79  PHE79      -0.1227
     58  CA        23.4380  100.8830   16.8910 C.3    79  PHE79       0.1736
     59  C         24.5840  101.7530   16.3750 C.2    79  PHE79       0.2596
     60  O         25.0460  101.5650   15.2460 O.2    79  PHE79      -0.2718
     61  CB        22.1510  101.3060   16.1680 C.3    79  PHE79       0.0547
     62  CG        21.0460  100.2940   16.2490 C.ar   79  PHE79      -0.0202
     63  CD1       21.2020   99.0330   15.6870 C.ar   79  PHE79      -0.0042
     64  CD2       19.8490  100.5990   16.8920 C.ar   79  PHE79      -0.0042
     65  CE1       20.1820   98.0980   15.7660 C.ar   79  PHE79      -0.0003
     66  CE2       18.8310   99.6680   16.9720 C.ar   79  PHE79      -0.0003
     67  CZ        18.9970   98.4170   16.4090 C.ar   79  PHE79      -0.0000
     68  N         25.0340  102.6970   17.1990 N.am   80  SER80      -0.1938
     69  CA        26.0940  103.6310   16.8190 C.3    80  SER80       0.2055
     70  C         27.5160  103.0870   16.6230 C.2    80  SER80       0.2644
     71  O         28.3890  103.8030   16.1240 O.2    80  SER80      -0.2714
     72  CB        26.1330  104.7810   17.8220 C.3    80  SER80       0.2130
     73  OG        26.2340  104.2940   19.1440 O.3    80  SER80      -0.2179
     74  N         27.7600  101.8360   16.9960 N.am   81  THR81      -0.1936
     75  CA        29.1000  101.2850   16.8380 C.3    81  THR81       0.2028
     76  C         29.4630  100.9570   15.3930 C.2    81  THR81       0.2642
     77  O         28.6630  100.3940   14.6460 O.2    81  THR81      -0.2714
     78  CB        29.3030   99.9990   17.6830 C.3    81  THR81       0.1808
     79  OG1       29.2440  100.3150   19.0790 O.3    81  THR81      -0.2208
     80  CG2       30.6540   99.3810   17.3840 C.3    81  THR81       0.0379
     81  N         30.6710  101.3510   15.0020 N.am   82  GLN82      -0.1976
     82  CA        31.1950  101.0550   13.6760 C.3    82  GLN82       0.1601
     83  C         32.1720   99.9410   13.9980 C.2    82  GLN82       0.2287
     84  O         33.2360  100.1770   14.5690 O.2    82  GLN82      -0.2864
     85  CB        31.9110  102.2690   13.0870 C.3    82  GLN82       0.0394
     86  CG        30.9690  103.2700   12.4330 C.3    82  GLN82       0.0908
     87  CD        31.7080  104.4320   11.8040 C.2    82  GLN82       0.2608
     88  OE1       32.2810  105.2660   12.5050 O.2    82  GLN82      -0.2717
     89  NE2       31.7080  104.4880   10.4740 N.am   82  GLN82      -0.0878
     90  N         26.4500  115.9040   26.3880 N.3   154  THR154     -0.1218
     91  CA        25.1110  115.9680   25.8200 C.3   154  THR154      0.1862
     92  C         24.1480  116.7370   26.7130 C.2   154  THR154      0.2287
     93  O         24.3470  116.8420   27.9260 O.2   154  THR154     -0.2866
     94  CB        24.5390  114.5550   25.5460 C.3   154  THR154      0.1770
     95  OG1       24.2060  113.9140   26.7830 O.3   154  THR154     -0.2211
     96  CG2       25.5620  113.7150   24.8060 C.3   154  THR154      0.0375
     97  N         32.1380  123.1970   21.2110 N.3   183  LYS183     -0.1245
     98  CA        31.3420  121.9870   21.1350 C.3   183  LYS183      0.1561
     99  C         29.9660  122.2750   20.5430 C.2   183  LYS183      0.2260
    100  O         29.5790  121.6710   19.5440 O.2   183  LYS183     -0.2867
    101  CB        31.2020  121.3650   22.5270 C.3   183  LYS183      0.0271
    102  CG        30.6240  119.9520   22.5420 C.3   183  LYS183      0.0035
    103  CD        29.1260  119.9510   22.3260 C.3   183  LYS183      0.0206
    104  CE        28.5630  118.5450   22.4030 C.3   183  LYS183      0.1093
    105  NZ        27.0750  118.5250   22.3850 N.3   183  LYS183     -0.1314
    106  N         28.7320  120.9520   17.0520 N.3   187  ASP187     -0.1225
    107  CA        27.7890  119.8640   17.2340 C.3   187  ASP187      0.1805
    108  C         26.3800  120.2000   16.7680 C.2   187  ASP187      0.2597
    109  O         25.6430  119.3150   16.3270 O.2   187  ASP187     -0.2718
    110  CB        27.7570  119.4170   18.6990 C.3   187  ASP187      0.1424
    111  CG        26.9530  118.1380   18.8960 C.2   187  ASP187      0.3668
    112  OD1       27.1120  117.2130   18.0660 O.co2 187  ASP187     -0.2456
    113  OD2       26.1730  118.0530   19.8750 O.co2 187  ASP187     -0.2456
    114  N         26.0000  121.4720   16.8580 N.am  188  ASN188     -0.1974
    115  CA        24.6620  121.8770   16.4370 C.3   188  ASN188      0.1688
    116  C         24.6110  122.5510   15.0720 C.2   188  ASN188      0.2292
    117  O         23.9640  122.0560   14.1550 O.2   188  ASN188     -0.2864
    118  CB        24.0330  122.8300   17.4530 C.3   188  ASN188      0.1181
    119  CG        23.9870  122.2560   18.8470 C.2   188  ASN188      0.2629
    120  OD1       23.3990  121.2050   19.0860 O.2   188  ASN188     -0.2716
    121  ND2       24.6050  122.9560   19.7860 N.am  188  ASN188     -0.0877
    122  N         16.2770  117.1950   14.1500 N.3   297  GLY297     -0.1225
    123  CA        16.2200  117.7100   15.5040 C.3   297  GLY297      0.1811
    124  C         16.1930  116.6600   16.6030 C.2   297  GLY297      0.2280
    125  O         17.1830  115.9670   16.8310 O.2   297  GLY297     -0.2866
    126  N         16.6070  111.1690   12.8960 N.3   341  LEU341     -0.1245
    127  CA        17.6380  112.0680   12.3840 C.3   341  LEU341      0.1561
    128  C         18.0540  111.6940   10.9750 C.2   341  LEU341      0.2260
    129  O         18.5620  110.5990   10.7300 O.2   341  LEU341     -0.2867
    130  CB        18.8540  112.0700   13.3060 C.3   341  LEU341      0.0270
    131  CG        18.5220  112.3360   14.7750 C.3   341  LEU341      0.0019
    132  CD1       19.8080  112.5240   15.5370 C.3   341  LEU341      0.0001
    133  CD2       17.6290  113.5680   14.9160 C.3   341  LEU341      0.0001
    134  N         20.4650  113.0060    9.1450 N.3   343  ASN343     -0.1225
    135  CA        21.9060  112.9470    8.9510 C.3   343  ASN343      0.1785
    136  C         22.5320  111.6730    9.5070 C.2   343  ASN343      0.2597
    137  O         23.7060  111.3970    9.2670 O.2   343  ASN343     -0.2718
    138  CB        22.5820  114.2000    9.5270 C.3   343  ASN343      0.1169
    139  CG        22.2970  114.4030   10.9990 C.2   343  ASN343      0.2627
    140  OD1       21.1930  114.1550   11.4700 O.2   343  ASN343     -0.2716
    141  ND2       23.2920  114.8850   11.7290 N.am  343  ASN343     -0.0877
    142  N         21.7440  110.8910   10.2370 N.am  344  LEU344     -0.1980
    143  CA        22.2270  109.6270   10.7830 C.3   344  LEU344      0.1596
    144  C         21.7410  108.4500    9.9310 C.2   344  LEU344      0.2287
    145  O         22.5140  107.5520    9.6000 O.2   344  LEU344     -0.2864
    146  CB        21.7470  109.4330   12.2200 C.3   344  LEU344      0.0297
    147  CG        22.4280  110.2300   13.3400 C.3   344  LEU344      0.0022
    148  CD1       21.7950  109.8220   14.6610 C.3   344  LEU344      0.0001
    149  CD2       23.9360  109.9720   13.3660 C.3   344  LEU344      0.0001
    150  N         22.7990  109.5980    6.0200 N.3   347  ALA347     -0.1231
    151  CA        24.1500  110.1140    5.8180 C.3   347  ALA347      0.1694
    152  C         25.1110  109.4160    6.7710 C.2   347  ALA347      0.2592
    153  O         24.7720  108.4020    7.3700 O.2   347  ALA347     -0.2718
    154  CB        24.1800  111.6200    6.0460 C.3   347  ALA347      0.0304
    155  N         26.3080  109.9630    6.9190 N.am  348  MET348     -0.1965
    156  CA        27.2980  109.3570    7.7940 C.3   348  MET348      0.1736
    157  C         27.5080  110.1360    9.0800 C.2   348  MET348      0.2617
    158  O         28.5800  110.0760    9.6860 O.2   348  MET348     -0.2715
    159  CB        28.6190  109.2120    7.0470 C.3   348  MET348      0.0427
    160  CG        28.5370  108.2200    5.8970 C.3   348  MET348      0.0599
    161  SD        28.0180  106.5670    6.4600 S.3   348  MET348     -0.1393
    162  CE        29.5830  105.9430    7.1020 C.3   348  MET348      0.0692
    163  N         26.4730  110.8560    9.5000 N.am  349  GLY349     -0.1940
    164  CA        26.5670  111.6390   10.7120 C.3   349  GLY349      0.2014
    165  C         27.4680  112.8510   10.5500 C.2   349  GLY349      0.2638
    166  O         27.7320  113.3060    9.4300 O.2   349  GLY349     -0.2714
    167  N         27.9430  113.3730   11.6770 N.am  350  HIS350     -0.1973
    168  CA        28.8120  114.5350   11.6910 C.3   350  HIS350      0.1656
    169  C         30.1760  114.2520   11.1030 C.2   350  HIS350      0.2291
    170  O         30.7240  113.1640   11.2740 O.2   350  HIS350     -0.2864
    171  CB        29.0050  115.0380   13.1170 C.3   350  HIS350      0.0771
    172  CG        27.8520  115.8280   13.6450 C.ar  350  HIS350      0.0820
    173  ND1       26.9580  116.4800   12.8220 N.ar  350  HIS350     -0.2267
    174  CD2       27.4850  116.1270   14.9130 C.ar  350  HIS350      0.1154
    175  CE1       26.0910  117.1480   13.5610 C.ar  350  HIS350      0.1986
    176  NE2       26.3890  116.9510   14.8330 N.ar  350  HIS350     -0.2212
    177  N         33.2630  116.3390   15.0840 N.3   355  MET355     -0.1245
    178  CA        33.4220  115.4620   16.2350 C.3   355  MET355      0.1570
    179  C         34.6970  115.7910   16.9940 C.2   355  MET355      0.2261
    180  O         34.7510  115.6660   18.2180 O.2   355  MET355     -0.2867
    181  CB        33.4440  113.9970   15.7830 C.3   355  MET355      0.0387
    182  CG        32.1930  113.5500   15.0200 C.3   355  MET355      0.0595
    183  SD        30.6520  113.8980   15.9140 S.3   355  MET355     -0.1393
    184  CE        31.0950  113.3920   17.5780 C.3   355  MET355      0.0692
@<TRIPOS>BOND
     1   151   150    1
     2   151   154    1
     3   151   152    1
     4   160   161    1
     5   160   159    1
     6   161   162    1
     7   152   155   am
     8   152   153    2
     9   155   156    1
    10   159   156    1
    11   156   157    1
    12   135   134    1
    13   135   136    1
    14   135   138    1
    15   157   163   am
    16   157   158    2
    17   137   136    2
    18   166   165    2
    19   163   164    1
    20   136   142   am
    21   138   139    1
    22   145   144    2
    23   144   143    1
    24   142   143    1
    25    89    87   am
    26   165   164    1
    27   165   167   am
    28   129   128    2
    29   143   146    1
    30   128   127    1
    31   139   140    2
    32   139   141   am
    33   169   170    2
    34   169   168    1
    35    32    30    1
    36   167   168    1
    37   168   171    1
    38    41    39   ar
    39    87    86    1
    40    87    88    2
    41    31    30    1
    42   146   147    1
    43   127   126    1
    44   127   130    1
    45    30    27    1
    46    86    85    1
    47   173   175   ar
    48   173   172   ar
    49    39    40   ar
    50    39    38    1
    51    85    82    1
    52   171   172    1
    53   130   131    1
    54   147   149    1
    55   147   148    1
    56   175   176   ar
    57   172   174   ar
    58    82    83    1
    59    82    81    1
    60    38    37    1
    61    27    26    1
    62    27    28    1
    63    83    84    2
    64   122   123    1
    65   117   116    2
    66    26    21   am
    67    77    76    2
    68    28    33   am
    69    28    29    2
    70    33    34    1
    71   131   133    1
    72   131   132    1
    73   176   174   ar
    74    81    76   am
    75   182   181    1
    76   182   183    1
    77   116   115    1
    78   177   178    1
    79    60    59    2
    80    37    34    1
    81    76    75    1
    82    34    35    1
    83   123   124    1
    84    23    25    1
    85    23    20    1
    86    23    24    1
    87    21    20    1
    88    21    22    2
    89    63    65   ar
    90    63    62   ar
    91    65    67   ar
    92   181   178    1
    93   183   184    1
    94    20    19    1
    95    71    70    2
    96    61    62    1
    97    61    58    1
    98   178   179    1
    99    62    64   ar
   100   109   108    2
   101    59    58    1
   102    59    68   am
   103    67    66   ar
   104   115   114    1
   105   115   118    1
   106   124   125    2
   107    70    69    1
   108    70    74   am
   109   108   114   am
   110   108   107    1
   111    69    68    1
   112    69    72    1
   113    75    74    1
   114    75    78    1
   115    58    57    1
   116    64    66   ar
   117    35    36    2
   118    35    42   am
   119   179   180    2
   120   106   107    1
   121   107   110    1
   122    80    78    1
   123   118   119    1
   124    42    43    1
   125    78    79    1
   126    72    73    1
   127   112   111   ar
   128   110   111    1
   129    55    54    2
   130   119   120    2
   131   119   121   am
   132   111   113   ar
   133    43    44    1
   134    43    46    1
   135    44    45    2
   136    13    14    1
   137    13    10    1
   138    47    46    1
   139    46    48    1
   140   100    99    2
   141    12    11    2
   142    14    15   ar
   143    14    16   ar
   144    11    10    1
   145    15    17   ar
   146    54    56   am
   147    54    53    1
   148    16    18   ar
   149    10     9    1
   150    17    18   ar
   151    52    51    2
   152    99    98    1
   153    53    50    1
   154    51    50    1
   155    98    97    1
   156    98   101    1
   157     9     3   am
   158     8     6    1
   159    50    49    1
   160     4     3    2
   161   103   104    1
   162   103   102    1
   163   105   104    1
   164     3     2    1
   165   101   102    1
   166     6     7    1
   167     6     5    1
   168     5     2    1
   169     2     1    1
   170    96    94    1
   171    94    91    1
   172    94    95    1
   173    91    90    1
   174    91    92    1
   175    92    93    2
