@<TRIPOS>MOLECULE
tmp/4yviB01.pdb
 163 165 0 0 0
SMALL
GASTEIGER

@<TRIPOS>ATOM
      1  N        -18.4520   21.0600  -16.0070 N.3    89  TYR89      -0.1227
      2  CA       -19.5510   21.8710  -16.4430 C.3    89  TYR89       0.1736
      3  C        -20.7950   20.9970  -16.4620 C.2    89  TYR89       0.2595
      4  O        -20.8190   19.9260  -17.0800 O.2    89  TYR89      -0.2718
      5  CB       -19.2740   22.3760  -17.8570 C.3    89  TYR89       0.0548
      6  CG       -20.4340   23.1200  -18.4680 C.ar   89  TYR89      -0.0200
      7  CD1      -21.1360   24.0730  -17.7270 C.ar   89  TYR89      -0.0009
      8  CD2      -20.8060   22.9140  -19.7940 C.ar   89  TYR89      -0.0009
      9  CE1      -22.1950   24.7720  -18.2790 C.ar   89  TYR89       0.0417
     10  CE2      -21.8580   23.6170  -20.3570 C.ar   89  TYR89       0.0417
     11  CZ       -22.5490   24.5410  -19.5940 C.ar   89  TYR89       0.1957
     12  OH       -23.5970   25.2430  -20.1410 O.3    89  TYR89      -0.2866
     13  N        -21.8300   21.4560  -15.7730 N.am   90  LEU90      -0.1966
     14  CA       -23.0770   20.7390  -15.7640 C.3    90  LEU90       0.1728
     15  C        -23.7570   21.1160  -17.0740 C.2    90  LEU90       0.2617
     16  O        -23.9980   22.2970  -17.3210 O.2    90  LEU90      -0.2715
     17  CB       -23.9130   21.1750  -14.5610 C.3    90  LEU90       0.0311
     18  CG       -23.6270   20.6330  -13.1550 C.3    90  LEU90       0.0022
     19  CD1      -23.6490   19.1250  -13.1000 C.3    90  LEU90       0.0001
     20  CD2      -22.3060   21.1580  -12.6580 C.3    90  LEU90       0.0001
     21  N        -24.1110   20.1300  -17.8930 N.am   91  SER91      -0.1936
     22  CA       -24.7590   20.4110  -19.1730 C.3    91  SER91       0.2040
     23  C        -25.4090   19.1430  -19.6620 C.2    91  SER91       0.2485
     24  O        -24.8560   18.0630  -19.4630 O.2    91  SER91      -0.2729
     25  CB       -23.7380   20.9010  -20.2040 C.3    91  SER91       0.2129
     26  OG       -24.3230   21.0520  -21.4920 O.3    91  SER91      -0.2179
     27  N        -26.5710   19.2680  -20.3310 N.am   92  PRO92      -0.2715
     28  CA       -27.2780   18.0900  -20.8500 C.3    92  PRO92       0.1536
     29  C        -26.5530   17.3920  -21.9800 C.2    92  PRO92       0.2598
     30  O        -26.9330   16.2730  -22.3410 O.2    92  PRO92      -0.2715
     31  CB       -28.6430   18.6380  -21.2740 C.3    92  PRO92       0.0310
     32  CG       -28.4420   20.0910  -21.4530 C.3    92  PRO92       0.0237
     33  CD       -27.3250   20.5140  -20.5470 C.3    92  PRO92       0.0939
     34  N        -25.5040   18.0350  -22.4890 N.am   93  GLN93      -0.1978
     35  CA       -24.6730   17.4790  -23.5550 C.3    93  GLN93       0.1601
     36  C        -23.5110   16.6770  -22.9780 C.2    93  GLN93       0.2287
     37  O        -22.6890   16.1400  -23.7220 O.2    93  GLN93      -0.2864
     38  CB       -24.1150   18.6050  -24.4310 C.3    93  GLN93       0.0394
     39  CG       -25.0400   19.0350  -25.5520 C.3    93  GLN93       0.0908
     40  CD       -25.9990   20.1310  -25.1090 C.2    93  GLN93       0.2608
     41  OE1      -27.2220   19.9530  -25.1250 O.2    93  GLN93      -0.2717
     42  NE2      -25.4440   21.2720  -24.7030 N.am   93  GLN93      -0.0878
     43  N        -24.6240   26.6290  -15.4840 N.3   116  GLY116     -0.1210
     44  CA       -25.0500   27.5440  -16.5250 C.3   116  GLY116      0.1956
     45  C        -26.4140   28.1510  -16.2820 C.2   116  GLY116      0.2612
     46  O        -27.1610   27.6960  -15.4220 O.2   116  GLY116     -0.2717
     47  N        -26.7120   29.2210  -17.0130 N.am  117  ARG117     -0.1965
     48  CA       -28.0260   29.8490  -16.9960 C.3   117  ARG117      0.1729
     49  C        -28.3520   30.3090  -18.4100 C.2   117  ARG117      0.2616
     50  O        -27.5050   30.2050  -19.3050 O.2   117  ARG117     -0.2715
     51  CB       -28.0660   31.0140  -16.0130 C.3   117  ARG117      0.0348
     52  CG       -28.3220   30.5420  -14.5780 C.3   117  ARG117      0.0492
     53  CD       -29.8130   30.4100  -14.3490 C.3   117  ARG117      0.2205
     54  NE       -30.1530   29.5690  -13.2040 N.pl3 117  ARG117     -0.0865
     55  CZ       -31.3840   29.4490  -12.7060 C.cat 117  ARG117      0.5346
     56  NH1      -31.6090   28.6490  -11.6710 N.pl3 117  ARG117      0.1354
     57  NH2      -32.3930   30.1410  -13.2330 N.pl3 117  ARG117      0.1354
     58  N        -29.5890   30.7510  -18.6360 N.am  118  TYR118     -0.1960
     59  CA       -29.9780   31.1960  -19.9750 C.3   118  TYR118      0.1771
     60  C        -29.7650   30.0490  -20.9690 C.2   118  TYR118      0.2619
     61  O        -30.1480   28.9150  -20.6910 O.2   118  TYR118     -0.2715
     62  CB       -29.2290   32.4640  -20.4140 C.3   118  TYR118      0.0574
     63  CG       -29.0860   33.4890  -19.3110 C.ar  118  TYR118     -0.0198
     64  CD1      -30.1590   34.3040  -18.9690 C.ar  118  TYR118     -0.0009
     65  CD2      -27.8940   33.6540  -18.6170 C.ar  118  TYR118     -0.0009
     66  CE1      -30.0630   35.2350  -17.9600 C.ar  118  TYR118      0.0417
     67  CE2      -27.7870   34.5960  -17.5990 C.ar  118  TYR118      0.0417
     68  CZ       -28.8800   35.3790  -17.2760 C.ar  118  TYR118      0.1957
     69  OH       -28.7980   36.3210  -16.2760 O.3   118  TYR118     -0.2866
     70  N        -29.1670   30.3290  -22.1200 N.am  119  GLU119     -0.1963
     71  CA       -28.9450   29.2700  -23.0940 C.3   119  GLU119      0.1733
     72  C        -27.6400   28.5070  -22.8970 C.2   119  GLU119      0.2616
     73  O        -27.3150   27.6230  -23.6880 O.2   119  GLU119     -0.2715
     74  CB       -29.0480   29.7900  -24.5260 C.3   119  GLU119      0.0429
     75  CG       -30.4500   30.3020  -24.8580 C.3   119  GLU119      0.1163
     76  CD       -31.4970   29.1850  -24.9570 C.2   119  GLU119      0.3649
     77  OE1      -32.7070   29.4880  -24.8140 O.co2 119  GLU119     -0.2457
     78  OE2      -31.1120   28.0110  -25.1730 O.co2 119  GLU119     -0.2457
     79  N        -26.8640   28.8710  -21.8830 N.am  120  GLY120     -0.1955
     80  CA       -25.6380   28.1410  -21.6180 C.3   120  GLY120      0.1869
     81  C        -24.4420   29.0600  -21.6010 C.2   120  GLY120      0.2309
     82  O        -24.5650   30.2410  -21.2980 O.2   120  GLY120     -0.2863
     83  N        -20.8730   17.0460  -17.4910 N.3   134  TRP134     -0.1227
     84  CA       -21.7650   16.0180  -16.9390 C.3   134  TRP134      0.1737
     85  C        -23.2570   16.4070  -16.9620 C.2   134  TRP134      0.2596
     86  O        -23.6170   17.5380  -16.6430 O.2   134  TRP134     -0.2718
     87  CB       -21.3910   15.7430  -15.4910 C.3   134  TRP134      0.0564
     88  CG       -20.1080   14.9660  -15.3470 C.ar  134  TRP134      0.0003
     89  CD1      -18.8440   15.4690  -15.4080 C.ar  134  TRP134      0.0946
     90  CD2      -19.9630   13.5450  -15.1760 C.ar  134  TRP134      0.0152
     91  NE1      -17.9220   14.4650  -15.2420 N.ar  134  TRP134     -0.2442
     92  CE2      -18.5820   13.2720  -15.1040 C.ar  134  TRP134      0.0810
     93  CE3      -20.8660   12.4810  -15.0610 C.ar  134  TRP134      0.0012
     94  CZ2      -18.0810   11.9790  -14.9230 C.ar  134  TRP134      0.0191
     95  CZ3      -20.3660   11.1980  -14.8810 C.ar  134  TRP134      0.0001
     96  CH2      -18.9890   10.9610  -14.8100 C.ar  134  TRP134      0.0015
     97  N        -24.1180   15.4560  -17.3300 N.am  135  SER135     -0.1938
     98  CA       -25.5690   15.6500  -17.3200 C.3   135  SER135      0.2055
     99  C        -26.1740   14.8030  -16.2260 C.2   135  SER135      0.2643
    100  O        -25.7170   13.6830  -16.0080 O.2   135  SER135     -0.2714
    101  CB       -26.1620   15.1780  -18.6420 C.3   135  SER135      0.2130
    102  OG       -27.5760   15.2280  -18.6100 O.3   135  SER135     -0.2179
    103  N        -27.2020   15.3010  -15.5420 N.am  136  ILE136     -0.1963
    104  CA       -27.8850   14.4630  -14.5520 C.3   136  ILE136      0.1727
    105  C        -29.0350   13.6440  -15.1600 C.2   136  ILE136      0.2616
    106  O        -29.6550   12.8110  -14.4960 O.2   136  ILE136     -0.2715
    107  CB       -28.3960   15.2870  -13.3510 C.3   136  ILE136      0.0290
    108  CG1      -29.3980   16.3490  -13.8020 C.3   136  ILE136      0.0022
    109  CG2      -27.2410   15.9270  -12.6150 C.3   136  ILE136      0.0023
    110  CD1      -30.2500   16.8710  -12.6670 C.3   136  ILE136      0.0001
    111  N        -29.3100   13.8810  -16.4350 N.am  137  GLY137     -0.1955
    112  CA       -30.3760   13.1740  -17.1070 C.3   137  GLY137      0.1869
    113  C        -30.7550   13.8390  -18.4110 C.2   137  GLY137      0.2309
    114  O        -30.4350   15.0070  -18.6460 O.2   137  GLY137     -0.2863
    115  N        -33.0280   15.5480  -19.9090 N.3   139  TYR139     -0.1227
    116  CA       -34.1500   16.4620  -19.7830 C.3   139  TYR139      0.1736
    117  C        -33.5430   17.8480  -19.5700 C.2   139  TYR139      0.2595
    118  O        -32.3750   17.9610  -19.1930 O.2   139  TYR139     -0.2718
    119  CB       -35.0700   16.0260  -18.6270 C.3   139  TYR139      0.0548
    120  CG       -34.3530   15.5510  -17.3680 C.ar  139  TYR139     -0.0200
    121  CD1      -33.8030   16.4510  -16.4690 C.ar  139  TYR139     -0.0009
    122  CD2      -34.1950   14.1930  -17.1060 C.ar  139  TYR139     -0.0009
    123  CE1      -33.1290   16.0100  -15.3380 C.ar  139  TYR139      0.0417
    124  CE2      -33.5280   13.7510  -15.9750 C.ar  139  TYR139      0.0417
    125  CZ       -32.9930   14.6650  -15.1030 C.ar  139  TYR139      0.1957
    126  OH       -32.3360   14.2410  -13.9800 O.3   139  TYR139     -0.2866
    127  N        -34.3050   18.9020  -19.8470 N.am  140  VAL140     -0.1966
    128  CA       -33.7400   20.2510  -19.7510 C.3   140  VAL140      0.1727
    129  C        -34.2740   21.0950  -18.5890 C.2   140  VAL140      0.2616
    130  O        -35.4840   21.2770  -18.4320 O.2   140  VAL140     -0.2715
    131  CB       -33.9690   21.0350  -21.0610 C.3   140  VAL140      0.0290
    132  CG1      -32.9560   22.1630  -21.1870 C.3   140  VAL140      0.0023
    133  CG2      -33.8320   20.0970  -22.2420 C.3   140  VAL140      0.0023
    134  N        -33.3390   21.6450  -17.8130 N.am  141  LEU141     -0.1963
    135  CA       -33.6550   22.4970  -16.6720 C.3   141  LEU141      0.1728
    136  C        -33.2810   23.9480  -16.9590 C.2   141  LEU141      0.2617
    137  O        -32.5910   24.2290  -17.9450 O.2   141  LEU141     -0.2715
    138  CB       -32.8860   22.0110  -15.4430 C.3   141  LEU141      0.0311
    139  CG       -33.0990   20.5460  -15.0980 C.3   141  LEU141      0.0022
    140  CD1      -32.3190   20.1560  -13.9000 C.3   141  LEU141      0.0001
    141  CD2      -34.5610   20.3160  -14.8690 C.3   141  LEU141      0.0001
    142  N        -33.7620   24.8660  -16.1150 N.am  142  THR142     -0.1937
    143  CA       -33.4790   26.2910  -16.2830 C.3   142  THR142      0.2028
    144  C        -32.0590   26.7090  -15.8610 C.2   142  THR142      0.2643
    145  O        -31.5910   27.7890  -16.2210 O.2   142  THR142     -0.2714
    146  CB       -34.4740   27.1700  -15.4950 C.3   142  THR142      0.1808
    147  OG1      -34.3530   26.9160  -14.0950 O.3   142  THR142     -0.2208
    148  CG2      -35.8990   26.9090  -15.9480 C.3   142  THR142      0.0379
    149  N        -31.3660   25.8550  -15.1230 N.am  143  GLY143     -0.1939
    150  CA       -30.0410   26.2030  -14.6630 C.3   143  GLY143      0.2014
    151  C        -29.2670   25.0010  -14.1850 C.2   143  GLY143      0.2639
    152  O        -29.8190   23.9250  -14.0140 O.2   143  GLY143     -0.2714
    153  N        -27.9630   25.1790  -14.0190 N.am  144  GLY144     -0.1954
    154  CA       -27.0910   24.1240  -13.5470 C.3   144  GLY144      0.1869
    155  C        -27.0130   23.9700  -12.0440 C.2   144  GLY144      0.2309
    156  O        -26.2930   23.0990  -11.5740 O.2   144  GLY144     -0.2863
    157  N        -28.7170   20.6870  -10.9060 N.3   147  PRO147     -0.2116
    158  CA       -27.8520   19.5890  -11.3220 C.3   147  PRO147      0.1372
    159  C        -26.6200   19.5200  -10.4290 C.2   147  PRO147      0.2244
    160  O        -26.1780   18.4250  -10.0450 O.2   147  PRO147     -0.2868
    161  CB       -27.4840   19.9950  -12.7530 C.3   147  PRO147      0.0268
    162  CG       -28.7140   20.6680  -13.2360 C.3   147  PRO147      0.0207
    163  CD       -29.1500   21.4950  -12.0670 C.3   147  PRO147      0.0892
@<TRIPOS>BOND
     1    39    40    1
     2    39    38    1
     3    78    76   ar
     4    41    40    2
     5    40    42   am
     6    76    75    1
     7    76    77   ar
     8    75    74    1
     9    74    71    1
    10    38    35    1
    11    37    36    2
    12    73    72    2
    13    35    36    1
    14    35    34    1
    15    71    72    1
    16    71    70    1
    17    72    79   am
    18    34    29   am
    19    30    29    2
    20   133   131    1
    21    70    60   am
    22    29    28    1
    23    79    80    1
    24    80    81    1
    25    81    82    2
    26    26    25    1
    27    32    31    1
    28    32    33    1
    29    31    28    1
    30   132   131    1
    31   131   128    1
    32    60    61    2
    33    60    59    1
    34    28    27    1
    35    33    27    1
    36    62    59    1
    37    62    63    1
    38    10     8   ar
    39    10    11   ar
    40    27    23   am
    41    25    22    1
    42    12    11    1
    43    59    58    1
    44   115   116    1
    45   127   128    1
    46   127   117   am
    47     8     6   ar
    48   116   117    1
    49   116   119    1
    50   128   129    1
    51    23    24    2
    52    23    22    1
    53    11     9   ar
    54   117   118    2
    55    63    64   ar
    56    63    65   ar
    57    50    49    2
    58    22    21    1
    59    64    66   ar
    60   114   113    2
    61   101   102    1
    62   101    98    1
    63    58    49   am
    64   119   120    1
    65    65    67   ar
    66   129   130    2
    67   129   134   am
    68     6     5    1
    69     6     7   ar
    70   113   112    1
    71    49    48    1
    72     9     7   ar
    73    66    68   ar
    74   137   136    2
    75    21    15   am
    76     5     2    1
    77   134   135    1
    78    67    68   ar
    79    83    84    1
    80   120   122   ar
    81   120   121   ar
    82    97    98    1
    83    97    85   am
    84    16    15    2
    85    98    99    1
    86    68    69    1
    87   112   111    1
    88   122   124   ar
    89     4     3    2
    90    15    14    1
    91    47    48    1
    92    47    45   am
    93    48    51    1
    94    85    84    1
    95    85    86    2
    96   136   135    1
    97   136   142   am
    98    84    87    1
    99   135   138    1
   100    44    45    1
   101    44    43    1
   102   121   123   ar
   103     3     2    1
   104     3    13   am
   105     2     1    1
   106   111   105   am
   107   143   142    1
   108   143   144    1
   109   143   146    1
   110    45    46    2
   111    99   100    2
   112    99   103   am
   113   145   144    2
   114    51    52    1
   115   124   125   ar
   116   148   146    1
   117   144   149   am
   118    13    14    1
   119    14    17    1
   120   103   104    1
   121   146   147    1
   122    87    88    1
   123   138   139    1
   124    89    88   ar
   125    89    91   ar
   126    88    90   ar
   127   123   125   ar
   128    91    92   ar
   129    90    92   ar
   130    90    93   ar
   131   105   104    1
   132   105   106    2
   133   149   150    1
   134    92    94   ar
   135   125   126    1
   136   139   141    1
   137   139   140    1
   138    93    95   ar
   139    94    96   ar
   140    95    96   ar
   141   150   151    1
   142    52    53    1
   143    17    18    1
   144   104   107    1
   145    53    54    1
   146   151   153   am
   147   151   152    2
   148   153   154    1
   149   108   107    1
   150   108   110    1
   151   154   155    1
   152   107   109    1
   153   162   161    1
   154   162   163    1
   155    57    55    1
   156    54    55    2
   157    18    19    1
   158    18    20    1
   159   161   158    1
   160    55    56    1
   161   163   157    1
   162   155   156    2
   163   158   157    1
   164   158   159    1
   165   159   160    2
