@<TRIPOS>MOLECULE
tmp/4yvnA00.pdb
 151 148 0 0 0
SMALL
GASTEIGER

@<TRIPOS>ATOM
      1  N         31.9270  -47.5330  -22.8030 N.3   352  TYR352     -0.1228
      2  CA        30.7560  -47.3120  -23.5920 C.3   352  TYR352      0.1721
      3  C         29.9420  -48.5800  -23.5820 C.2   352  TYR352      0.2437
      4  O         30.4830  -49.6770  -23.3440 O.2   352  TYR352     -0.2733
      5  CB        31.1350  -46.9300  -25.0160 C.3   352  TYR352      0.0547
      6  CG        31.6880  -45.5320  -25.1200 C.ar  352  TYR352     -0.0200
      7  CD1       33.0300  -45.2960  -24.9000 C.ar  352  TYR352     -0.0009
      8  CD2       30.8520  -44.4410  -25.4370 C.ar  352  TYR352     -0.0009
      9  CE1       33.5410  -44.0170  -25.0120 C.ar  352  TYR352      0.0417
     10  CE2       31.3520  -43.1440  -25.5250 C.ar  352  TYR352      0.0417
     11  CZ        32.7010  -42.9450  -25.3060 C.ar  352  TYR352      0.1957
     12  OH        33.2530  -41.6890  -25.4040 O.3   352  TYR352     -0.2866
     13  N         28.6290  -48.4380  -23.7670 N.am  353  PRO353     -0.2718
     14  CA        27.8870  -49.6640  -24.0070 C.3   353  PRO353      0.1535
     15  C         28.5150  -50.4710  -25.1560 C.2   353  PRO353      0.2599
     16  O         28.7930  -49.9070  -26.2260 O.2   353  PRO353     -0.2715
     17  CB        26.5020  -49.1530  -24.3670 C.3   353  PRO353      0.0310
     18  CG        26.3670  -47.9240  -23.5050 C.3   353  PRO353      0.0237
     19  CD        27.7440  -47.2960  -23.5080 C.3   353  PRO353      0.0939
     20  N         28.7800  -51.7590  -24.8880 N.am  354  SER354     -0.1936
     21  CA        29.2220  -52.7150  -25.9030 C.3   354  SER354      0.2055
     22  C         28.3660  -52.3650  -27.1050 C.2   354  SER354      0.2643
     23  O         27.1330  -52.4920  -27.0810 O.2   354  SER354     -0.2714
     24  CB        29.1040  -54.1550  -25.4090 C.3   354  SER354      0.2130
     25  OG        29.5330  -55.0640  -26.4170 O.3   354  SER354     -0.2179
     26  N         29.0590  -51.9070  -28.1390 N.am  355  VAL355     -0.1963
     27  CA        28.4970  -51.6040  -29.4430 C.3   355  VAL355      0.1727
     28  C         27.7990  -52.8280  -30.0720 C.2   355  VAL355      0.2616
     29  O         26.7450  -52.6640  -30.7090 O.2   355  VAL355     -0.2715
     30  CB        29.5930  -51.0250  -30.3890 C.3   355  VAL355      0.0290
     31  CG1       30.5100  -52.1320  -30.9350 C.3   355  VAL355      0.0023
     32  CG2       28.9700  -50.1790  -31.5000 C.3   355  VAL355      0.0023
     33  N         28.3610  -54.0350  -29.8900 N.am  356  GLN356     -0.1963
     34  CA        27.6900  -55.2580  -30.3640 C.3   356  GLN356      0.1733
     35  C         26.5030  -55.5750  -29.4680 C.2   356  GLN356      0.2616
     36  O         26.5720  -56.4080  -28.5640 O.2   356  GLN356     -0.2715
     37  CB        28.6390  -56.4660  -30.5250 C.3   356  GLN356      0.0408
     38  CG        29.2140  -57.1080  -29.2690 C.3   356  GLN356      0.0908
     39  CD        30.1030  -58.2980  -29.5980 C.2   356  GLN356      0.2608
     40  OE1       30.3120  -58.6290  -30.7660 O.2   356  GLN356     -0.2717
     41  NE2       30.6270  -58.9510  -28.5680 N.am  356  GLN356     -0.0878
     42  N         25.4110  -54.8600  -29.7190 N.am  357  HIS357     -0.1959
     43  CA        24.1430  -55.1970  -29.1040 C.3   357  HIS357      0.1787
     44  C         23.7650  -56.5730  -29.6020 C.2   357  HIS357      0.2620
     45  O         24.3500  -57.1010  -30.5510 O.2   357  HIS357     -0.2715
     46  CB        23.0190  -54.1510  -29.3580 C.3   357  HIS357      0.0785
     47  CG        22.9140  -53.6230  -30.7700 C.ar  357  HIS357      0.0821
     48  ND1       21.9250  -54.0240  -31.6460 N.ar  357  HIS357     -0.2267
     49  CD2       23.6140  -52.6580  -31.4180 C.ar  357  HIS357      0.1154
     50  CE1       22.0490  -53.3640  -32.7860 C.ar  357  HIS357      0.1986
     51  NE2       23.0670  -52.5280  -32.6740 N.ar  357  HIS357     -0.2212
     52  N         22.8090  -57.1680  -28.9190 N.am  358  GLU358     -0.1977
     53  CA        22.2160  -58.3910  -29.3890 C.3   358  GLU358      0.1602
     54  C         21.4400  -58.0630  -30.6610 C.2   358  GLU358      0.2287
     55  O         21.2390  -56.8990  -31.0010 O.2   358  GLU358     -0.2864
     56  CB        21.2670  -58.9350  -28.3320 C.3   358  GLU358      0.0415
     57  CG        21.4310  -60.3990  -28.0180 C.3   358  GLU358      0.1163
     58  CD        20.7900  -60.7300  -26.6870 C.2   358  GLU358      0.3649
     59  OE1       21.5010  -61.2390  -25.7920 O.co2 358  GLU358     -0.2457
     60  OE2       19.5860  -60.4380  -26.5240 O.co2 358  GLU358     -0.2457
     61  N         18.0570  -57.5830  -32.6160 N.3   360  ILE360     -0.1245
     62  CA        16.7700  -57.0530  -32.2130 C.3   360  ILE360      0.1561
     63  C         15.7430  -58.1710  -32.4040 C.2   360  ILE360      0.2260
     64  O         15.4010  -58.5470  -33.5390 O.2   360  ILE360     -0.2867
     65  CB        16.3950  -55.8040  -33.0200 C.3   360  ILE360      0.0252
     66  CG1       17.4730  -54.7080  -32.9150 C.3   360  ILE360      0.0019
     67  CG2       15.0240  -55.3030  -32.6220 C.3   360  ILE360      0.0019
     68  CD1       17.8940  -54.2880  -31.4960 C.3   360  ILE360      0.0001
     69  N         16.5440  -58.8160  -26.7060 N.3   400  THR400     -0.1218
     70  CA        16.5740  -57.3640  -26.8280 C.3   400  THR400      0.1862
     71  C         15.4530  -56.9060  -27.7340 C.2   400  THR400      0.2287
     72  O         15.2340  -57.4830  -28.7870 O.2   400  THR400     -0.2866
     73  CB        17.9100  -56.9380  -27.4430 C.3   400  THR400      0.1770
     74  OG1       18.9730  -57.4690  -26.6560 O.3   400  THR400     -0.2211
     75  CG2       18.0470  -55.4620  -27.4760 C.3   400  THR400      0.0375
     76  N         13.3860  -53.2100  -29.2670 N.3   402  ILE402     -0.1245
     77  CA        13.2150  -51.7940  -29.3980 C.3   402  ILE402      0.1561
     78  C         11.7650  -51.4870  -29.1040 C.2   402  ILE402      0.2260
     79  O         10.8690  -52.1960  -29.5970 O.2   402  ILE402     -0.2867
     80  CB        13.5320  -51.3080  -30.8150 C.3   402  ILE402      0.0252
     81  CG1       15.0170  -51.4500  -31.0700 C.3   402  ILE402      0.0019
     82  CG2       13.1100  -49.8700  -30.9580 C.3   402  ILE402      0.0019
     83  CD1       15.4420  -51.1420  -32.5140 C.3   402  ILE402      0.0001
     84  N         18.8260  -48.0340  -23.4950 N.3   423  ARG423     -0.1231
     85  CA        19.5300  -47.0200  -24.2860 C.3   423  ARG423      0.1694
     86  C         18.4650  -46.2140  -24.9130 C.2   423  ARG423      0.2592
     87  O         17.3790  -46.7210  -25.2010 O.2   423  ARG423     -0.2718
     88  CB        20.2980  -47.6570  -25.4310 C.3   423  ARG423      0.0321
     89  CG        21.3520  -48.6340  -25.0140 C.3   423  ARG423      0.0489
     90  CD        22.4050  -47.9950  -24.1310 C.3   423  ARG423      0.2205
     91  NE        23.0960  -46.8610  -24.7660 N.pl3 423  ARG423     -0.0865
     92  CZ        23.9770  -46.9440  -25.7780 C.cat 423  ARG423      0.5346
     93  NH1       24.5410  -45.8290  -26.2570 N.pl3 423  ARG423      0.1354
     94  NH2       24.2820  -48.1140  -26.3290 N.pl3 423  ARG423      0.1354
     95  N         18.7420  -44.9480  -25.1020 N.am  424  VAL424     -0.1966
     96  CA        17.8260  -44.0520  -25.8090 C.3   424  VAL424      0.1727
     97  C         18.3530  -43.9530  -27.2380 C.2   424  VAL424      0.2616
     98  O         19.5240  -43.6220  -27.4640 O.2   424  VAL424     -0.2715
     99  CB        17.7680  -42.6800  -25.1490 C.3   424  VAL424      0.0290
    100  CG1       16.7520  -41.7950  -25.8280 C.3   424  VAL424      0.0023
    101  CG2       17.3810  -42.8390  -23.6960 C.3   424  VAL424      0.0023
    102  N         17.5080  -44.2940  -28.2060 N.am  425  LEU425     -0.1977
    103  CA        17.9910  -44.4020  -29.5760 C.3   425  LEU425      0.1596
    104  C         17.8190  -43.0460  -30.2660 C.2   425  LEU425      0.2287
    105  O         18.8050  -42.4840  -30.7550 O.2   425  LEU425     -0.2864
    106  CB        17.2570  -45.5140  -30.3210 C.3   425  LEU425      0.0297
    107  CG        17.4340  -46.9530  -29.8600 C.3   425  LEU425      0.0022
    108  CD1       16.8450  -47.8810  -30.9200 C.3   425  LEU425      0.0001
    109  CD2       18.9000  -47.2680  -29.6090 C.3   425  LEU425      0.0001
    110  N         22.7540  -45.1840  -19.6930 N.3   457  TRP457     -0.1241
    111  CA        21.6820  -46.0780  -19.3770 C.3   457  TRP457      0.1605
    112  C         20.6380  -45.3380  -18.5750 C.2   457  TRP457      0.2264
    113  O         20.9540  -44.6740  -17.5750 O.2   457  TRP457     -0.2867
    114  CB        22.2010  -47.2450  -18.5840 C.3   457  TRP457      0.0550
    115  CG        23.1020  -48.1630  -19.3410 C.ar  457  TRP457      0.0003
    116  CD1       24.4650  -48.2490  -19.2260 C.ar  457  TRP457      0.0946
    117  CD2       22.7140  -49.1340  -20.3230 C.ar  457  TRP457      0.0152
    118  NE1       24.9350  -49.2260  -20.0720 N.ar  457  TRP457     -0.2442
    119  CE2       23.8850  -49.7760  -20.7610 C.ar  457  TRP457      0.0810
    120  CE3       21.4820  -49.5190  -20.8710 C.ar  457  TRP457      0.0012
    121  CZ2       23.8740  -50.8070  -21.7120 C.ar  457  TRP457      0.0191
    122  CZ3       21.4460  -50.5540  -21.8060 C.ar  457  TRP457      0.0001
    123  CH2       22.6540  -51.1820  -22.2300 C.ar  457  TRP457      0.0015
    124  N         12.3370  -43.7180  -29.1820 N.3   470  ARG470     -0.1245
    125  CA        12.7400  -45.1250  -29.3060 C.3   470  ARG470      0.1563
    126  C         13.8130  -45.4710  -28.2930 C.2   470  ARG470      0.2260
    127  O         14.7870  -44.7490  -28.1520 O.2   470  ARG470     -0.2867
    128  CB        13.2510  -45.4570  -30.7300 C.3   470  ARG470      0.0307
    129  CG        12.2170  -45.2420  -31.8280 C.3   470  ARG470      0.0489
    130  CD        12.5980  -45.9860  -33.1360 C.3   470  ARG470      0.2205
    131  NE        13.9480  -45.6090  -33.5180 N.pl3 470  ARG470     -0.0865
    132  CZ        14.8760  -46.4180  -33.9750 C.cat 470  ARG470      0.5346
    133  NH1       16.1020  -45.9490  -34.1990 N.pl3 470  ARG470      0.1354
    134  NH2       14.5920  -47.6850  -34.2160 N.pl3 470  ARG470      0.1354
    135  N         15.9260  -49.0700  -26.4070 N.3   472  ALA472     -0.1231
    136  CA        16.3040  -50.4680  -26.6020 C.3   472  ALA472      0.1694
    137  C         16.7050  -51.0650  -25.2750 C.2   472  ALA472      0.2592
    138  O         17.4820  -50.4530  -24.5260 O.2   472  ALA472     -0.2718
    139  CB        17.4720  -50.5930  -27.5880 C.3   472  ALA472      0.0304
    140  N         16.1910  -52.2580  -24.9770 N.am  473  ALA473     -0.1966
    141  CA        16.4980  -52.9240  -23.6950 C.3   473  ALA473      0.1728
    142  C         16.7160  -54.3920  -23.8950 C.2   473  ALA473      0.2616
    143  O         16.0570  -54.9800  -24.7270 O.2   473  ALA473     -0.2715
    144  CB        15.3590  -52.7240  -22.7090 C.3   473  ALA473      0.0334
    145  N         17.6010  -54.9660  -23.1100 N.am  474  THR474     -0.1951
    146  CA        17.7390  -56.4040  -23.0450 C.3   474  THR474      0.1897
    147  C         17.0300  -56.8790  -21.8020 C.2   474  THR474      0.2313
    148  O         17.3190  -56.4300  -20.7040 O.2   474  THR474     -0.2863
    149  CB        19.2160  -56.8450  -23.0060 C.3   474  THR474      0.1794
    150  OG1       19.8530  -56.3910  -24.2150 O.3   474  THR474     -0.2208
    151  CG2       19.3110  -58.4040  -22.9400 C.3   474  THR474      0.0378
@<TRIPOS>BOND
     1   134   132    1
     2   133   132    1
     3   132   131    2
     4    64    63    2
     5   131   130    1
     6   130   129    1
     7    65    66    1
     8    65    67    1
     9    65    62    1
    10    66    68    1
    11    50    51   ar
    12    50    48   ar
    13    51    49   ar
    14    61    62    1
    15    83    81    1
    16    63    62    1
    17   129   128    1
    18    48    47   ar
    19    32    30    1
    20    49    47   ar
    21    81    80    1
    22    55    54    2
    23    82    80    1
    24    31    30    1
    25   108   107    1
    26    80    77    1
    27    47    46    1
    28    40    39    2
    29   105   104    2
    30   128   125    1
    31    29    28    2
    32    54    53    1
    33    45    44    2
    34    37    34    1
    35    37    38    1
    36    30    27    1
    37    34    33    1
    38    34    35    1
    39   106   107    1
    40   106   103    1
    41   104   103    1
    42    28    33   am
    43    28    27    1
    44   107   109    1
    45    42    35   am
    46    42    43    1
    47    44    43    1
    48    44    52   am
    49    39    38    1
    50    39    41   am
    51    79    78    2
    52   103   102    1
    53    35    36    2
    54    27    26    1
    55    77    76    1
    56    77    78    1
    57    53    52    1
    58    53    56    1
    59    46    43    1
    60   125   124    1
    61   125   126    1
    62    72    71    2
    63    56    57    1
    64   126   127    2
    65   102    97   am
    66    26    22   am
    67    57    58    1
    68    71    70    1
    69   139   136    1
    70    75    73    1
    71    98    97    2
    72    73    70    1
    73    73    74    1
    74    97    96    1
    75    22    23    2
    76    22    21    1
    77    70    69    1
    78    58    60   ar
    79    58    59   ar
    80   136   135    1
    81   136   137    1
    82    25    24    1
    83    94    92    1
    84    93    92    1
    85    16    15    2
    86    21    24    1
    87    21    20    1
    88   100    99    1
    89    96    99    1
    90    96    95    1
    91    92    91    2
    92    10     8   ar
    93    10    11   ar
    94     8     6   ar
    95    88    89    1
    96    88    85    1
    97    12    11    1
    98    11     9   ar
    99   137   140   am
   100   137   138    2
   101    87    86    2
   102    15    20   am
   103    15    14    1
   104    99   101    1
   105     6     5    1
   106     6     7   ar
   107    95    86   am
   108     5     2    1
   109    89    90    1
   110     9     7   ar
   111   140   141    1
   112    86    85    1
   113    91    90    1
   114   143   142    2
   115    17    14    1
   116    17    18    1
   117    85    84    1
   118   150   149    1
   119    14    13    1
   120   142   141    1
   121   142   145   am
   122    13     3   am
   123    13    19    1
   124   141   144    1
   125     2     3    1
   126     2     1    1
   127     3     4    2
   128    19    18    1
   129   145   146    1
   130   146   149    1
   131   146   147    1
   132   149   151    1
   133   123   122   ar
   134   123   121   ar
   135   122   120   ar
   136   147   148    2
   137   121   119   ar
   138   120   117   ar
   139   119   117   ar
   140   119   118   ar
   141   117   115   ar
   142   118   116   ar
   143   110   111    1
   144   111   114    1
   145   111   112    1
   146   115   116   ar
   147   115   114    1
   148   112   113    2
