@<TRIPOS>MOLECULE
tmp/4yvpA01.pdb
 194 191 0 0 0
SMALL
GASTEIGER

@<TRIPOS>ATOM
      1  N        -44.5910   -4.1450   39.1960 N.3    19  TYR19      -0.1241
      2  CA       -45.2600   -3.0390   39.8470 C.3    19  TYR19       0.1605
      3  C        -44.2500   -2.1900   40.6140 C.2    19  TYR19       0.2264
      4  O        -43.3830   -2.7130   41.3040 O.2    19  TYR19      -0.2867
      5  CB       -46.3680   -3.4630   40.7980 C.3    19  TYR19       0.0534
      6  CG       -47.0180   -2.2460   41.4240 C.ar   19  TYR19      -0.0201
      7  CD1      -47.8040   -1.3730   40.6580 C.ar   19  TYR19      -0.0009
      8  CD2      -46.8070   -1.9210   42.7600 C.ar   19  TYR19      -0.0009
      9  CE1      -48.4020   -0.2430   41.2210 C.ar   19  TYR19       0.0417
     10  CE2      -47.4030   -0.7980   43.3300 C.ar   19  TYR19       0.0417
     11  CZ       -48.2010    0.0430   42.5550 C.ar   19  TYR19       0.1957
     12  OH       -48.7900    1.1590   43.1180 O.3    19  TYR19      -0.2866
     13  N        -54.2080   -3.0840   35.9420 N.3    49  LEU49      -0.1231
     14  CA       -54.0760   -2.2160   37.1010 C.3    49  LEU49       0.1693
     15  C        -52.7240   -1.4870   37.2500 C.2    49  LEU49       0.2592
     16  O        -52.6800   -0.3430   37.6630 O.2    49  LEU49      -0.2718
     17  CB       -54.3290   -3.0220   38.3680 C.3    49  LEU49       0.0284
     18  CG       -54.4100   -2.2110   39.6680 C.3    49  LEU49       0.0019
     19  CD1      -55.6690   -1.3620   39.7290 C.3    49  LEU49       0.0001
     20  CD2      -54.3730   -3.1210   40.8670 C.3    49  LEU49       0.0001
     21  N        -51.6200   -2.1390   36.9230 N.am   50  TYR50      -0.1962
     22  CA       -50.3090   -1.5570   37.1900 C.3    50  TYR50       0.1771
     23  C        -49.9980   -0.3940   36.2480 C.2    50  TYR50       0.2619
     24  O        -48.9840    0.2860   36.4220 O.2    50  TYR50      -0.2715
     25  CB       -49.2040   -2.6180   37.1170 C.3    50  TYR50       0.0574
     26  CG       -49.4260   -3.8270   38.0170 C.ar   50  TYR50      -0.0198
     27  CD1      -50.2260   -3.7480   39.1360 C.ar   50  TYR50      -0.0009
     28  CD2      -48.8130   -5.0370   37.7610 C.ar   50  TYR50      -0.0009
     29  CE1      -50.4380   -4.8410   39.9400 C.ar   50  TYR50       0.0417
     30  CE2      -49.0220   -6.1370   38.5820 C.ar   50  TYR50       0.0417
     31  CZ       -49.8450   -6.0200   39.6730 C.ar   50  TYR50       0.1957
     32  OH       -50.1170   -7.0530   40.5340 O.3    50  TYR50      -0.2866
     33  N        -50.8590   -0.1810   35.2480 N.am   51  ASN51      -0.1972
     34  CA       -50.7320    0.9410   34.3590 C.3    51  ASN51       0.1688
     35  C        -49.3210    1.0450   33.7290 C.2    51  ASN51       0.2292
     36  O        -48.7840    2.1380   33.5780 O.2    51  ASN51      -0.2864
     37  CB       -51.1100    2.2060   35.1300 C.3    51  ASN51       0.1181
     38  CG       -51.2220    3.4250   34.2370 C.2    51  ASN51       0.2629
     39  OD1      -51.4980    3.3290   33.0350 O.2    51  ASN51      -0.2716
     40  ND2      -50.9790    4.5860   34.8210 N.am   51  ASN51      -0.0877
     41  N        -58.7790   -6.8930   35.7110 N.3    81  TRP81      -0.1241
     42  CA       -59.1720   -6.0440   36.8170 C.3    81  TRP81       0.1605
     43  C        -60.7090   -6.1480   37.0740 C.2    81  TRP81       0.2264
     44  O        -61.4940   -6.5710   36.2040 O.2    81  TRP81      -0.2867
     45  CB       -58.6540   -4.5980   36.6270 C.3    81  TRP81       0.0550
     46  CG       -58.9070   -3.7420   37.8430 C.ar   81  TRP81       0.0003
     47  CD1      -59.6180   -2.5830   37.8910 C.ar   81  TRP81       0.0946
     48  CD2      -58.5350   -4.0320   39.1990 C.ar   81  TRP81       0.0152
     49  NE1      -59.7020   -2.1210   39.1770 N.ar   81  TRP81      -0.2442
     50  CE2      -59.0650   -2.9990   40.0070 C.ar   81  TRP81       0.0810
     51  CE3      -57.8310   -5.0780   39.8130 C.ar   81  TRP81       0.0012
     52  CZ2      -58.8890   -2.9630   41.4020 C.ar   81  TRP81       0.0191
     53  CZ3      -57.6480   -5.0420   41.1970 C.ar   81  TRP81       0.0001
     54  CH2      -58.1760   -3.9920   41.9780 C.ar   81  TRP81       0.0015
     55  N        -57.5990  -11.1100   38.5960 N.3   112  HIS112     -0.1226
     56  CA       -56.7770  -10.3550   39.5300 C.3   112  HIS112      0.1752
     57  C        -57.2830  -10.4280   40.9650 C.2   112  HIS112      0.2596
     58  O        -56.5190  -10.7140   41.8780 O.2   112  HIS112     -0.2718
     59  CB       -56.7290   -8.8900   39.0860 C.3   112  HIS112      0.0759
     60  CG       -55.5790   -8.1240   39.6450 C.ar  112  HIS112      0.0818
     61  ND1      -55.0710   -7.0010   39.0270 N.ar  112  HIS112     -0.2268
     62  CD2      -54.8040   -8.3340   40.7350 C.ar  112  HIS112      0.1154
     63  CE1      -54.0370   -6.5520   39.7140 C.ar  112  HIS112      0.1986
     64  NE2      -53.8500   -7.3490   40.7490 N.ar  112  HIS112     -0.2212
     65  N        -58.5600  -10.1300   41.1680 N.am  113  PHE113     -0.1976
     66  CA       -59.1460  -10.1130   42.5160 C.3   113  PHE113      0.1639
     67  C        -60.6110  -10.5430   42.4600 C.2   113  PHE113      0.2290
     68  O        -61.3020  -10.1940   41.4880 O.2   113  PHE113     -0.2864
     69  CB       -59.0260   -8.7120   43.1040 C.3   113  PHE113      0.0560
     70  CG       -59.1430   -8.6640   44.6030 C.ar  113  PHE113     -0.0200
     71  CD1      -58.1710   -9.2500   45.3950 C.ar  113  PHE113     -0.0042
     72  CD2      -60.2020   -8.0110   45.2200 C.ar  113  PHE113     -0.0042
     73  CE1      -58.2740   -9.2250   46.7640 C.ar  113  PHE113     -0.0003
     74  CE2      -60.2990   -7.9860   46.5990 C.ar  113  PHE113     -0.0003
     75  CZ       -59.3310   -8.5810   47.3690 C.ar  113  PHE113     -0.0000
     76  N        -63.1860    4.3870   35.9350 N.3   122  GLU122     -0.1231
     77  CA       -62.5970    4.4420   37.2690 C.3   122  GLU122      0.1699
     78  C        -62.0690    3.0810   37.6920 C.2   122  GLU122      0.2592
     79  O        -62.7350    2.0560   37.5290 O.2   122  GLU122     -0.2718
     80  CB       -63.6190    4.9010   38.3020 C.3   122  GLU122      0.0402
     81  CG       -64.0970    6.3450   38.1280 C.3   122  GLU122      0.1161
     82  CD       -63.0590    7.3960   38.5130 C.2   122  GLU122      0.3649
     83  OE1      -62.0820    7.0550   39.2250 O.co2 122  GLU122     -0.2457
     84  OE2      -63.2310    8.5710   38.1050 O.co2 122  GLU122     -0.2457
     85  N        -60.8740    3.0900   38.2640 N.am  123  VAL123     -0.1966
     86  CA       -60.1930    1.8760   38.7060 C.3   123  VAL123      0.1727
     87  C        -60.9200    1.2620   39.9160 C.2   123  VAL123      0.2616
     88  O        -61.3170    0.1010   39.8740 O.2   123  VAL123     -0.2715
     89  CB       -58.7060    2.1960   39.0400 C.3   123  VAL123      0.0290
     90  CG1      -58.0210    1.0190   39.7280 C.3   123  VAL123      0.0023
     91  CG2      -57.9530    2.6100   37.7750 C.3   123  VAL123      0.0023
     92  N        -61.0620    2.0650   40.9750 N.am  124  ILE124     -0.1977
     93  CA       -61.7930    1.7230   42.2050 C.3   124  ILE124      0.1596
     94  C        -62.8700    2.8090   42.4180 C.2   124  ILE124      0.2287
     95  O        -62.6400    3.7750   43.1550 O.2   124  ILE124     -0.2864
     96  CB       -60.8510    1.6310   43.4460 C.3   124  ILE124      0.0276
     97  CG1      -59.8100    0.5310   43.2600 C.3   124  ILE124      0.0022
     98  CG2      -61.6200    1.3020   44.7250 C.3   124  ILE124      0.0022
     99  CD1      -58.5220    0.7740   44.0150 C.3   124  ILE124      0.0001
    100  N        -65.8390    4.7970   43.9140 N.3   126  LYS126     -0.1245
    101  CA       -66.5090    4.9130   45.2240 C.3   126  LYS126      0.1561
    102  C        -67.5550    6.0190   45.1410 C.2   126  LYS126      0.2260
    103  O        -67.5110    6.8580   44.2380 O.2   126  LYS126     -0.2867
    104  CB       -65.5140    5.2350   46.3560 C.3   126  LYS126      0.0271
    105  CG       -64.2100    4.4340   46.3580 C.3   126  LYS126      0.0035
    106  CD       -63.2760    4.8540   47.5030 C.3   126  LYS126      0.0206
    107  CE       -61.7920    4.6390   47.1760 C.3   126  LYS126      0.1093
    108  NZ       -61.2450    5.7010   46.2800 N.3   126  LYS126     -0.1314
    109  N        -55.6220  -14.2260   44.4140 N.3   162  ASN162     -0.1240
    110  CA       -56.3280  -13.8150   45.6520 C.3   162  ASN162      0.1653
    111  C        -57.6460  -14.5480   45.8800 C.2   162  ASN162      0.2266
    112  O        -58.5620  -14.0070   46.4590 O.2   162  ASN162     -0.2867
    113  CB       -56.5440  -12.2800   45.7180 C.3   162  ASN162      0.1155
    114  CG       -55.2500  -11.4880   45.5070 C.2   162  ASN162      0.2627
    115  OD1      -55.1210  -10.7580   44.5320 O.2   162  ASN162     -0.2716
    116  ND2      -54.2980  -11.6340   46.4110 N.am  162  ASN162     -0.0877
    117  N        -46.5600  -13.8240   45.5820 N.3   211  TYR211     -0.1227
    118  CA       -46.2350  -12.3890   45.4340 C.3   211  TYR211      0.1736
    119  C        -45.9250  -11.7430   46.7800 C.2   211  TYR211      0.2596
    120  O        -46.2420  -12.2930   47.8310 O.2   211  TYR211     -0.2718
    121  CB       -47.3290  -11.6210   44.6740 C.3   211  TYR211      0.0548
    122  CG       -48.6340  -11.3110   45.3930 C.ar  211  TYR211     -0.0200
    123  CD1      -48.6770  -10.4820   46.5220 C.ar  211  TYR211     -0.0009
    124  CD2      -49.8440  -11.7950   44.9070 C.ar  211  TYR211     -0.0009
    125  CE1      -49.8760  -10.1750   47.1500 C.ar  211  TYR211      0.0417
    126  CE2      -51.0440  -11.4860   45.5320 C.ar  211  TYR211      0.0417
    127  CZ       -51.0500  -10.6740   46.6490 C.ar  211  TYR211      0.1957
    128  OH       -52.2290  -10.3520   47.2630 O.3   211  TYR211     -0.2866
    129  N        -45.3480  -10.5450   46.7270 N.am  212  SER212     -0.1952
    130  CA       -44.7860   -9.8980   47.9120 C.3   212  SER212      0.1924
    131  C        -43.8760  -10.8970   48.6580 C.2   212  SER212      0.2314
    132  O        -43.8720  -10.9560   49.8900 O.2   212  SER212     -0.2863
    133  CB       -45.8740   -9.2710   48.8060 C.3   212  SER212      0.2116
    134  OG       -46.6360   -8.3240   48.0560 O.3   212  SER212     -0.2180
    135  N        -43.6670   -4.0700   48.5040 N.3   217  HIS217     -0.1241
    136  CA       -43.3430   -2.6520   48.3100 C.3   217  HIS217      0.1621
    137  C        -43.5450   -1.7300   49.5160 C.2   217  HIS217      0.2264
    138  O        -42.9910   -0.6440   49.5500 O.2   217  HIS217     -0.2867
    139  CB       -44.1900   -2.1030   47.1490 C.3   217  HIS217      0.0745
    140  CG       -45.6240   -2.5780   47.1550 C.ar  217  HIS217      0.0817
    141  ND1      -46.4790   -2.3890   48.2230 N.ar  217  HIS217     -0.2268
    142  CD2      -46.3330   -3.2600   46.2260 C.ar  217  HIS217      0.1154
    143  CE1      -47.6470   -2.9240   47.9500 C.ar  217  HIS217      0.1986
    144  NE2      -47.5840   -3.4640   46.7470 N.ar  217  HIS217     -0.2212
    145  N        -45.8950    0.1970   50.1560 N.3   219  GLU219     -0.1245
    146  CA       -46.6140    1.3820   49.7660 C.3   219  GLU219      0.1567
    147  C        -47.8490    1.5980   50.6250 C.2   219  GLU219      0.2260
    148  O        -48.6850    0.7120   50.7210 O.2   219  GLU219     -0.2867
    149  CB       -47.0300    1.2820   48.2950 C.3   219  GLU219      0.0388
    150  CG       -47.9370    2.4200   47.8610 C.3   219  GLU219      0.1160
    151  CD       -48.3440    2.3740   46.4110 C.2   219  GLU219      0.3649
    152  OE1      -48.6520    3.4680   45.9090 O.co2 219  GLU219     -0.2457
    153  OE2      -48.3670    1.2850   45.7920 O.co2 219  GLU219     -0.2457
    154  N        -51.6700    0.7690   51.1840 N.3   222  TRP222     -0.1241
    155  CA       -51.8420   -0.6340   50.9160 C.3   222  TRP222      0.1605
    156  C        -51.1810   -1.4710   51.9820 C.2   222  TRP222      0.2264
    157  O        -51.5910   -2.5920   52.1820 O.2   222  TRP222     -0.2867
    158  CB       -51.2760   -0.9900   49.5310 C.3   222  TRP222      0.0550
    159  CG       -51.9350   -0.1530   48.4780 C.ar  222  TRP222      0.0003
    160  CD1      -51.4340    0.9600   47.8800 C.ar  222  TRP222      0.0946
    161  CD2      -53.2530   -0.3220   47.9730 C.ar  222  TRP222      0.0152
    162  NE1      -52.3360    1.4700   47.0020 N.ar  222  TRP222     -0.2442
    163  CE2      -53.4700    0.7070   47.0380 C.ar  222  TRP222      0.0810
    164  CE3      -54.2620   -1.2650   48.2020 C.ar  222  TRP222      0.0012
    165  CZ2      -54.6500    0.8310   46.3270 C.ar  222  TRP222      0.0191
    166  CZ3      -55.4330   -1.1520   47.4990 C.ar  222  TRP222      0.0001
    167  CH2      -55.6230   -0.1080   46.5620 C.ar  222  TRP222      0.0015
    168  N        -50.7740   -7.3680   52.4660 N.3   301  LEU301     -0.1245
    169  CA       -51.8270   -6.8690   51.5990 C.3   301  LEU301      0.1561
    170  C        -53.1750   -7.3860   52.0080 C.2   301  LEU301      0.2260
    171  O        -53.6880   -8.3470   51.4250 O.2   301  LEU301     -0.2867
    172  CB       -51.5400   -7.1970   50.1380 C.3   301  LEU301      0.0270
    173  CG       -50.5700   -6.1850   49.5360 C.3   301  LEU301      0.0019
    174  CD1      -50.0370   -6.7340   48.2380 C.3   301  LEU301      0.0001
    175  CD2      -51.2140   -4.8190   49.3080 C.3   301  LEU301      0.0001
    176  N        -55.9280   -5.5150   51.8850 N.3   303  LEU303     -0.1245
    177  CA       -56.9150   -5.0250   50.9290 C.3   303  LEU303      0.1561
    178  C        -58.2870   -4.7650   51.5670 C.2   303  LEU303      0.2260
    179  O        -59.3280   -5.0460   50.9660 O.2   303  LEU303     -0.2867
    180  CB       -56.9960   -5.9760   49.7440 C.3   303  LEU303      0.0270
    181  CG       -55.6320   -6.1790   49.0900 C.3   303  LEU303      0.0019
    182  CD1      -55.6670   -7.3310   48.0970 C.3   303  LEU303      0.0001
    183  CD2      -55.2030   -4.8780   48.4230 C.3   303  LEU303      0.0001
    184  N        -61.6550   -3.5550   50.1690 N.3   306  PHE306     -0.1241
    185  CA       -62.5360   -4.5150   49.5160 C.3   306  PHE306      0.1605
    186  C        -63.3920   -5.3890   50.4150 C.2   306  PHE306      0.2264
    187  O        -64.2190   -6.1390   49.9090 O.2   306  PHE306     -0.2867
    188  CB       -61.7270   -5.3810   48.5720 C.3   306  PHE306      0.0534
    189  CG       -61.2230   -4.6330   47.3930 C.ar  306  PHE306     -0.0203
    190  CD1      -62.0900   -4.2970   46.3750 C.ar  306  PHE306     -0.0042
    191  CD2      -59.8860   -4.2360   47.3080 C.ar  306  PHE306     -0.0042
    192  CE1      -61.6460   -3.5910   45.2700 C.ar  306  PHE306     -0.0003
    193  CE2      -59.4300   -3.5320   46.2020 C.ar  306  PHE306     -0.0003
    194  CZ       -60.3120   -3.2100   45.1840 C.ar  306  PHE306     -0.0000
@<TRIPOS>BOND
     1    39    38    2
     2    36    35    2
     3    35    34    1
     4    38    40   am
     5    38    37    1
     6    34    37    1
     7    34    33    1
     8    33    23   am
     9    41    42    1
    10    76    77    1
    11    13    14    1
    12    44    43    2
    13    23    24    2
    14    23    22    1
    15    45    42    1
    16    45    46    1
    17    42    43    1
    18    21    22    1
    19    21    15   am
    20    14    15    1
    21    14    17    1
    22    25    22    1
    23    25    26    1
    24    15    16    2
    25    77    78    1
    26    77    80    1
    27    79    78    2
    28    78    85   am
    29    28    26   ar
    30    28    30   ar
    31    91    89    1
    32    46    47   ar
    33    46    48   ar
    34    47    49   ar
    35    26    27   ar
    36    84    82   ar
    37    81    80    1
    38    81    82    1
    39    85    86    1
    40    17    18    1
    41    82    83   ar
    42    30    31   ar
    43    55    56    1
    44    86    89    1
    45    86    87    1
    46    61    60   ar
    47    61    63   ar
    48    89    90    1
    49    59    56    1
    50    59    60    1
    51    27    29   ar
    52    49    50   ar
    53     1     2    1
    54    48    51   ar
    55    48    50   ar
    56    56    57    1
    57    60    62   ar
    58    18    19    1
    59    18    20    1
    60    31    29   ar
    61    31    32    1
    62    63    64   ar
    63    51    53   ar
    64     2     3    1
    65     2     5    1
    66    88    87    2
    67    87    92   am
    68    50    52   ar
    69     3     4    2
    70     7     9   ar
    71     7     6   ar
    72    62    64   ar
    73     5     6    1
    74    57    65   am
    75    57    58    2
    76    92    93    1
    77    65    66    1
    78    53    54   ar
    79     9    11   ar
    80    52    54   ar
    81     6     8   ar
    82    68    67    2
    83    93    94    1
    84    93    96    1
    85    94    95    2
    86    67    66    1
    87    66    69    1
    88    11    12    1
    89    11    10   ar
    90     8    10   ar
    91    69    70    1
    92    97    96    1
    93    97    99    1
    94    96    98    1
    95   100   101    1
    96   103   102    2
    97   109   110    1
    98   115   114    2
    99    70    72   ar
   100    70    71   ar
   101   121   122    1
   102   121   118    1
   103   124   122   ar
   104   124   126   ar
   105   102   101    1
   106   194   192   ar
   107   194   193   ar
   108    72    74   ar
   109   101   104    1
   110   192   190   ar
   111   122   123   ar
   112    71    73   ar
   113   118   117    1
   114   118   119    1
   115   114   113    1
   116   114   116   am
   117   126   127   ar
   118   110   113    1
   119   110   111    1
   120   153   151   ar
   121   111   112    2
   122   152   151   ar
   123   193   191   ar
   124   142   144   ar
   125   142   140   ar
   126   108   107    1
   127   165   167   ar
   128   165   163   ar
   129   104   105    1
   130   105   106    1
   131   190   189   ar
   132   151   150    1
   133   123   125   ar
   134   167   166   ar
   135    74    75   ar
   136   127   125   ar
   137   127   128    1
   138   129   119   am
   139   129   130    1
   140   144   143   ar
   141    73    75   ar
   142   119   120    2
   143   162   163   ar
   144   162   160   ar
   145   163   161   ar
   146   139   140    1
   147   139   136    1
   148   140   141   ar
   149   107   106    1
   150   191   189   ar
   151   189   188    1
   152   166   164   ar
   153   150   149    1
   154   160   159   ar
   155   130   131    1
   156   130   133    1
   157   143   141   ar
   158   161   164   ar
   159   161   159   ar
   160   134   133    1
   161   182   181    1
   162   174   173    1
   163   149   146    1
   164   136   135    1
   165   136   137    1
   166   183   181    1
   167   159   158    1
   168   188   185    1
   169   131   132    2
   170   181   180    1
   171   175   173    1
   172   185   184    1
   173   185   186    1
   174   137   138    2
   175   158   155    1
   176   173   172    1
   177   180   177    1
   178   146   145    1
   179   146   147    1
   180   187   186    2
   181   172   169    1
   182   147   148    2
   183   155   154    1
   184   155   156    1
   185   177   178    1
   186   177   176    1
   187   179   178    2
   188   171   170    2
   189   169   170    1
   190   169   168    1
   191   156   157    2
