@<TRIPOS>MOLECULE
tmp/4yvvA01.pdb
 161 159 0 0 0
SMALL
GASTEIGER

@<TRIPOS>ATOM
      1  N         17.7600   10.8270   18.2730 N.3    19  TYR19      -0.1241
      2  CA        19.1840   11.1410   18.2140 C.3    19  TYR19       0.1605
      3  C         19.9900    9.8870   18.3830 C.2    19  TYR19       0.2264
      4  O         19.6860    9.0380   19.2000 O.2    19  TYR19      -0.2867
      5  CB        19.6330   12.1870   19.2310 C.3    19  TYR19       0.0534
      6  CG        21.1080   12.4240   19.1020 C.ar   19  TYR19      -0.0201
      7  CD1       21.6240   13.1500   18.0250 C.ar   19  TYR19      -0.0009
      8  CD2       22.0150   11.8500   20.0110 C.ar   19  TYR19      -0.0009
      9  CE1       22.9870   13.3280   17.8800 C.ar   19  TYR19       0.0417
     10  CE2       23.3950   12.0090   19.8550 C.ar   19  TYR19       0.0417
     11  CZ        23.8610   12.7460   18.7920 C.ar   19  TYR19       0.1957
     12  OH        25.2070   12.9280   18.6510 O.3    19  TYR19      -0.2866
     13  N         26.9970   10.2330   15.7720 N.3    22  PRO22      -0.2116
     14  CA        27.4740   10.1680   14.3680 C.3    22  PRO22       0.1372
     15  C         28.1230    8.8730   13.9000 C.2    22  PRO22       0.2244
     16  O         28.2440    8.6790   12.7030 O.2    22  PRO22      -0.2868
     17  CB        28.4960   11.2980   14.2520 C.3    22  PRO22       0.0268
     18  CG        28.7500   11.8000   15.6220 C.3    22  PRO22       0.0207
     19  CD        27.7190   11.2480   16.5660 C.3    22  PRO22       0.0892
     20  N         19.9420   19.8170   14.8350 N.3    49  LEU49      -0.1231
     21  CA        21.2070   19.3550   15.4060 C.3    49  LEU49       0.1693
     22  C         21.4730   17.9110   15.1220 C.2    49  LEU49       0.2592
     23  O         22.6200   17.5320   14.9670 O.2    49  LEU49      -0.2718
     24  CB        21.2450   19.5770   16.9240 C.3    49  LEU49       0.0284
     25  CG        22.5550   19.2750   17.6680 C.3    49  LEU49       0.0019
     26  CD1       23.7400   20.1650   17.2460 C.3    49  LEU49       0.0001
     27  CD2       22.3220   19.3760   19.1730 C.3    49  LEU49       0.0001
     28  N         20.4220   17.1030   15.0330 N.am   50  TYR50      -0.1976
     29  CA        20.5770   15.6500   15.0550 C.3    50  TYR50       0.1639
     30  C         21.0490   15.0450   13.7150 C.2    50  TYR50       0.2290
     31  O         21.3970   13.8920   13.6540 O.2    50  TYR50      -0.2864
     32  CB        19.2660   14.9930   15.5100 C.3    50  TYR50       0.0560
     33  CG        18.7650   15.3770   16.8980 C.ar   50  TYR50      -0.0198
     34  CD1       19.5650   16.0770   17.8000 C.ar   50  TYR50      -0.0009
     35  CD2       17.4910   14.9700   17.3380 C.ar   50  TYR50      -0.0009
     36  CE1       19.1080   16.4120   19.0430 C.ar   50  TYR50       0.0417
     37  CE2       17.0120   15.3290   18.5860 C.ar   50  TYR50       0.0417
     38  CZ        17.8500   16.0490   19.4350 C.ar   50  TYR50       0.1957
     39  OH        17.4500   16.4250   20.6900 O.3    50  TYR50      -0.2866
     40  N         18.1320   25.4310   16.0510 N.3    81  TRP81      -0.1241
     41  CA        19.4420   25.3270   16.6810 C.3    81  TRP81       0.1605
     42  C         19.9210   26.7830   17.0150 C.2    81  TRP81       0.2264
     43  O         19.4820   27.7580   16.4330 O.2    81  TRP81      -0.2867
     44  CB        20.4370   24.4550   15.8120 C.3    81  TRP81       0.0550
     45  CG        21.7740   24.3700   16.4430 C.ar   81  TRP81       0.0003
     46  CD1       22.9410   24.8470   15.9480 C.ar   81  TRP81       0.0946
     47  CD2       22.0640   23.8910   17.7590 C.ar   81  TRP81       0.0152
     48  NE1       23.9530   24.6530   16.8520 N.ar   81  TRP81      -0.2442
     49  CE2       23.4330   24.1070   17.9910 C.ar   81  TRP81       0.0810
     50  CE3       21.2970   23.3160   18.7710 C.ar   81  TRP81       0.0012
     51  CZ2       24.0580   23.7520   19.1910 C.ar   81  TRP81       0.0191
     52  CZ3       21.9310   22.9460   19.9750 C.ar   81  TRP81       0.0001
     53  CH2       23.2830   23.1750   20.1700 C.ar   81  TRP81       0.0015
     54  N         15.6780   25.0880   20.7020 N.3   112  HIS112     -0.1226
     55  CA        16.4360   23.9810   21.2790 C.3   112  HIS112      0.1752
     56  C         17.0690   24.3410   22.6700 C.2   112  HIS112      0.2596
     57  O         17.1300   23.5070   23.5630 O.2   112  HIS112     -0.2718
     58  CB        17.5510   23.5530   20.2910 C.3   112  HIS112      0.0759
     59  CG        18.0070   22.1350   20.4240 C.ar  112  HIS112      0.0818
     60  ND1       18.3210   21.3620   19.3230 N.ar  112  HIS112     -0.2268
     61  CD2       18.2350   21.3580   21.5090 C.ar  112  HIS112      0.1154
     62  CE1       18.7050   20.1670   19.7260 C.ar  112  HIS112      0.1986
     63  NE2       18.6750   20.1410   21.0480 N.ar  112  HIS112     -0.2212
     64  N         17.5350   25.5730   22.8030 N.am  113  SER113     -0.1952
     65  CA        18.3740   26.0050   23.8910 C.3   113  SER113      0.1924
     66  C         18.3720   27.5500   23.9720 C.2   113  SER113      0.2314
     67  O         18.2910   28.2460   22.9480 O.2   113  SER113     -0.2863
     68  CB        19.8050   25.4980   23.6630 C.3   113  SER113      0.2116
     69  OG        20.7340   26.1660   24.4830 O.3   113  SER113     -0.2180
     70  N         20.8760   29.2150   24.8640 N.3   115  MET115     -0.1245
     71  CA        22.2880   29.5750   24.6690 C.3   115  MET115      0.1570
     72  C         22.7100   29.8810   23.2170 C.2   115  MET115      0.2261
     73  O         23.1970   29.0120   22.5080 O.2   115  MET115     -0.2867
     74  CB        23.1600   28.4430   25.2480 C.3   115  MET115      0.0387
     75  CG        23.0350   28.3300   26.7640 C.3   115  MET115      0.0595
     76  SD        24.0760   27.0500   27.4960 S.3   115  MET115     -0.1393
     77  CE        23.2330   25.5920   26.8680 C.3   115  MET115      0.0692
     78  N         27.6020   24.3340   13.2850 N.3   123  LEU123     -0.1245
     79  CA        26.7750   23.9850   14.4340 C.3   123  LEU123      0.1561
     80  C         27.5040   24.4280   15.6910 C.2   123  LEU123      0.2260
     81  O         26.8630   24.9210   16.6110 O.2   123  LEU123     -0.2867
     82  CB        26.4530   22.4800   14.4910 C.3   123  LEU123      0.0270
     83  CG        25.6000   21.9570   13.3210 C.3   123  LEU123      0.0019
     84  CD1       25.3710   20.4800   13.5590 C.3   123  LEU123      0.0001
     85  CD2       24.2740   22.6780   13.0930 C.3   123  LEU123      0.0001
     86  N         15.3150   23.3890   27.3370 N.3   162  ASN162     -0.1240
     87  CA        16.4260   23.8120   28.2160 C.3   162  ASN162      0.1653
     88  C         16.2760   25.2130   28.7860 C.2   162  ASN162      0.2266
     89  O         17.2590   25.8350   29.0880 O.2   162  ASN162     -0.2867
     90  CB        17.7720   23.5950   27.5150 C.3   162  ASN162      0.1155
     91  CG        17.9730   22.1270   27.1280 C.2   162  ASN162      0.2627
     92  OD1       18.0160   21.2670   28.0230 O.2   162  ASN162     -0.2716
     93  ND2       18.0340   21.8230   25.8280 N.am  162  ASN162     -0.0877
     94  N         13.4590   14.6990   28.5970 N.3   211  TYR211     -0.1241
     95  CA        14.4770   13.9740   27.8030 C.3   211  TYR211      0.1605
     96  C         15.5030   13.3590   28.7420 C.2   211  TYR211      0.2264
     97  O         15.5330   13.6900   29.9320 O.2   211  TYR211     -0.2867
     98  CB        15.1140   14.8220   26.7030 C.3   211  TYR211      0.0534
     99  CG        16.0950   15.9020   27.1450 C.ar  211  TYR211     -0.0201
    100  CD1       17.3920   15.5780   27.5250 C.ar  211  TYR211     -0.0009
    101  CD2       15.7410   17.2560   27.0990 C.ar  211  TYR211     -0.0009
    102  CE1       18.2930   16.5460   27.8900 C.ar  211  TYR211      0.0417
    103  CE2       16.6420   18.2480   27.4570 C.ar  211  TYR211      0.0417
    104  CZ        17.9270   17.8840   27.8650 C.ar  211  TYR211      0.1957
    105  OH        18.8560   18.8390   28.2280 O.3   211  TYR211     -0.2866
    106  N         22.1480    8.5490   26.9260 N.3   217  GLN217     -0.1245
    107  CA        22.9390    7.5840   26.2000 C.3   217  GLN217      0.1566
    108  C         24.3940    7.5130   26.6830 C.2   217  GLN217      0.2260
    109  O         25.1780    6.7670   26.1360 O.2   217  GLN217     -0.2867
    110  CB        22.9050    7.9480   24.7020 C.3   217  GLN217      0.0367
    111  CG        21.4690    7.9580   24.1310 C.3   217  GLN217      0.0905
    112  CD        21.4180    8.1010   22.6260 C.2   217  GLN217      0.2608
    113  OE1       22.1420    7.4290   21.8880 O.2   217  GLN217     -0.2717
    114  NE2       20.5570    9.0170   22.1530 N.am  217  GLN217     -0.0878
    115  N         31.6370   11.9920   25.2780 N.3   221  ARG221     -0.1231
    116  CA        31.9560   13.3860   25.0280 C.3   221  ARG221      0.1694
    117  C         31.1560   14.4230   25.8520 C.2   221  ARG221      0.2592
    118  O         31.5580   15.5860   25.9030 O.2   221  ARG221     -0.2718
    119  CB        31.7810   13.6820   23.5420 C.3   221  ARG221      0.0321
    120  CG        32.5310   12.7100   22.6280 C.3   221  ARG221      0.0489
    121  CD        32.2970   12.9920   21.1490 C.3   221  ARG221      0.2205
    122  NE        30.9430   12.6210   20.7050 N.pl3 221  ARG221     -0.0865
    123  CZ        29.9920   13.4450   20.2270 C.cat 221  ARG221      0.5346
    124  NH1       28.7920   12.9470   19.8770 N.pl3 221  ARG221      0.1354
    125  NH2       30.2010   14.7530   20.0800 N.pl3 221  ARG221      0.1354
    126  N         30.0120   14.0320   26.4360 N.am  222  TRP222     -0.1976
    127  CA        29.1830   14.9420   27.2880 C.3   222  TRP222      0.1640
    128  C         28.8260   14.4100   28.6720 C.2   222  TRP222      0.2290
    129  O         28.3080   15.1720   29.5050 O.2   222  TRP222     -0.2864
    130  CB        27.8430   15.3260   26.6170 C.3   222  TRP222      0.0576
    131  CG        27.8840   15.3620   25.1470 C.ar  222  TRP222      0.0006
    132  CD1       27.5080   14.3620   24.2870 C.ar  222  TRP222      0.0946
    133  CD2       28.3450   16.4520   24.3340 C.ar  222  TRP222      0.0152
    134  NE1       27.7140   14.7660   22.9840 N.ar  222  TRP222     -0.2442
    135  CE2       28.2290   16.0440   22.9880 C.ar  222  TRP222      0.0810
    136  CE3       28.8490   17.7430   24.6140 C.ar  222  TRP222      0.0012
    137  CZ2       28.6160   16.8820   21.9160 C.ar  222  TRP222      0.0191
    138  CZ3       29.2160   18.5830   23.5360 C.ar  222  TRP222      0.0001
    139  CH2       29.0870   18.1470   22.2080 C.ar  222  TRP222      0.0015
    140  N         24.2520   15.7310   31.1520 N.3   301  PHE301     -0.1241
    141  CA        24.9470   16.6690   30.2250 C.3   301  PHE301      0.1605
    142  C         25.9030   17.6810   30.8740 C.2   301  PHE301      0.2264
    143  O         25.5320   18.3560   31.8240 O.2   301  PHE301     -0.2867
    144  CB        23.9170   17.3610   29.3100 C.3   301  PHE301      0.0534
    145  CG        23.3410   16.4140   28.3210 C.ar  301  PHE301     -0.0203
    146  CD1       22.3660   15.4680   28.7060 C.ar  301  PHE301     -0.0042
    147  CD2       23.8550   16.3520   27.0370 C.ar  301  PHE301     -0.0042
    148  CE1       21.8780   14.5250   27.8040 C.ar  301  PHE301     -0.0003
    149  CE2       23.3620   15.4060   26.1370 C.ar  301  PHE301     -0.0003
    150  CZ        22.3690   14.4970   26.5060 C.ar  301  PHE301     -0.0000
    151  N         29.8990   25.5910   28.0380 N.3   306  PHE306     -0.1241
    152  CA        28.4890   26.0240   28.2160 C.3   306  PHE306      0.1605
    153  C         28.0510   26.5460   29.6120 C.2   306  PHE306      0.2264
    154  O         27.0690   27.2720   29.6940 O.2   306  PHE306     -0.2867
    155  CB        27.5430   24.9020   27.7290 C.3   306  PHE306      0.0534
    156  CG        27.3000   24.9050   26.2280 C.ar  306  PHE306     -0.0203
    157  CD1       28.2900   25.2970   25.3170 C.ar  306  PHE306     -0.0042
    158  CD2       26.0650   24.5100   25.7180 C.ar  306  PHE306     -0.0042
    159  CE1       28.0370   25.3110   23.9500 C.ar  306  PHE306     -0.0003
    160  CE2       25.8020   24.5230   24.3470 C.ar  306  PHE306     -0.0003
    161  CZ        26.7920   24.9190   23.4630 C.ar  306  PHE306     -0.0000
@<TRIPOS>BOND
     1    16    15    2
     2    85    83    1
     3    78    79    1
     4    83    84    1
     5    83    82    1
     6    31    30    2
     7    30    29    1
     8    15    14    1
     9    17    14    1
    10    17    18    1
    11    14    13    1
    12    79    82    1
    13    79    80    1
    14    20    21    1
    15    23    22    2
    16    28    29    1
    17    28    22   am
    18    29    32    1
    19    22    21    1
    20    21    24    1
    21    32    33    1
    22    18    19    1
    23    80    81    2
    24    13    19    1
    25    44    45    1
    26    44    41    1
    27    46    45   ar
    28    46    48   ar
    29    40    41    1
    30    43    42    2
    31    45    47   ar
    32    41    42    1
    33    48    49   ar
    34    33    35   ar
    35    33    34   ar
    36    24    25    1
    37    26    25    1
    38    35    37   ar
    39    25    27    1
    40    47    49   ar
    41    47    50   ar
    42    34    36   ar
    43     9     7   ar
    44     9    11   ar
    45    49    51   ar
    46     7     6   ar
    47     2     1    1
    48     2     3    1
    49     2     5    1
    50     3     4    2
    51    37    38   ar
    52    12    11    1
    53    50    52   ar
    54    11    10   ar
    55    36    38   ar
    56     6     5    1
    57     6     8   ar
    58    51    53   ar
    59    60    62   ar
    60    60    59   ar
    61    38    39    1
    62    62    63   ar
    63    10     8   ar
    64   124   123    1
    65    52    53   ar
    66   125   123    1
    67   123   122    2
    68    58    59    1
    69    58    55    1
    70    59    61   ar
    71    54    55    1
    72   122   121    1
    73    63    61   ar
    74   121   120    1
    75    55    56    1
    76   113   112    2
    77   137   139   ar
    78   137   135   ar
    79   114   112   am
    80   139   138   ar
    81    73    72    2
    82   112   111    1
    83   120   119    1
    84    56    64   am
    85    56    57    2
    86    64    65    1
    87    67    66    2
    88   134   135   ar
    89   134   132   ar
    90   135   133   ar
    91    72    71    1
    92   161   159   ar
    93   161   160   ar
    94   138   136   ar
    95   119   116    1
    96    68    65    1
    97    68    69    1
    98    65    66    1
    99   159   157   ar
   100   111   110    1
   101   132   131   ar
   102   133   136   ar
   103   133   131   ar
   104   160   158   ar
   105    71    70    1
   106    71    74    1
   107   110   107    1
   108   116   115    1
   109   116   117    1
   110   131   130    1
   111    74    75    1
   112   157   156   ar
   113   158   156   ar
   114    93    91   am
   115   117   118    2
   116   117   126   am
   117   109   108    2
   118   149   150   ar
   119   149   147   ar
   120   107   108    1
   121   107   106    1
   122   156   155    1
   123   126   127    1
   124   150   148   ar
   125   130   127    1
   126    98    99    1
   127    98    95    1
   128    75    76    1
   129    77    76    1
   130   147   145   ar
   131   101    99   ar
   132   101   103   ar
   133    91    90    1
   134    91    92    2
   135    99   100   ar
   136   127   128    1
   137    86    87    1
   138   103   104   ar
   139    90    87    1
   140   100   102   ar
   141   155   152    1
   142    95    94    1
   143    95    96    1
   144   148   146   ar
   145   104   102   ar
   146   104   105    1
   147   151   152    1
   148   152   153    1
   149    87    88    1
   150   145   146   ar
   151   145   144    1
   152   128   129    2
   153    96    97    2
   154    88    89    2
   155   144   141    1
   156   153   154    2
   157   141   142    1
   158   141   140    1
   159   142   143    2
