@<TRIPOS>MOLECULE
tmp/4yvxA00.pdb
 198 193 0 0 0
SMALL
GASTEIGER

@<TRIPOS>ATOM
      1  N         -0.0640    2.8840   13.5120 N.3    19  TYR19      -0.1241
      2  CA         1.3890    3.1670   13.4210 C.3    19  TYR19       0.1605
      3  C          2.2150    1.8810   13.5000 C.2    19  TYR19       0.2264
      4  O          1.9190    0.9810   14.2990 O.2    19  TYR19      -0.2867
      5  CB         1.9020    4.2100   14.4390 C.3    19  TYR19       0.0534
      6  CG         3.3690    4.4920   14.2190 C.ar   19  TYR19      -0.0201
      7  CD1        3.7940    5.2740   13.1540 C.ar   19  TYR19      -0.0009
      8  CD2        4.3580    3.9170   15.0430 C.ar   19  TYR19      -0.0009
      9  CE1        5.1490    5.5010   12.9390 C.ar   19  TYR19       0.0417
     10  CE2        5.7200    4.1400   14.8210 C.ar   19  TYR19       0.0417
     11  CZ         6.1010    4.9190   13.7740 C.ar   19  TYR19       0.1957
     12  OH         7.4220    5.1680   13.5260 O.3    19  TYR19      -0.2866
     13  N          2.2090   12.0430   10.1350 N.3    49  LEU49      -0.1231
     14  CA         3.4860   11.6250   10.6300 C.3    49  LEU49       0.1693
     15  C          3.7550   10.1810   10.3700 C.2    49  LEU49       0.2592
     16  O          4.9250    9.8070   10.2740 O.2    49  LEU49      -0.2718
     17  CB         3.5750   11.8900   12.1290 C.3    49  LEU49       0.0284
     18  CG         4.8760   11.6090   12.9230 C.3    49  LEU49       0.0019
     19  CD1        5.9880   12.5740   12.5550 C.3    49  LEU49       0.0001
     20  CD2        4.5710   11.7190   14.4140 C.3    49  LEU49       0.0001
     21  N          2.6990    9.3650   10.2550 N.am   50  TYR50      -0.1976
     22  CA         2.8460    7.8940   10.2600 C.3    50  TYR50       0.1639
     23  C          3.2700    7.2800    8.9340 C.2    50  TYR50       0.2290
     24  O          3.4950    6.0950    8.8680 O.2    50  TYR50      -0.2864
     25  CB         1.5160    7.2220   10.7330 C.3    50  TYR50       0.0560
     26  CG         1.0470    7.5880   12.1440 C.ar   50  TYR50      -0.0198
     27  CD1        1.9120    8.2390   13.0500 C.ar   50  TYR50      -0.0009
     28  CD2       -0.2530    7.2500   12.5880 C.ar   50  TYR50      -0.0009
     29  CE1        1.4890    8.5800   14.2970 C.ar   50  TYR50       0.0417
     30  CE2       -0.6860    7.5620   13.8610 C.ar   50  TYR50       0.0417
     31  CZ         0.1970    8.2420   14.7030 C.ar   50  TYR50       0.1957
     32  OH        -0.1860    8.6110   15.9480 O.3    50  TYR50      -0.2866
     33  N          0.3620   17.7250   11.3560 N.3    81  TRP81      -0.1241
     34  CA         1.6940   17.6570   11.9700 C.3    81  TRP81       0.1605
     35  C          2.1680   19.0930   12.3160 C.2    81  TRP81       0.2264
     36  O          1.6320   20.0720   11.8100 O.2    81  TRP81      -0.2867
     37  CB         2.6880   16.8570   11.0740 C.3    81  TRP81       0.0550
     38  CG         4.0300   16.7190   11.7240 C.ar   81  TRP81       0.0003
     39  CD1        5.2310   17.1410   11.2440 C.ar   81  TRP81       0.0946
     40  CD2        4.2730   16.2140   13.0310 C.ar   81  TRP81       0.0152
     41  NE1        6.2180   16.8930   12.1450 N.ar   81  TRP81      -0.2442
     42  CE2        5.6680   16.3430   13.2690 C.ar   81  TRP81       0.0810
     43  CE3        3.4480   15.6950   14.0420 C.ar   81  TRP81       0.0012
     44  CZ2        6.2660   15.9580   14.4640 C.ar   81  TRP81       0.0191
     45  CZ3        4.0550   15.2870   15.2530 C.ar   81  TRP81       0.0001
     46  CH2        5.4500   15.4250   15.4440 C.ar   81  TRP81       0.0015
     47  N         -1.9930   17.5170   15.9740 N.3   112  HIS112     -0.1226
     48  CA        -1.2320   16.4030   16.5570 C.3   112  HIS112      0.1752
     49  C         -0.5650   16.7060   17.9200 C.2   112  HIS112      0.2596
     50  O         -0.5290   15.8440   18.8070 O.2   112  HIS112     -0.2718
     51  CB        -0.1670   15.9380   15.5380 C.3   112  HIS112      0.0759
     52  CG         0.2500   14.5020   15.6790 C.ar  112  HIS112      0.0818
     53  ND1        0.5130   13.7040   14.5820 N.ar  112  HIS112     -0.2268
     54  CD2        0.4610   13.7320   16.7700 C.ar  112  HIS112      0.1154
     55  CE1        0.8980   12.5100   14.9970 C.ar  112  HIS112      0.1986
     56  NE2        0.8470   12.4880   16.3240 N.ar  112  HIS112     -0.2212
     57  N         -0.0580   17.9190   18.0690 N.am  113  SER113     -0.1952
     58  CA         0.6500   18.3230   19.2620 C.3   113  SER113      0.1924
     59  C          0.6240   19.8300   19.3330 C.2   113  SER113      0.2314
     60  O          0.6220   20.4770   18.2970 O.2   113  SER113     -0.2863
     61  CB         2.1390   17.8500   19.1250 C.3   113  SER113      0.2116
     62  OG         3.0810   18.6120   19.8580 O.3   113  SER113     -0.2180
     63  N          3.0440   21.6060   20.2220 N.3   115  MET115     -0.1196
     64  CA         4.4240   22.0360   20.0410 C.3   115  MET115      0.1786
     65  C          4.7550   22.3230   18.5730 C.2   115  MET115      0.2306
     66  O          5.0520   21.4080   17.8160 O.2   115  MET115     -0.2863
     67  CB         5.3850   20.9340   20.5540 C.2   115  MET115      0.0070
     68  CG         5.2900   20.5490   22.0530 C.2   115  MET115      0.0282
     69  SD         6.5330   19.3300   22.6850 S.3   115  MET115     -0.1125
     70  CE         7.5880   18.9880   21.2450 C.3   115  MET115      0.0742
     71  N          6.6080   23.5170   15.0460 N.3   117  LEU117     -0.1245
     72  CA         7.9260   23.3670   14.4490 C.3   117  LEU117      0.1561
     73  C          8.0240   24.1830   13.1780 C.2   117  LEU117      0.2260
     74  O          7.0070   24.5250   12.5580 O.2   117  LEU117     -0.2867
     75  CB         8.1630   21.8890   14.1130 C.3   117  LEU117      0.0270
     76  CG         8.1180   20.8870   15.2370 C.3   117  LEU117      0.0019
     77  CD1        8.2010   19.4690   14.7220 C.3   117  LEU117      0.0001
     78  CD2        9.2570   21.1330   16.1930 C.3   117  LEU117      0.0001
     79  N         10.0400   16.4450    8.4460 N.3   123  LEU123     -0.1231
     80  CA         9.1890   16.1050    9.5980 C.3   123  LEU123      0.1693
     81  C          9.8070   16.6140   10.8900 C.2   123  LEU123      0.2592
     82  O          9.0830   17.1160   11.7540 O.2   123  LEU123     -0.2718
     83  CB         8.9000   14.5770    9.7200 C.3   123  LEU123      0.0284
     84  CG         7.9450   13.9900    8.6540 C.3   123  LEU123      0.0019
     85  CD1        7.8690   12.4800    8.7950 C.3   123  LEU123      0.0001
     86  CD2        6.5560   14.6530    8.6490 C.3   123  LEU123      0.0001
     87  N         11.1350   16.4810   10.9870 N.am  124  SER124     -0.1952
     88  CA        11.9240   16.9380   12.1080 C.3   124  SER124      0.1924
     89  C         13.0360   17.9560   11.7240 C.2   124  SER124      0.2314
     90  O         14.2090   17.6050   11.7070 O.2   124  SER124     -0.2863
     91  CB        12.5760   15.7250   12.7940 C.3   124  SER124      0.2116
     92  OG        13.2490   16.1720   13.9820 O.3   124  SER124     -0.2180
     93  N         16.4910   20.6270   17.2450 N.3   132  VAL132     -0.1245
     94  CA        15.1800   20.7180   16.5840 C.3   132  VAL132      0.1561
     95  C         14.7730   22.1860   16.4770 C.2   132  VAL132      0.2260
     96  O         14.8800   22.9420   17.4560 O.2   132  VAL132     -0.2867
     97  CB        14.0650   19.8760   17.3190 C.3   132  VAL132      0.0252
     98  CG1       12.6470   20.2910   16.8940 C.3   132  VAL132      0.0019
     99  CG2       14.2660   18.3690   17.0620 C.3   132  VAL132      0.0019
    100  N         12.1150   24.8210   16.5830 N.3   134  PHE134     -0.1241
    101  CA        10.7760   25.1150   17.0150 C.3   134  PHE134      0.1605
    102  C         10.3190   26.3910   16.3090 C.2   134  PHE134      0.2264
    103  O         11.1420   27.1690   15.8810 O.2   134  PHE134     -0.2867
    104  CB        10.7180   25.3050   18.5160 C.3   134  PHE134      0.0534
    105  CG        11.2320   24.1220   19.3000 C.ar  134  PHE134     -0.0203
    106  CD1       10.6230   22.8600   19.1920 C.ar  134  PHE134     -0.0042
    107  CD2       12.2940   24.2670   20.1910 C.ar  134  PHE134     -0.0042
    108  CE1       11.0830   21.7780   19.9370 C.ar  134  PHE134     -0.0003
    109  CE2       12.7630   23.1820   20.9210 C.ar  134  PHE134     -0.0003
    110  CZ        12.1580   21.9400   20.7960 C.ar  134  PHE134     -0.0000
    111  N         -2.5670   15.7300   22.6400 N.3   162  ASN162     -0.1240
    112  CA        -1.4160   16.1070   23.4830 C.3   162  ASN162      0.1653
    113  C         -1.5000   17.4950   24.0990 C.2   162  ASN162      0.2266
    114  O         -0.4630   18.0800   24.4240 O.2   162  ASN162     -0.2867
    115  CB        -0.0530   15.8660   22.7400 C.3   162  ASN162      0.1155
    116  CG         0.1320   14.3970   22.3340 C.2   162  ASN162      0.2627
    117  OD1        0.2100   13.5220   23.2150 O.2   162  ASN162     -0.2716
    118  ND2        0.1600   14.1110   21.0220 N.am  162  ASN162     -0.0877
    119  N         -4.2800    6.8880   23.8950 N.3   211  TYR211     -0.1241
    120  CA        -3.2440    6.1520   23.1100 C.3   211  TYR211      0.1605
    121  C         -2.2090    5.5340   24.0500 C.2   211  TYR211      0.2264
    122  O         -2.1380    5.8690   25.2020 O.2   211  TYR211     -0.2867
    123  CB        -2.5960    6.9880   21.9710 C.3   211  TYR211      0.0534
    124  CG        -1.6300    8.1180   22.4020 C.ar  211  TYR211     -0.0201
    125  CD1       -0.3240    7.8220   22.8280 C.ar  211  TYR211     -0.0009
    126  CD2       -1.9830    9.4620   22.2720 C.ar  211  TYR211     -0.0009
    127  CE1        0.5710    8.8120   23.1780 C.ar  211  TYR211      0.0417
    128  CE2       -1.1060   10.4660   22.6250 C.ar  211  TYR211      0.0417
    129  CZ         0.1860   10.1290   23.0870 C.ar  211  TYR211      0.1957
    130  OH         1.0800   11.0950   23.4440 O.3   211  TYR211     -0.2866
    131  N          4.4380    0.7770   22.0130 N.3   217  GLN217     -0.1245
    132  CA         5.2160   -0.2140   21.2840 C.3   217  GLN217      0.1566
    133  C          6.6760   -0.3160   21.7650 C.2   217  GLN217      0.2260
    134  O          7.3840   -1.1670   21.2930 O.2   217  GLN217     -0.2867
    135  CB         5.1750    0.0540   19.7800 C.3   217  GLN217      0.0367
    136  CG         3.7490    0.2850   19.2560 C.3   217  GLN217      0.0905
    137  CD         3.6420    0.2870   17.7450 C.2   217  GLN217      0.2608
    138  OE1        4.3330   -0.4510   17.1070 O.2   217  GLN217     -0.2717
    139  NE2        2.7660    1.1410   17.1690 N.am  217  GLN217     -0.0878
    140  N         14.1460    3.8960   20.2060 N.3   221  ARG221     -0.1231
    141  CA        14.4540    5.2710   19.8690 C.3   221  ARG221      0.1694
    142  C         13.7530    6.3550   20.7160 C.2   221  ARG221      0.2592
    143  O         14.1330    7.5210   20.6620 O.2   221  ARG221     -0.2718
    144  CB        14.1250    5.5220   18.3950 C.3   221  ARG221      0.0321
    145  CG        14.9860    4.7010   17.4410 C.3   221  ARG221      0.0489
    146  CD        14.5730    4.8280   15.9850 C.3   221  ARG221      0.2205
    147  NE        13.2740    4.2070   15.7290 N.pl3 221  ARG221     -0.0865
    148  CZ        12.2270    4.7580   15.0860 C.cat 221  ARG221      0.5346
    149  NH1       11.1000    4.0380   14.9480 N.pl3 221  ARG221      0.1354
    150  NH2       12.2720    5.9840   14.5390 N.pl3 221  ARG221      0.1354
    151  N         12.6900    6.0080   21.4340 N.am  222  TRP222     -0.1976
    152  CA        11.9650    6.9980   22.2510 C.3   222  TRP222      0.1640
    153  C         11.1390    6.4330   23.3800 C.2   222  TRP222      0.2290
    154  O         10.1940    7.0930   23.8210 O.2   222  TRP222     -0.2864
    155  CB        11.0340    7.8470   21.3670 C.3   222  TRP222      0.0576
    156  CG        10.1190    7.0750   20.5240 C.ar  222  TRP222      0.0006
    157  CD1        9.0210    6.3740   20.9220 C.ar  222  TRP222      0.0946
    158  CD2       10.1950    6.9460   19.1220 C.ar  222  TRP222      0.0152
    159  NE1        8.4010    5.8040   19.8440 N.ar  222  TRP222     -0.2442
    160  CE2        9.1050    6.1390   18.7190 C.ar  222  TRP222      0.0810
    161  CE3       11.0810    7.4340   18.1560 C.ar  222  TRP222      0.0012
    162  CZ2        8.8900    5.7860   17.3910 C.ar  222  TRP222      0.0191
    163  CZ3       10.8830    7.1040   16.8580 C.ar  222  TRP222      0.0001
    164  CH2        9.7810    6.2820   16.4690 C.ar  222  TRP222      0.0015
    165  N          6.3890    7.6800   26.0020 N.3   301  PHE301     -0.1241
    166  CA         7.0390    8.5360   24.9980 C.3   301  PHE301      0.1605
    167  C          7.8630    9.6460   25.6690 C.2   301  PHE301      0.2264
    168  O          7.4100   10.3680   26.5680 O.2   301  PHE301     -0.2867
    169  CB         6.0570    9.1110   23.9780 C.3   301  PHE301      0.0534
    170  CG         6.7310    9.8860   22.8860 C.ar  301  PHE301     -0.0203
    171  CD1        7.1670    9.2390   21.6910 C.ar  301  PHE301     -0.0042
    172  CD2        6.9380   11.2730   23.0190 C.ar  301  PHE301     -0.0042
    173  CE1        7.8020    9.9640   20.6900 C.ar  301  PHE301     -0.0003
    174  CE2        7.5930   11.9890   22.0110 C.ar  301  PHE301     -0.0003
    175  CZ         8.0180   11.3350   20.8510 C.ar  301  PHE301     -0.0000
    176  N         11.2210   12.4660   24.4440 N.3   303  SER303     -0.1217
    177  CA        12.1980   13.0050   23.4840 C.3   303  SER303      0.1889
    178  C         13.0950   14.0900   24.1070 C.2   303  SER303      0.2288
    179  O         12.6820   14.8660   24.9950 O.2   303  SER303     -0.2866
    180  CB        11.4810   13.5380   22.2310 C.3   303  SER303      0.2089
    181  OG        12.3720   13.8820   21.1890 O.3   303  SER303     -0.2183
    182  N         14.0930   16.8280   22.8080 N.3   305  SER305     -0.1202
    183  CA        13.5670   18.1780   22.5490 C.3   305  SER305      0.2020
    184  C         12.0740   18.4200   22.9410 C.2   305  SER305      0.2618
    185  O         11.6690   19.5640   23.1310 O.2   305  SER305     -0.2717
    186  CB        13.7700   18.4610   21.0700 C.3   305  SER305      0.2103
    187  OG        12.9970   17.5700   20.2800 O.3   305  SER305     -0.2182
    188  N         11.2660   17.3520   23.0090 N.am  306  PHE306     -0.1975
    189  CA         9.8500   17.3750   23.4980 C.3   306  PHE306      0.1639
    190  C          9.8040   17.8810   24.9340 C.2   306  PHE306      0.2290
    191  O          9.2400   18.9520   25.2010 O.2   306  PHE306     -0.2864
    192  CB         9.2130   15.9620   23.2850 C.3   306  PHE306      0.0560
    193  CG         7.9590   15.6270   24.0860 C.ar  306  PHE306     -0.0200
    194  CD1        6.6760   15.9560   23.6110 C.ar  306  PHE306     -0.0042
    195  CD2        8.0470   14.8300   25.2330 C.ar  306  PHE306     -0.0042
    196  CE1        5.5210   15.5850   24.3140 C.ar  306  PHE306     -0.0003
    197  CE2        6.8960   14.4550   25.9320 C.ar  306  PHE306     -0.0003
    198  CZ         5.6320   14.8360   25.4730 C.ar  306  PHE306     -0.0000
@<TRIPOS>BOND
     1    79    80    1
     2    86    84    1
     3    84    85    1
     4    84    83    1
     5    24    23    2
     6    23    22    1
     7    80    83    1
     8    80    81    1
     9    13    14    1
    10    21    22    1
    11    21    15   am
    12    22    25    1
    13    16    15    2
    14    15    14    1
    15    14    17    1
    16    25    26    1
    17    81    87   am
    18    81    82    2
    19    87    88    1
    20    37    38    1
    21    37    34    1
    22    39    38   ar
    23    39    41   ar
    24    33    34    1
    25    90    89    2
    26    38    40   ar
    27    89    88    1
    28    36    35    2
    29    34    35    1
    30    88    91    1
    31    17    18    1
    32    26    28   ar
    33    26    27   ar
    34    41    42   ar
    35    19    18    1
    36    74    73    2
    37    28    30   ar
    38    91    92    1
    39    18    20    1
    40     9     7   ar
    41     9    11   ar
    42    40    42   ar
    43    40    43   ar
    44    27    29   ar
    45     7     6   ar
    46    73    72    1
    47    42    44   ar
    48     2     3    1
    49     2     1    1
    50     2     5    1
    51     3     4    2
    52    12    11    1
    53    11    10   ar
    54    30    31   ar
    55    43    45   ar
    56    75    72    1
    57    75    76    1
    58     6     5    1
    59     6     8   ar
    60    29    31   ar
    61    72    71    1
    62    44    46   ar
    63   150   148    1
    64    53    55   ar
    65    53    52   ar
    66    31    32    1
    67    77    76    1
    68    10     8   ar
    69   149   148    1
    70    55    56   ar
    71   148   147    2
    72    76    78    1
    73    45    46   ar
    74    51    52    1
    75    51    48    1
    76    52    54   ar
    77   147   146    1
    78   103   102    2
    79    47    48    1
    80   146   145    1
    81   102   101    1
    82    56    54   ar
    83   164   163   ar
    84   164   162   ar
    85    95    94    1
    86    95    96    2
    87    48    49    1
    88   100   101    1
    89    94    93    1
    90    94    97    1
    91   163   161   ar
    92    98    97    1
    93   101   104    1
    94    99    97    1
    95   138   137    2
    96   139   137   am
    97   162   160   ar
    98   145   144    1
    99   137   136    1
   100    66    65    2
   101    49    57   am
   102    49    50    2
   103    57    58    1
   104   161   158   ar
   105    60    59    2
   106   144   141    1
   107   104   105    1
   108    65    64    1
   109   160   158   ar
   110   160   159   ar
   111   158   156   ar
   112    61    58    1
   113    61    62    1
   114   106   105   ar
   115   106   108   ar
   116   136   135    1
   117    58    59    1
   118   105   107   ar
   119   135   132    1
   120   159   157   ar
   121   141   140    1
   122   141   142    1
   123   108   110   ar
   124    64    63    1
   125    64    67    1
   126   107   109   ar
   127   187   186    1
   128   156   157   ar
   129   156   155    1
   130    67    68    2
   131   143   142    2
   132   173   175   ar
   133   173   171   ar
   134   142   151   am
   135   110   109   ar
   136   175   174   ar
   137   118   116   am
   138   186   183    1
   139   181   180    1
   140    70    69    1
   141   132   133    1
   142   132   131    1
   143   134   133    2
   144   155   152    1
   145   151   152    1
   146   171   170   ar
   147   123   124    1
   148   123   120    1
   149   174   172   ar
   150    68    69    1
   151   180   177    1
   152   152   153    1
   153   126   124   ar
   154   126   128   ar
   155   116   115    1
   156   116   117    2
   157   124   125   ar
   158   183   182    1
   159   183   184    1
   160   128   129   ar
   161   111   112    1
   162   115   112    1
   163   125   127   ar
   164   170   172   ar
   165   170   169    1
   166   184   188   am
   167   184   185    2
   168   188   189    1
   169   129   127   ar
   170   129   130    1
   171   120   119    1
   172   120   121    1
   173   192   189    1
   174   192   193    1
   175   153   154    2
   176   112   113    1
   177   177   178    1
   178   177   176    1
   179   189   190    1
   180   194   193   ar
   181   194   196   ar
   182   169   166    1
   183   121   122    2
   184   193   195   ar
   185   113   114    2
   186   178   179    2
   187   196   198   ar
   188   190   191    2
   189   166   167    1
   190   166   165    1
   191   195   197   ar
   192   198   197   ar
   193   167   168    2
