@<TRIPOS>MOLECULE
tmp/4yvzA00.pdb
 135 131 0 0 0
SMALL
GASTEIGER

@<TRIPOS>ATOM
      1  N          7.0380  -33.9870   51.9460 N.3    33  LEU33      -0.1245
      2  CA         8.1130  -33.0520   52.2020 C.3    33  LEU33       0.1561
      3  C          7.4350  -31.7030   52.4620 C.2    33  LEU33       0.2260
      4  O          6.8370  -31.1240   51.5570 O.2    33  LEU33      -0.2867
      5  CB         9.0850  -32.9880   51.0320 C.3    33  LEU33       0.0270
      6  CG        10.3310  -32.1030   51.1900 C.3    33  LEU33       0.0019
      7  CD1       11.1370  -32.4510   52.4330 C.3    33  LEU33       0.0001
      8  CD2       11.2010  -32.1970   49.9310 C.3    33  LEU33       0.0001
      9  N          3.6350  -35.2970   43.6590 N.3    69  ASP69      -0.1225
     10  CA         5.0700  -35.1550   43.9550 C.3    69  ASP69       0.1805
     11  C          5.3970  -33.8390   44.6180 C.2    69  ASP69       0.2598
     12  O          4.5600  -32.9350   44.7000 O.2    69  ASP69      -0.2718
     13  CB         5.9590  -35.1900   42.7060 C.3    69  ASP69       0.1424
     14  CG         5.7100  -36.3550   41.8050 C.2    69  ASP69       0.3668
     15  OD1        5.1950  -37.3970   42.2430 O.co2  69  ASP69      -0.2456
     16  OD2        6.0710  -36.2120   40.6290 O.co2  69  ASP69      -0.2456
     17  N          6.6640  -33.7090   45.0000 N.am   70  GLY70      -0.1942
     18  CA         7.1950  -32.4300   45.4190 C.3    70  GLY70       0.2014
     19  C          6.8990  -32.1080   46.8680 C.2    70  GLY70       0.2638
     20  O          6.6570  -32.9930   47.7010 O.2    70  GLY70      -0.2714
     21  N          6.9210  -30.8210   47.1720 N.am   71  ALA71      -0.1977
     22  CA         6.8240  -30.3850   48.5500 C.3    71  ALA71       0.1597
     23  C          5.6170  -29.5050   48.7870 C.2    71  ALA71       0.2287
     24  O          5.0500  -28.9230   47.8570 O.2    71  ALA71      -0.2864
     25  CB         8.0710  -29.6670   48.9520 C.3    71  ALA71       0.0319
     26  N          5.6720  -28.1850   44.8790 N.3    86  VAL86      -0.1231
     27  CA         6.8220  -27.3540   44.5780 C.3    86  VAL86       0.1692
     28  C          8.1260  -28.1260   44.6050 C.2    86  VAL86       0.2592
     29  O          8.2520  -29.2000   45.2150 O.2    86  VAL86      -0.2718
     30  CB         6.9530  -26.1550   45.5420 C.3    86  VAL86       0.0266
     31  CG1        5.6770  -25.3510   45.5460 C.3    86  VAL86       0.0020
     32  CG2        7.3030  -26.6240   46.9360 C.3    86  VAL86       0.0020
     33  N          9.0900  -27.5330   43.9220 N.am   87  HIS87      -0.1962
     34  CA        10.4470  -28.0120   43.8550 C.3    87  HIS87       0.1787
     35  C         11.3050  -27.1530   44.7900 C.2    87  HIS87       0.2620
     36  O         11.4950  -25.9560   44.5420 O.2    87  HIS87      -0.2715
     37  CB        10.9380  -27.9340   42.4130 C.3    87  HIS87       0.0785
     38  CG        12.3000  -28.4820   42.2060 C.ar   87  HIS87       0.0821
     39  ND1       13.0220  -28.2730   41.0440 N.ar   87  HIS87      -0.2267
     40  CD2       13.1020  -29.2330   43.0010 C.ar   87  HIS87       0.1154
     41  CE1       14.1840  -28.8770   41.1310 C.ar   87  HIS87       0.1986
     42  NE2       14.2610  -29.4720   42.3180 N.ar   87  HIS87      -0.2212
     43  N         11.7950  -27.7440   45.8760 N.am   88  LEU88      -0.1977
     44  CA        12.5980  -26.9860   46.8320 C.3    88  LEU88       0.1596
     45  C         14.0550  -27.0260   46.4010 C.2    88  LEU88       0.2287
     46  O         14.5790  -28.0820   46.0570 O.2    88  LEU88      -0.2864
     47  CB        12.4350  -27.5290   48.2480 C.3    88  LEU88       0.0297
     48  CG        11.0340  -27.4320   48.8630 C.3    88  LEU88       0.0022
     49  CD1       10.9870  -28.2110   50.1400 C.3    88  LEU88       0.0001
     50  CD2       10.6100  -25.9870   49.1100 C.3    88  LEU88       0.0001
     51  N         20.8570  -39.7030   53.2540 N.3    99  THR99      -0.1203
     52  CA        20.7960  -40.3930   51.9730 C.3    99  THR99       0.1994
     53  C         19.3970  -40.1490   51.4170 C.2    99  THR99       0.2618
     54  O         18.4170  -40.1810   52.1780 O.2    99  THR99      -0.2717
     55  CB        21.0620  -41.9050   52.1380 C.3    99  THR99       0.1784
     56  OG1       22.4580  -42.1170   52.3730 O.3    99  THR99      -0.2211
     57  CG2       20.6210  -42.6980   50.9090 C.3    99  THR99       0.0376
     58  N         19.2820  -39.8860   50.1200 N.am  100  GLY100     -0.1942
     59  CA        17.9550  -39.7440   49.5270 C.3   100  GLY100      0.2014
     60  C         17.6000  -38.2960   49.2790 C.2   100  GLY100      0.2640
     61  O         17.7950  -37.4350   50.1500 O.2   100  GLY100     -0.2714
     62  N         17.0780  -38.0140   48.0900 N.am  101  THR101     -0.1936
     63  CA        16.9230  -36.6230   47.6770 C.3   101  THR101      0.2028
     64  C         15.9380  -35.8730   48.5730 C.2   101  THR101      0.2642
     65  O         16.1460  -34.7010   48.8660 O.2   101  THR101     -0.2714
     66  CB        16.4810  -36.5010   46.2080 C.3   101  THR101      0.1808
     67  OG1       15.2210  -37.1610   46.0130 O.3   101  THR101     -0.2208
     68  CG2       17.5350  -37.1020   45.2870 C.3   101  THR101      0.0379
     69  N         14.8800  -36.5360   49.0230 N.am  102  ARG102     -0.1963
     70  CA        13.9090  -35.8430   49.8530 C.3   102  ARG102      0.1729
     71  C         14.5080  -35.5130   51.2350 C.2   102  ARG102      0.2616
     72  O         14.3520  -34.3920   51.7180 O.2   102  ARG102     -0.2715
     73  CB        12.6160  -36.6570   49.9570 C.3   102  ARG102      0.0348
     74  CG        11.9220  -36.6590   51.2970 C.3   102  ARG102      0.0492
     75  CD        10.7290  -37.6550   51.3260 C.3   102  ARG102      0.2205
     76  NE         9.5890  -37.0750   50.6400 N.pl3 102  ARG102     -0.0865
     77  CZ         8.7730  -37.7190   49.8260 C.cat 102  ARG102      0.5346
     78  NH1        7.7760  -37.0500   49.2730 N.pl3 102  ARG102      0.1354
     79  NH2        8.9450  -39.0020   49.5650 N.pl3 102  ARG102      0.1354
     80  N         15.2380  -36.4430   51.8480 N.am  103  HIS103     -0.1973
     81  CA        15.7820  -36.1710   53.1790 C.3   103  HIS103      0.1656
     82  C         16.9470  -35.2030   53.1330 C.2   103  HIS103      0.2291
     83  O         17.1050  -34.3550   54.0160 O.2   103  HIS103     -0.2864
     84  CB        16.1820  -37.4640   53.8740 C.3   103  HIS103      0.0771
     85  CG        15.0080  -38.2420   54.3770 C.ar  103  HIS103      0.0820
     86  ND1       14.3270  -39.1510   53.5960 N.ar  103  HIS103     -0.2267
     87  CD2       14.3550  -38.2050   55.5620 C.ar  103  HIS103      0.1154
     88  CE1       13.3200  -39.6560   54.2840 C.ar  103  HIS103      0.1986
     89  NE2       13.3140  -39.0970   55.4820 N.ar  103  HIS103     -0.2212
     90  N         17.2190  -32.8830   50.9140 N.3   105  THR105     -0.1218
     91  CA        16.6340  -31.5910   50.6160 C.3   105  THR105      0.1862
     92  C         16.1430  -30.9940   51.9110 C.2   105  THR105      0.2287
     93  O         16.3480  -29.8140   52.1830 O.2   105  THR105     -0.2866
     94  CB        15.4590  -31.6830   49.6160 C.3   105  THR105      0.1770
     95  OG1       15.9230  -32.2440   48.3910 O.3   105  THR105     -0.2211
     96  CG2       14.8630  -30.3180   49.3350 C.3   105  THR105      0.0375
     97  N          9.0280  -40.3600   54.9600 N.3   121  SER121     -0.1202
     98  CA         9.4520  -41.4510   54.0940 C.3   121  SER121      0.2020
     99  C          8.2770  -42.2560   53.5380 C.2   121  SER121      0.2619
    100  O          7.4030  -42.7220   54.2820 O.2   121  SER121     -0.2717
    101  CB        10.4100  -42.3840   54.8400 C.3   121  SER121      0.2103
    102  OG        10.9730  -43.3230   53.9420 O.3   121  SER121     -0.2182
    103  N          8.2790  -42.4160   52.2160 N.am  122  ARG122     -0.1965
    104  CA         7.1730  -43.0290   51.4960 C.3   122  ARG122      0.1729
    105  C          6.9280  -44.4930   51.8850 C.2   122  ARG122      0.2616
    106  O          5.7860  -44.8870   52.1170 O.2   122  ARG122     -0.2715
    107  CB         7.4090  -42.9180   49.9930 C.3   122  ARG122      0.0348
    108  CG         6.2940  -43.4550   49.1670 C.3   122  ARG122      0.0492
    109  CD         6.4630  -43.1340   47.6960 C.3   122  ARG122      0.2205
    110  NE         5.7110  -44.0700   46.8610 N.pl3 122  ARG122     -0.0865
    111  CZ         4.3820  -44.1630   46.8400 C.cat 122  ARG122      0.5346
    112  NH1        3.7950  -45.0440   46.0460 N.pl3 122  ARG122      0.1354
    113  NH2        3.6340  -43.3920   47.6210 N.pl3 122  ARG122      0.1354
    114  N          7.9740  -45.3090   51.9620 N.am  123  ARG123     -0.1963
    115  CA         7.7420  -46.7220   52.2540 C.3   123  ARG123      0.1729
    116  C          8.2800  -47.1670   53.6050 C.2   123  ARG123      0.2616
    117  O          7.9780  -48.2720   54.0230 O.2   123  ARG123     -0.2715
    118  CB         8.3380  -47.6070   51.1640 C.3   123  ARG123      0.0348
    119  CG         8.0830  -47.0910   49.7730 C.3   123  ARG123      0.0492
    120  CD         7.5190  -48.1700   48.8740 C.3   123  ARG123      0.2205
    121  NE         8.2280  -49.4400   49.0050 N.pl3 123  ARG123     -0.0865
    122  CZ         7.6470  -50.6310   48.8780 C.cat 123  ARG123      0.5346
    123  NH1        8.3570  -51.7430   49.0070 N.pl3 123  ARG123      0.1354
    124  NH2        6.3490  -50.7100   48.6200 N.pl3 123  ARG123      0.1354
    125  N          9.0660  -46.3220   54.2790 N.am  124  ARG124     -0.1977
    126  CA         9.5720  -46.6490   55.6150 C.3   124  ARG124      0.1597
    127  C          8.6850  -46.0830   56.7260 C.2   124  ARG124      0.2287
    128  O          8.8360  -46.4360   57.8940 O.2   124  ARG124     -0.2864
    129  CB        11.0130  -46.1460   55.7960 C.3   124  ARG124      0.0334
    130  CG        12.0230  -46.9850   55.0260 C.3   124  ARG124      0.0492
    131  CD        13.4430  -46.5290   55.2190 C.3   124  ARG124      0.2205
    132  NE        13.9210  -45.7930   54.0610 N.pl3 124  ARG124     -0.0865
    133  CZ        13.9150  -44.4760   53.9740 C.cat 124  ARG124      0.5346
    134  NH1       14.3570  -43.8760   52.8730 N.pl3 124  ARG124      0.1354
    135  NH2       13.4690  -43.7620   54.9980 N.pl3 124  ARG124      0.1354
@<TRIPOS>BOND
     1    16    14   ar
     2    39    41   ar
     3    39    38   ar
     4    41    42   ar
     5    14    15   ar
     6    14    13    1
     7    38    37    1
     8    38    40   ar
     9    42    40   ar
    10    37    34    1
    11    13    10    1
    12     9    10    1
    13    34    33    1
    14    34    35    1
    15    33    28   am
    16    10    11    1
    17    36    35    2
    18    27    28    1
    19    27    26    1
    20    27    30    1
    21    28    29    2
    22    11    12    2
    23    11    17   am
    24    35    43   am
    25    17    18    1
    26    68    66    1
    27    18    19    1
    28    30    31    1
    29    30    32    1
    30    43    44    1
    31    67    66    1
    32   112   111    1
    33    46    45    2
    34    66    63    1
    35    45    44    1
    36    44    47    1
    37   111   110    2
    38   111   113    1
    39   110   109    1
    40    19    21   am
    41    19    20    2
    42    21    22    1
    43    63    62    1
    44    63    64    1
    45   109   108    1
    46    24    23    2
    47    62    60   am
    48    47    48    1
    49    95    94    1
    50    22    23    1
    51    22    25    1
    52    64    65    2
    53    64    69   am
    54   124   122    1
    55    48    50    1
    56    48    49    1
    57   120   121    1
    58   120   119    1
    59   122   121    2
    60   122   123    1
    61    69    70    1
    62   108   107    1
    63    78    77    1
    64    60    59    1
    65    60    61    2
    66    96    94    1
    67    59    58    1
    68    79    77    1
    69    94    91    1
    70   119   118    1
    71    77    76    2
    72    70    73    1
    73    70    71    1
    74     8     6    1
    75    73    74    1
    76   107   104    1
    77    58    53   am
    78    91    90    1
    79    91    92    1
    80    76    75    1
    81    57    55    1
    82     5     6    1
    83     5     2    1
    84   118   115    1
    85     6     7    1
    86    71    72    2
    87    71    80   am
    88    74    75    1
    89    53    52    1
    90    53    54    2
    91   104   105    1
    92   104   103    1
    93     4     3    2
    94    80    81    1
    95   105   114   am
    96   105   106    2
    97    92    93    2
    98     1     2    1
    99   114   115    1
   100    52    55    1
   101    52    51    1
   102    55    56    1
   103     2     3    1
   104   103    99   am
   105   115   116    1
   106   134   133    1
   107    82    81    1
   108    82    83    2
   109    81    84    1
   110    99    98    1
   111    99   100    2
   112    86    88   ar
   113    86    85   ar
   114   116   117    2
   115   116   125   am
   116    84    85    1
   117   102   101    1
   118   133   132    2
   119   133   135    1
   120   132   131    1
   121    98   101    1
   122    98    97    1
   123   125   126    1
   124    88    89   ar
   125    85    87   ar
   126   130   131    1
   127   130   129    1
   128    89    87   ar
   129   126   129    1
   130   126   127    1
   131   127   128    2
