@<TRIPOS>MOLECULE
tmp/4yw1A01.pdb
 100 98 0 0 0
SMALL
GASTEIGER

@<TRIPOS>ATOM
      1  N         29.8710   18.6470   43.0640 N.3   194  LEU194     -0.1245
      2  CA        29.4380   19.0340   44.3920 C.3   194  LEU194      0.1561
      3  C         29.7080   20.5170   44.5660 C.2   194  LEU194      0.2260
      4  O         30.8010   20.9800   44.3080 O.2   194  LEU194     -0.2867
      5  CB        30.2010   18.2560   45.4340 C.3   194  LEU194      0.0270
      6  CG        30.0050   16.7480   45.3550 C.3   194  LEU194      0.0019
      7  CD1       30.9720   16.0590   46.2820 C.3   194  LEU194      0.0001
      8  CD2       28.5800   16.3700   45.7020 C.3   194  LEU194      0.0001
      9  N         28.4300   22.1240   47.6370 N.3   196  TYR196     -0.1241
     10  CA        28.6450   22.0360   49.0640 C.3   196  TYR196      0.1605
     11  C         29.3290   20.7010   49.3560 C.2   196  TYR196      0.2264
     12  O         28.9380   19.6800   48.7850 O.2   196  TYR196     -0.2867
     13  CB        27.2920   22.1630   49.7730 C.3   196  TYR196      0.0534
     14  CG        26.5450   23.4260   49.3910 C.ar  196  TYR196     -0.0201
     15  CD1       26.8160   24.6240   50.0160 C.ar  196  TYR196     -0.0009
     16  CD2       25.5670   23.4120   48.3710 C.ar  196  TYR196     -0.0009
     17  CE1       26.1400   25.8020   49.6690 C.ar  196  TYR196      0.0417
     18  CE2       24.8850   24.5770   48.0060 C.ar  196  TYR196      0.0417
     19  CZ        25.1670   25.7780   48.6550 C.ar  196  TYR196      0.1957
     20  OH        24.5120   26.9440   48.3260 O.3   196  TYR196     -0.2866
     21  N         27.1890   17.7350   56.6040 N.3   206  TYR206     -0.1227
     22  CA        25.9860   17.2740   55.9290 C.3   206  TYR206      0.1736
     23  C         25.1270   18.4170   55.4170 C.2   206  TYR206      0.2595
     24  O         25.1620   19.5370   55.9330 O.2   206  TYR206     -0.2718
     25  CB        25.1420   16.3780   56.8510 C.3   206  TYR206      0.0548
     26  CG        25.9290   15.4060   57.6640 C.ar  206  TYR206     -0.0200
     27  CD1       26.2650   14.1790   57.1470 C.ar  206  TYR206     -0.0009
     28  CD2       26.3650   15.7270   58.9460 C.ar  206  TYR206     -0.0009
     29  CE1       26.9930   13.2730   57.8750 C.ar  206  TYR206      0.0417
     30  CE2       27.1160   14.8360   59.6760 C.ar  206  TYR206      0.0417
     31  CZ        27.4270   13.6080   59.1350 C.ar  206  TYR206      0.1957
     32  OH        28.1610   12.6850   59.8250 O.3   206  TYR206     -0.2866
     33  N         24.3090   18.0760   54.4310 N.am  207  PHE207     -0.1976
     34  CA        23.4800   19.0190   53.6810 C.3   207  PHE207      0.1639
     35  C         22.2070   18.3430   53.2140 C.2   207  PHE207      0.2290
     36  O         22.1710   17.1180   52.9710 O.2   207  PHE207     -0.2864
     37  CB        24.2050   19.6440   52.4740 C.3   207  PHE207      0.0560
     38  CG        25.5240   20.2660   52.8100 C.ar  207  PHE207     -0.0200
     39  CD1       25.5990   21.6030   53.1810 C.ar  207  PHE207     -0.0042
     40  CD2       26.6910   19.5180   52.7530 C.ar  207  PHE207     -0.0042
     41  CE1       26.8200   22.1780   53.5060 C.ar  207  PHE207     -0.0003
     42  CE2       27.9080   20.0820   53.0620 C.ar  207  PHE207     -0.0003
     43  CZ        27.9780   21.4180   53.4360 C.ar  207  PHE207     -0.0000
     44  N         21.6590   14.4410   59.2280 N.3   231  THR231     -0.1218
     45  CA        20.7120   14.9790   58.2710 C.3   231  THR231      0.1862
     46  C         19.2900   15.0560   58.8530 C.2   231  THR231      0.2287
     47  O         18.3490   15.3760   58.1110 O.2   231  THR231     -0.2866
     48  CB        20.6770   14.1050   56.9930 C.3   231  THR231      0.1770
     49  OG1       20.4190   12.7400   57.3530 O.3   231  THR231     -0.2211
     50  CG2       21.9800   14.1880   56.2420 C.3   231  THR231      0.0375
     51  N         20.3140   10.4400   47.0400 N.3   631  PHE631     -0.1241
     52  CA        20.1150    9.4280   48.0680 C.3   631  PHE631      0.1605
     53  C         18.6530    9.4770   48.4690 C.2   631  PHE631      0.2264
     54  O         17.9220   10.3830   48.0590 O.2   631  PHE631     -0.2867
     55  CB        21.0400    9.6110   49.2990 C.3   631  PHE631      0.0534
     56  CG        20.7760   10.8650   50.1380 C.ar  631  PHE631     -0.0203
     57  CD1       21.1540   12.1170   49.6910 C.ar  631  PHE631     -0.0042
     58  CD2       20.2420   10.7600   51.4320 C.ar  631  PHE631     -0.0042
     59  CE1       20.9440   13.2420   50.4740 C.ar  631  PHE631     -0.0003
     60  CE2       20.0370   11.8770   52.2140 C.ar  631  PHE631     -0.0003
     61  CZ        20.3980   13.1270   51.7450 C.ar  631  PHE631     -0.0000
     62  N         24.9470   10.8710   55.5650 N.3   641  MET641     -0.1230
     63  CA        25.9380   10.5420   54.5560 C.3   641  MET641      0.1702
     64  C         26.5370   11.8160   54.0070 C.2   641  MET641      0.2592
     65  O         25.8250   12.8060   53.8310 O.2   641  MET641     -0.2718
     66  CB        25.3100    9.7260   53.4550 C.3   641  MET641      0.0401
     67  CG        24.6330    8.4740   53.9700 C.3   641  MET641      0.0596
     68  SD        24.3260    7.2590   52.6680 S.3   641  MET641     -0.1393
     69  CE        23.2410    8.2060   51.6080 C.3   641  MET641      0.0692
     70  N         27.8530   11.8090   53.7720 N.am  642  LYS642     -0.1966
     71  CA        28.5680   12.9770   53.2400 C.3   642  LYS642      0.1728
     72  C         28.5710   13.0110   51.7100 C.2   642  LYS642      0.2616
     73  O         28.6630   11.9640   51.0540 O.2   642  LYS642     -0.2715
     74  CB        30.0170   12.9840   53.7240 C.3   642  LYS642      0.0311
     75  CG        30.2140   13.0190   55.2390 C.3   642  LYS642      0.0038
     76  CD        31.7070   12.9750   55.5890 C.3   642  LYS642      0.0206
     77  CE        31.9420   12.8000   57.0880 C.3   642  LYS642      0.1093
     78  NZ        33.3890   12.5880   57.3850 N.3   642  LYS642     -0.1314
     79  N         28.5060   14.2240   51.1680 N.am  643  ASN643     -0.1958
     80  CA        28.7770   14.4970   49.7570 C.3   643  ASN643      0.1819
     81  C         27.8730   13.7950   48.7420 C.2   643  ASN643      0.2621
     82  O         28.3440   13.0930   47.8420 O.2   643  ASN643     -0.2715
     83  CB        30.2780   14.2480   49.4720 C.3   643  ASN643      0.1195
     84  CG        31.1720   15.2190   50.2290 C.2   643  ASN643      0.2630
     85  OD1       30.7010   16.2000   50.8090 O.2   643  ASN643     -0.2716
     86  ND2       32.4520   14.9580   50.2200 N.am  643  ASN643     -0.0877
     87  N         26.5800   14.0440   48.9020 N.am  644  VAL644     -0.1963
     88  CA        25.5010   13.3750   48.1840 C.3   644  VAL644      0.1727
     89  C         24.4340   14.3380   47.6620 C.2   644  VAL644      0.2616
     90  O         23.2690   13.9280   47.4610 O.2   644  VAL644     -0.2715
     91  CB        24.8020   12.3110   49.0890 C.3   644  VAL644      0.0290
     92  CG1       25.7350   11.1380   49.3780 C.3   644  VAL644      0.0023
     93  CG2       24.3060   12.9200   50.3970 C.3   644  VAL644      0.0023
     94  N         24.8010   15.6090   47.4440 N.am  645  VAL645     -0.1977
     95  CA        23.8640   16.6140   46.9010 C.3   645  VAL645      0.1596
     96  C         24.5350   17.2850   45.6930 C.2   645  VAL645      0.2287
     97  O         25.0570   18.3780   45.7960 O.2   645  VAL645     -0.2864
     98  CB        23.3970   17.6530   47.9440 C.3   645  VAL645      0.0276
     99  CG1       22.3420   18.5670   47.3520 C.3   645  VAL645      0.0022
    100  CG2       22.8080   16.9610   49.1660 C.3   645  VAL645      0.0022
@<TRIPOS>BOND
     1     1     2    1
     2     4     3    2
     3     2     3    1
     4     2     5    1
     5     6     5    1
     6     6     8    1
     7     6     7    1
     8    96    97    2
     9    96    95    1
    10    95    94    1
    11    95    98    1
    12    51    52    1
    13    99    98    1
    14    94    89   am
    15    90    89    2
    16     9    10    1
    17    89    88    1
    18    82    81    2
    19    98   100    1
    20    18    16   ar
    21    18    19   ar
    22    54    53    2
    23    52    53    1
    24    52    55    1
    25    88    87    1
    26    88    91    1
    27    20    19    1
    28    16    14   ar
    29    19    17   ar
    30    81    87   am
    31    81    80    1
    32    12    11    2
    33    10    11    1
    34    10    13    1
    35    91    92    1
    36    91    93    1
    37    55    56    1
    38    14    13    1
    39    14    15   ar
    40    83    80    1
    41    83    84    1
    42    17    15   ar
    43    57    56   ar
    44    57    59   ar
    45    80    79    1
    46    56    58   ar
    47    86    84   am
    48    84    85    2
    49    59    61   ar
    50    73    72    2
    51    79    72   am
    52    58    60   ar
    53    69    68    1
    54    72    71    1
    55    61    60   ar
    56    37    38    1
    57    37    34    1
    58    68    67    1
    59    40    38   ar
    60    40    42   ar
    61    38    39   ar
    62    36    35    2
    63    42    43   ar
    64    39    41   ar
    65    35    34    1
    66    71    74    1
    67    71    70    1
    68    43    41   ar
    69    66    67    1
    70    66    63    1
    71    34    33    1
    72    74    75    1
    73    70    64   am
    74    65    64    2
    75    64    63    1
    76    33    23   am
    77    63    62    1
    78    75    76    1
    79    23    22    1
    80    23    24    2
    81    76    77    1
    82    22    21    1
    83    22    25    1
    84    50    48    1
    85    25    26    1
    86    48    49    1
    87    48    45    1
    88    77    78    1
    89    27    26   ar
    90    27    29   ar
    91    26    28   ar
    92    29    31   ar
    93    47    46    2
    94    45    46    1
    95    45    44    1
    96    28    30   ar
    97    31    30   ar
    98    31    32    1
