@<TRIPOS>MOLECULE
tmp/4yw2A01.pdb
 100 93 0 0 0
SMALL
GASTEIGER

@<TRIPOS>ATOM
      1  N         24.4660   -7.9600   42.1460 N.3    46  LEU46      -0.1245
      2  CA        25.5760   -7.6350   43.0280 C.3    46  LEU46       0.1561
      3  C         26.8520   -7.9180   42.2590 C.2    46  LEU46       0.2260
      4  O         27.0590   -9.0390   41.8270 O.2    46  LEU46      -0.2867
      5  CB        25.4750   -8.4860   44.2990 C.3    46  LEU46       0.0270
      6  CG        26.6520   -8.3630   45.2790 C.3    46  LEU46       0.0019
      7  CD1       26.7690   -6.9220   45.7440 C.3    46  LEU46       0.0001
      8  CD2       26.3990   -9.3140   46.4420 C.3    46  LEU46       0.0001
      9  N         33.0150  -19.0940   51.9090 N.3    61  ASN61      -0.1240
     10  CA        33.0040  -17.8940   52.7710 C.3    61  ASN61       0.1653
     11  C         34.3850  -17.3750   53.2000 C.2    61  ASN61       0.2266
     12  O         34.5310  -16.7170   54.2410 O.2    61  ASN61      -0.2867
     13  CB        32.1380  -18.1860   53.9980 C.3    61  ASN61       0.1155
     14  CG        30.7030  -18.4420   53.6150 C.2    61  ASN61       0.2627
     15  OD1       30.2570  -18.0610   52.5250 O.2    61  ASN61      -0.2716
     16  ND2       29.9750  -19.0950   54.4890 N.am   61  ASN61      -0.0877
     17  N         36.7980  -14.9890   51.5270 N.3    63  TYR63      -0.1241
     18  CA        37.1580  -14.0310   50.4910 C.3    63  TYR63       0.1605
     19  C         37.1170  -12.5800   50.9390 C.2    63  TYR63       0.2264
     20  O         36.5270  -12.2310   51.9680 O.2    63  TYR63      -0.2867
     21  CB        36.2350  -14.1650   49.2660 C.3    63  TYR63       0.0534
     22  CG        34.7710  -13.8420   49.5270 C.ar   63  TYR63      -0.0201
     23  CD1       34.2660  -12.5480   49.3630 C.ar   63  TYR63      -0.0009
     24  CD2       33.8720  -14.8460   49.8680 C.ar   63  TYR63      -0.0009
     25  CE1       32.9180  -12.2690   49.5960 C.ar   63  TYR63       0.0417
     26  CE2       32.5310  -14.5700   50.0830 C.ar   63  TYR63       0.0417
     27  CZ        32.0640  -13.2810   49.9520 C.ar   63  TYR63       0.1957
     28  OH        30.7190  -13.0240   50.1740 O.3    63  TYR63      -0.2866
     29  N         32.3800   -4.3910   46.2660 N.3    67  PHE67      -0.1241
     30  CA        31.1690   -4.6430   45.4820 C.3    67  PHE67       0.1605
     31  C         30.3510   -3.3830   45.2550 C.2    67  PHE67       0.2264
     32  O         30.4170   -2.4130   46.0500 O.2    67  PHE67      -0.2867
     33  CB        30.2970   -5.7470   46.1280 C.3    67  PHE67       0.0534
     34  CG        29.7280   -5.3930   47.4880 C.ar   67  PHE67      -0.0203
     35  CD1       28.5820   -4.6290   47.6110 C.ar   67  PHE67      -0.0042
     36  CD2       30.3370   -5.8530   48.6640 C.ar   67  PHE67      -0.0042
     37  CE1       28.0520   -4.3450   48.8460 C.ar   67  PHE67      -0.0003
     38  CE2       29.7880   -5.5570   49.9120 C.ar   67  PHE67      -0.0003
     39  CZ        28.6510   -4.8210   50.0050 C.ar   67  PHE67      -0.0000
     40  N         26.1240   -2.3730   44.2570 N.3    69  ARG69      -0.1245
     41  CA        24.7220   -2.7960   44.0890 C.3    69  ARG69       0.1563
     42  C         24.0470   -1.8770   43.1220 C.2    69  ARG69       0.2260
     43  O         24.5460   -0.7860   42.8120 O.2    69  ARG69      -0.2867
     44  CB        23.9520   -2.7730   45.4040 C.3    69  ARG69       0.0307
     45  CG        24.5620   -3.6050   46.5000 C.3    69  ARG69       0.0489
     46  CD        23.6420   -3.5830   47.7070 C.3    69  ARG69       0.2205
     47  NE        24.2110   -4.2230   48.8710 N.pl3  69  ARG69      -0.0865
     48  CZ        24.2310   -5.5470   49.0840 C.cat  69  ARG69       0.5346
     49  NH1       23.6950   -6.4040   48.2130 N.pl3  69  ARG69       0.1354
     50  NH2       24.7740   -6.0140   50.2000 N.pl3  69  ARG69       0.1354
     51  N         33.4160   -6.8660   51.4610 N.3    77  GLU77      -0.1245
     52  CA        33.3760   -7.9840   52.4010 C.3    77  GLU77       0.1567
     53  C         34.7920   -8.5220   52.6550 C.2    77  GLU77       0.2260
     54  O         35.6950   -8.4210   51.8000 O.2    77  GLU77      -0.2867
     55  CB        32.4910   -9.1370   51.8960 C.3    77  GLU77       0.0388
     56  CG        31.0990   -8.7450   51.4390 C.3    77  GLU77       0.1160
     57  CD        30.1740   -9.9390   51.3790 C.2    77  GLU77       0.3649
     58  OE1       29.7210  -10.3470   52.4510 O.co2  77  GLU77      -0.2457
     59  OE2       29.8760  -10.4550   50.2830 O.co2  77  GLU77      -0.2457
     60  N         35.8580  -12.0740   54.6980 N.3    79  ARG79      -0.1245
     61  CA        35.2780  -13.2300   55.3750 C.3    79  ARG79       0.1563
     62  C         36.2700  -14.3780   55.4420 C.2    79  ARG79       0.2260
     63  O         37.0420  -14.5900   54.5030 O.2    79  ARG79      -0.2867
     64  CB        34.0380  -13.6980   54.6220 C.3    79  ARG79       0.0307
     65  CG        33.0280  -12.5940   54.3490 C.3    79  ARG79       0.0489
     66  CD        31.8520  -13.0940   53.5370 C.3    79  ARG79       0.2205
     67  NE        31.0270  -14.0150   54.3220 N.pl3  79  ARG79      -0.0865
     68  CZ        30.0150  -14.7430   53.8420 C.cat  79  ARG79       0.5346
     69  NH1       29.6450  -14.6580   52.5670 N.pl3  79  ARG79       0.1354
     70  NH2       29.3530  -15.5520   54.6570 N.pl3  79  ARG79       0.1354
     71  N         31.4120   -6.9010   56.8320 N.3    88  LEU88      -0.1245
     72  CA        30.8100   -6.1830   55.6960 C.3    88  LEU88       0.1561
     73  C         30.7810   -4.7170   56.1010 C.2    88  LEU88       0.2260
     74  O         30.2830   -4.3840   57.1480 O.2    88  LEU88      -0.2867
     75  CB        29.4240   -6.7140   55.4010 C.3    88  LEU88       0.0270
     76  CG        28.7770   -6.2500   54.0780 C.3    88  LEU88       0.0019
     77  CD1       27.6470   -7.1860   53.6670 C.3    88  LEU88       0.0001
     78  CD2       28.2320   -4.8360   54.2060 C.3    88  LEU88       0.0001
     79  N         34.3090  -18.6910   44.0160 N.3   155  ARG155     -0.1245
     80  CA        33.7650  -19.4470   45.1410 C.3   155  ARG155      0.1563
     81  C         33.4220  -20.8660   44.6990 C.2   155  ARG155      0.2260
     82  O         32.6190  -21.0710   43.7810 O.2   155  ARG155     -0.2867
     83  CB        32.5000  -18.7810   45.6660 C.3   155  ARG155      0.0307
     84  CG        32.7250  -17.3250   46.0250 C.3   155  ARG155      0.0489
     85  CD        31.4470  -16.6820   46.5010 C.3   155  ARG155      0.2205
     86  NE        31.1070  -17.0420   47.8720 N.pl3 155  ARG155     -0.0865
     87  CZ        29.9430  -16.7880   48.4640 C.cat 155  ARG155      0.5346
     88  NH1       28.9410  -16.1700   47.8100 N.pl3 155  ARG155      0.1354
     89  NH2       29.7740  -17.1430   49.7250 N.pl3 155  ARG155      0.1354
     90  N         29.3070  -13.0020   41.6720 N.3   161  PHE161     -0.1241
     91  CA        29.2030  -11.5410   41.6600 C.3   161  PHE161      0.1605
     92  C         29.8590  -10.9450   40.4200 C.2   161  PHE161      0.2264
     93  O         30.6140   -9.9760   40.5190 O.2   161  PHE161     -0.2867
     94  CB        29.8750  -10.9450   42.9040 C.3   161  PHE161      0.0534
     95  CG        29.5280  -11.6460   44.2180 C.ar  161  PHE161     -0.0203
     96  CD1       28.2070  -11.9210   44.5590 C.ar  161  PHE161     -0.0042
     97  CD2       30.5390  -11.9890   45.1340 C.ar  161  PHE161     -0.0042
     98  CE1       27.8910  -12.5480   45.7770 C.ar  161  PHE161     -0.0003
     99  CE2       30.2300  -12.6070   46.3520 C.ar  161  PHE161     -0.0003
    100  CZ        28.8940  -12.8520   46.6890 C.ar  161  PHE161     -0.0000
@<TRIPOS>BOND
     1    92    93    2
     2    92    91    1
     3    91    90    1
     4    91    94    1
     5     4     3    2
     6     1     2    1
     7     3     2    1
     8    43    42    2
     9    94    95    1
    10     2     5    1
    11    42    41    1
    12    82    81    2
    13    79    80    1
    14    41    40    1
    15    41    44    1
    16    95    96   ar
    17    95    97   ar
    18     5     6    1
    19    96    98   ar
    20    81    80    1
    21    97    99   ar
    22    80    83    1
    23    31    30    1
    24    31    32    2
    25     6     7    1
    26     6     8    1
    27    44    45    1
    28    30    33    1
    29    30    29    1
    30    83    84    1
    31    98   100   ar
    32    84    85    1
    33    33    34    1
    34    99   100   ar
    35    45    46    1
    36    85    86    1
    37    34    35   ar
    38    34    36   ar
    39    35    37   ar
    40    46    47    1
    41    88    87    1
    42    86    87    2
    43    49    48    1
    44    87    89    1
    45    36    38   ar
    46    37    39   ar
    47    47    48    2
    48    48    50    1
    49    21    22    1
    50    21    18    1
    51    23    22   ar
    52    23    25   ar
    53    22    24   ar
    54    25    27   ar
    55    24    26   ar
    56    38    39   ar
    57    27    26   ar
    58    27    28    1
    59    59    57   ar
    60    18    19    1
    61    18    17    1
    62    19    20    2
    63    57    56    1
    64    57    58   ar
    65    56    55    1
    66    51    52    1
    67    54    53    2
    68    55    52    1
    69     9    10    1
    70    52    53    1
    71    15    14    2
    72    69    68    1
    73    10    11    1
    74    10    13    1
    75    11    12    2
    76    66    67    1
    77    66    65    1
    78    14    13    1
    79    14    16   am
    80    77    76    1
    81    68    67    2
    82    68    70    1
    83    76    78    1
    84    76    75    1
    85    65    64    1
    86    63    62    2
    87    64    61    1
    88    60    61    1
    89    61    62    1
    90    75    72    1
    91    72    73    1
    92    72    71    1
    93    73    74    2
