@<TRIPOS>MOLECULE
tmp/4yw6B00.pdb
 102 98 0 0 0
SMALL
GASTEIGER

@<TRIPOS>ATOM
      1  N         -6.4390   14.2610  -22.4530 N.3    36  TYR36      -0.1227
      2  CA        -6.1550   15.6780  -22.6310 C.3    36  TYR36       0.1736
      3  C         -6.6200   16.1570  -24.0050 C.2    36  TYR36       0.2596
      4  O         -6.3120   17.2740  -24.3870 O.2    36  TYR36      -0.2718
      5  CB        -4.6480   15.9230  -22.4560 C.3    36  TYR36       0.0548
      6  CG        -3.7930   15.0620  -23.3560 C.ar   36  TYR36      -0.0200
      7  CD1       -3.3720   13.7760  -22.9670 C.ar   36  TYR36      -0.0009
      8  CD2       -3.4150   15.5220  -24.6170 C.ar   36  TYR36      -0.0009
      9  CE1       -2.5810   12.9910  -23.8320 C.ar   36  TYR36       0.0417
     10  CE2       -2.6570   14.7470  -25.4760 C.ar   36  TYR36       0.0417
     11  CZ        -2.2130   13.4880  -25.0740 C.ar   36  TYR36       0.1957
     12  OH        -1.4370   12.7220  -25.9260 O.3    36  TYR36      -0.2866
     13  N         -7.3650   15.3250  -24.7270 N.am   37  GLY37      -0.1943
     14  CA        -7.9440   15.7440  -26.0040 C.3    37  GLY37       0.1998
     15  C         -8.2090   14.5980  -26.9660 C.2    37  GLY37       0.2480
     16  O         -9.2900   14.5080  -27.5250 O.2    37  GLY37      -0.2729
     17  N         -7.2400   13.6900  -27.1480 N.am   38  PRO38      -0.2726
     18  CA        -7.4500   12.5670  -28.0780 C.3    38  PRO38       0.1402
     19  C         -8.5550   11.6230  -27.6410 C.2    38  PRO38       0.2269
     20  O         -8.9850   11.6690  -26.5040 O.2    38  PRO38      -0.2865
     21  CB        -6.1020   11.8490  -28.0670 C.3    38  PRO38       0.0296
     22  CG        -5.1150   12.9240  -27.7280 C.3    38  PRO38       0.0237
     23  CD        -5.8370   13.7880  -26.7150 C.3    38  PRO38       0.0939
     24  N          4.3000    9.1740  -24.2050 N.3    49  GLU49      -0.1231
     25  CA         4.7460    9.4530  -25.5790 C.3    49  GLU49       0.1699
     26  C          4.5420   10.8980  -26.0070 C.2    49  GLU49       0.2592
     27  O          4.9650   11.2900  -27.0970 O.2    49  GLU49      -0.2718
     28  CB         4.0190    8.5210  -26.5710 C.3    49  GLU49       0.0402
     29  CG         4.3380    7.0320  -26.3440 C.3    49  GLU49       0.1161
     30  CD         3.7210    6.1220  -27.3840 C.2    49  GLU49       0.3649
     31  OE1        2.9680    6.6200  -28.2490 O.co2  49  GLU49      -0.2457
     32  OE2        3.9910    4.9010  -27.3320 O.co2  49  GLU49      -0.2457
     33  N          3.8740   11.6900  -25.1860 N.am   50  HIS50      -0.1962
     34  CA         3.4650   13.0300  -25.5840 C.3    50  HIS50       0.1772
     35  C          4.4650   14.1090  -25.1490 C.2    50  HIS50       0.2462
     36  O          4.8750   14.1480  -23.9970 O.2    50  HIS50      -0.2730
     37  CB         2.0940   13.3260  -24.9780 C.3    50  HIS50       0.0785
     38  CG         1.4570   14.5660  -25.5160 C.ar   50  HIS50       0.0821
     39  ND1        1.0430   14.6730  -26.8290 N.ar   50  HIS50      -0.2267
     40  CD2        1.1810   15.7570  -24.9340 C.ar   50  HIS50       0.1154
     41  CE1        0.5210   15.8730  -27.0230 C.ar   50  HIS50       0.1986
     42  NE2        0.5890   16.5470  -25.8880 N.ar   50  HIS50      -0.2212
     43  N          4.8780   15.0030  -26.0670 N.am   51  PRO51      -0.2727
     44  CA         5.8350   16.0440  -25.6660 C.3    51  PRO51       0.1402
     45  C          5.2150   17.0570  -24.7110 C.2    51  PRO51       0.2269
     46  O          4.0240   17.3600  -24.8410 O.2    51  PRO51      -0.2865
     47  CB         6.2130   16.7200  -26.9940 C.3    51  PRO51       0.0296
     48  CG         5.0230   16.5050  -27.8690 C.3    51  PRO51       0.0237
     49  CD         4.4610   15.1430  -27.4720 C.3    51  PRO51       0.0939
     50  N          4.4320   20.5610  -23.8040 N.3    53  GLN53      -0.1245
     51  CA         4.2400   21.8030  -24.5790 C.3    53  GLN53       0.1566
     52  C          3.8290   22.9560  -23.6590 C.2    53  GLN53       0.2260
     53  O          3.1380   23.8960  -24.0840 O.2    53  GLN53      -0.2867
     54  CB         3.1620   21.6380  -25.6590 C.3    53  GLN53       0.0367
     55  CG         3.3960   20.4860  -26.6080 C.3    53  GLN53       0.0905
     56  CD         2.3710   20.4410  -27.7250 C.2    53  GLN53       0.2608
     57  OE1        2.7360   20.4140  -28.9060 O.2    53  GLN53      -0.2717
     58  NE2        1.0840   20.4520  -27.3690 N.am   53  GLN53      -0.0878
     59  N          3.2630   22.2150  -19.8630 N.3    55  LEU55      -0.1245
     60  CA         2.4460   21.6120  -18.8070 C.3    55  LEU55       0.1561
     61  C          2.5620   22.3640  -17.4900 C.2    55  LEU55       0.2260
     62  O          3.5950   22.9640  -17.1920 O.2    55  LEU55      -0.2867
     63  CB         2.9040   20.1750  -18.6040 C.3    55  LEU55       0.0270
     64  CG         2.6730   19.2770  -19.8150 C.3    55  LEU55       0.0019
     65  CD1        3.4640   17.9760  -19.6650 C.3    55  LEU55       0.0001
     66  CD2        1.1870   19.0100  -20.0480 C.3    55  LEU55       0.0001
     67  N          1.9870   14.6190  -19.6570 N.3    62  CYS62      -0.1235
     68  CA         0.6900   15.1790  -19.9790 C.3    62  CYS62       0.1677
     69  C         -0.3510   14.1180  -19.6530 C.2    62  CYS62       0.2270
     70  O         -0.2080   12.9520  -20.0270 O.2    62  CYS62      -0.2867
     71  CB         0.6760   15.5550  -21.4510 C.3    62  CYS62       0.0956
     72  SG        -0.8370   16.3930  -21.9240 S.3    62  CYS62      -0.0801
     73  N         -2.1400   19.3920  -17.7290 N.3   100  ASP100     -0.1225
     74  CA        -2.2720   19.7960  -19.1350 C.3   100  ASP100      0.1805
     75  C         -1.6670   21.1890  -19.2620 C.2   100  ASP100      0.2597
     76  O         -1.2110   21.7840  -18.2690 O.2   100  ASP100     -0.2718
     77  CB        -3.7510   19.7530  -19.5510 C.3   100  ASP100      0.1424
     78  CG        -3.9530   19.5630  -21.0450 C.2   100  ASP100      0.3668
     79  OD1       -2.9610   19.5820  -21.8200 O.co2 100  ASP100     -0.2456
     80  OD2       -5.1400   19.4090  -21.4370 O.co2 100  ASP100     -0.2456
     81  N         -1.6610   21.7110  -20.4880 N.am  101  VAL101     -0.1980
     82  CA        -1.1850   23.0680  -20.7560 C.3   101  VAL101      0.1595
     83  C         -2.2860   24.0800  -20.4040 C.2   101  VAL101      0.2287
     84  O         -3.4390   23.9040  -20.8040 O.2   101  VAL101     -0.2864
     85  CB        -0.7890   23.1480  -22.2280 C.3   101  VAL101      0.0276
     86  CG1       -0.4060   24.5960  -22.6080 C.3   101  VAL101      0.0022
     87  CG2        0.3610   22.1970  -22.4830 C.3   101  VAL101      0.0022
     88  N         -5.7950   24.9140  -22.2960 N.3   104  THR104     -0.1218
     89  CA        -6.1320   23.7910  -23.1830 C.3   104  THR104      0.1862
     90  C         -7.0070   22.7050  -22.5330 C.2   104  THR104      0.2287
     91  O         -7.1530   21.6140  -23.0710 O.2   104  THR104     -0.2866
     92  CB        -4.8850   23.1390  -23.8400 C.3   104  THR104      0.1770
     93  OG1       -4.1940   22.3110  -22.8840 O.3   104  THR104     -0.2211
     94  CG2       -3.9500   24.2060  -24.3940 C.3   104  THR104      0.0375
     95  N        -11.0690   20.6440  -24.0010 N.3   107  ASN107     -0.1240
     96  CA       -11.3130   19.4130  -24.7430 C.3   107  ASN107      0.1653
     97  C        -10.9440   18.1520  -23.9620 C.2   107  ASN107      0.2266
     98  O        -10.8830   17.0850  -24.5350 O.2   107  ASN107     -0.2867
     99  CB       -10.5680   19.4260  -26.0770 C.3   107  ASN107      0.1155
    100  CG        -9.0510   19.3770  -25.9080 C.2   107  ASN107      0.2627
    101  OD1       -8.5200   19.5900  -24.8210 O.2   107  ASN107     -0.2716
    102  ND2       -8.3480   19.1340  -27.0190 N.am  107  ASN107     -0.0877
@<TRIPOS>BOND
     1    57    56    2
     2    31    30   ar
     3    18    21    1
     4    18    19    1
     5    18    17    1
     6    21    22    1
     7    48    49    1
     8    48    47    1
     9    22    23    1
    10    56    58   am
    11    56    55    1
    12    19    20    2
    13    16    15    2
    14    49    43    1
    15    30    32   ar
    16    30    29    1
    17    17    15   am
    18    17    23    1
    19    27    26    2
    20    41    39   ar
    21    41    42   ar
    22   102   100   am
    23    47    44    1
    24    15    14    1
    25    39    38   ar
    26    55    54    1
    27    28    29    1
    28    28    25    1
    29    99   100    1
    30    99    96    1
    31    43    44    1
    32    43    35   am
    33    26    25    1
    34    26    33   am
    35    14    13    1
    36    12    11    1
    37   100   101    2
    38    42    40   ar
    39    44    45    1
    40    54    51    1
    41    34    33    1
    42    34    35    1
    43    34    37    1
    44    25    24    1
    45    38    37    1
    46    38    40   ar
    47    10    11   ar
    48    10     8   ar
    49    35    36    2
    50    11     9   ar
    51    46    45    2
    52    96    95    1
    53    96    97    1
    54    13     3   am
    55     8     6   ar
    56    51    50    1
    57    51    52    1
    58    98    97    2
    59    94    92    1
    60     4     3    2
    61    53    52    2
    62     3     2    1
    63    92    89    1
    64    92    93    1
    65     9     7   ar
    66     6     7   ar
    67     6     5    1
    68    89    90    1
    69    89    88    1
    70    91    90    2
    71     2     5    1
    72     2     1    1
    73    86    85    1
    74    87    85    1
    75    85    82    1
    76    72    71    1
    77    79    78   ar
    78    71    68    1
    79    80    78   ar
    80    78    77    1
    81    84    83    2
    82    82    81    1
    83    82    83    1
    84    81    75   am
    85    66    64    1
    86    70    69    2
    87    68    67    1
    88    68    69    1
    89    59    60    1
    90    64    65    1
    91    64    63    1
    92    77    74    1
    93    75    74    1
    94    75    76    2
    95    74    73    1
    96    60    63    1
    97    60    61    1
    98    61    62    2
