@<TRIPOS>MOLECULE
tmp/4yw7C00.pdb
 114 111 0 0 0
SMALL
GASTEIGER

@<TRIPOS>ATOM
      1  N         -4.1040  -22.9830    2.2980 N.3    36  TYR36      -0.1227
      2  CA        -5.5340  -23.2400    2.3350 C.3    36  TYR36       0.1736
      3  C         -5.7910  -24.6960    2.6910 C.2    36  TYR36       0.2596
      4  O         -6.9120  -25.1900    2.5660 O.2    36  TYR36      -0.2718
      5  CB        -6.1800  -22.8950    0.9920 C.3    36  TYR36       0.0548
      6  CG        -5.5440  -23.5970   -0.1880 C.ar   36  TYR36      -0.0200
      7  CD1       -4.4510  -23.0440   -0.8470 C.ar   36  TYR36      -0.0009
      8  CD2       -6.0380  -24.8110   -0.6470 C.ar   36  TYR36      -0.0009
      9  CE1       -3.8700  -23.6840   -1.9270 C.ar   36  TYR36       0.0417
     10  CE2       -5.4660  -25.4530   -1.7230 C.ar   36  TYR36       0.0417
     11  CZ        -4.3880  -24.8920   -2.3600 C.ar   36  TYR36       0.1957
     12  OH        -3.8250  -25.5470   -3.4310 O.3    36  TYR36      -0.2866
     13  N         -4.7480  -25.3830    3.1360 N.am   37  GLY37      -0.1943
     14  CA        -4.8870  -26.7760    3.5170 C.3    37  GLY37       0.1998
     15  C         -3.6310  -27.6000    3.3200 C.2    37  GLY37       0.2481
     16  O         -3.1890  -28.2790    4.2450 O.2    37  GLY37      -0.2729
     17  N         -3.0650  -27.5690    2.1040 N.am   38  PRO38      -0.2715
     18  CA        -1.8540  -28.3350    1.7900 C.3    38  PRO38       0.1536
     19  C         -0.6800  -28.0110    2.7070 C.2    38  PRO38       0.2599
     20  O         -0.6350  -26.9410    3.3150 O.2    38  PRO38      -0.2715
     21  CB        -1.5470  -27.9210    0.3480 C.3    38  PRO38       0.0310
     22  CG        -2.8770  -27.5820   -0.2230 C.3    38  PRO38       0.0237
     23  CD        -3.6610  -26.9640    0.9010 C.3    38  PRO38       0.0939
     24  N          0.2600  -28.9440    2.7990 N.am   39  THR39      -0.1951
     25  CA         1.4440  -28.7650    3.6240 C.3    39  THR39       0.1897
     26  C          2.2340  -27.5350    3.1820 C.2    39  THR39       0.2313
     27  O          2.7550  -26.7930    4.0120 O.2    39  THR39      -0.2863
     28  CB         2.3460  -30.0150    3.5760 C.3    39  THR39       0.1794
     29  OG1        2.7190  -30.2840    2.2200 O.3    39  THR39      -0.2208
     30  CG2        1.6060  -31.2210    4.1180 C.3    39  THR39       0.0378
     31  N          1.9710  -20.6480    0.4140 N.3    42  TRP42      -0.1241
     32  CA         2.0720  -19.7510   -0.7250 C.3    42  TRP42       0.1605
     33  C          2.0760  -18.3000   -0.2640 C.2    42  TRP42       0.2264
     34  O          1.5990  -17.9840    0.8270 O.2    42  TRP42      -0.2867
     35  CB         0.9100  -19.9740   -1.6950 C.3    42  TRP42       0.0550
     36  CG         0.9550  -21.2840   -2.4190 C.ar   42  TRP42       0.0003
     37  CD1        1.4920  -21.5220   -3.6540 C.ar   42  TRP42       0.0946
     38  CD2        0.4410  -22.5410   -1.9550 C.ar   42  TRP42       0.0152
     39  NE1        1.3440  -22.8480   -3.9840 N.ar   42  TRP42      -0.2442
     40  CE2        0.7020  -23.4930   -2.9600 C.ar   42  TRP42       0.0810
     41  CE3       -0.2200  -22.9500   -0.7920 C.ar   42  TRP42       0.0012
     42  CZ2        0.3290  -24.8340   -2.8330 C.ar   42  TRP42       0.0191
     43  CZ3       -0.5880  -24.2800   -0.6680 C.ar   42  TRP42       0.0001
     44  CH2       -0.3130  -25.2050   -1.6820 C.ar   42  TRP42       0.0015
     45  N         -3.9930  -24.4130   -8.5800 N.3    50  HIS50      -0.1227
     46  CA        -5.1600  -25.0170   -7.9490 C.3    50  HIS50       0.1737
     47  C         -6.4450  -24.4940   -8.5840 C.2    50  HIS50       0.2438
     48  O         -6.6070  -23.2880   -8.7650 O.2    50  HIS50      -0.2733
     49  CB        -5.1520  -24.7410   -6.4420 C.3    50  HIS50       0.0758
     50  CG        -6.2290  -25.4570   -5.6860 C.ar   50  HIS50       0.0818
     51  ND1       -6.2170  -26.8230   -5.4900 N.ar   50  HIS50      -0.2268
     52  CD2       -7.3420  -24.9960   -5.0710 C.ar   50  HIS50       0.1154
     53  CE1       -7.2830  -27.1700   -4.7910 C.ar   50  HIS50       0.1986
     54  NE2       -7.9830  -26.0840   -4.5250 N.ar   50  HIS50      -0.2212
     55  N         -7.3630  -25.4040   -8.9330 N.am   51  PRO51      -0.2729
     56  CA        -8.6220  -25.0050   -9.5730 C.3    51  PRO51       0.1401
     57  C         -9.5780  -24.2540   -8.6370 C.2    51  PRO51       0.2269
     58  O         -9.5220  -24.4080   -7.4180 O.2    51  PRO51      -0.2865
     59  CB        -9.2260  -26.3420  -10.0150 C.3    51  PRO51       0.0296
     60  CG        -8.6160  -27.3600   -9.1050 C.3    51  PRO51       0.0237
     61  CD        -7.2310  -26.8670   -8.8170 C.3    51  PRO51       0.0939
     62  N        -12.8050  -23.9040   -6.8630 N.3    53  GLN53      -0.1245
     63  CA       -13.8940  -24.7680   -6.4180 C.3    53  GLN53       0.1566
     64  C        -14.9510  -24.0010   -5.6250 C.2    53  GLN53       0.2260
     65  O        -15.5670  -24.5480   -4.7120 O.2    53  GLN53      -0.2867
     66  CB       -13.3440  -25.9220   -5.5760 C.3    53  GLN53       0.0367
     67  CG       -12.3830  -26.8340   -6.3280 C.3    53  GLN53       0.0905
     68  CD       -11.7300  -27.8700   -5.4300 C.2    53  GLN53       0.2608
     69  OE1      -11.8450  -27.8100   -4.2050 O.2    53  GLN53      -0.2717
     70  NE2      -11.0380  -28.8280   -6.0380 N.am   53  GLN53      -0.0878
     71  N        -14.3770  -20.3480   -4.8200 N.3    55  LEU55      -0.1245
     72  CA       -13.6500  -19.3320   -4.0650 C.3    55  LEU55       0.1561
     73  C        -14.4950  -18.0770   -3.8500 C.2    55  LEU55       0.2260
     74  O        -15.3560  -17.7600   -4.6720 O.2    55  LEU55      -0.2867
     75  CB       -12.3560  -18.9760   -4.7960 C.3    55  LEU55       0.0270
     76  CG       -11.3560  -20.1190   -4.9530 C.3    55  LEU55       0.0019
     77  CD1      -10.2600  -19.7390   -5.9340 C.3    55  LEU55       0.0001
     78  CD2      -10.7680  -20.4780   -3.6030 C.3    55  LEU55       0.0001
     79  N         -6.6220  -19.4810   -5.5050 N.3    62  CYS62      -0.1235
     80  CA        -6.8490  -20.0070   -4.1700 C.3    62  CYS62       0.1677
     81  C         -5.6400  -19.6820   -3.2960 C.2    62  CYS62       0.2270
     82  O         -4.4990  -19.9270   -3.6840 O.2    62  CYS62      -0.2867
     83  CB        -7.1060  -21.5180   -4.2100 C.3    62  CYS62       0.0956
     84  SG        -7.5930  -22.2320   -2.6170 S.3    62  CYS62      -0.0801
     85  N        -10.4400  -18.4430   -0.1070 N.3   100  ASP100     -0.1225
     86  CA       -10.6610  -19.8800   -0.0130 C.3   100  ASP100      0.1805
     87  C        -12.1460  -20.1530   -0.2050 C.2   100  ASP100      0.2597
     88  O        -12.9380  -19.2190   -0.3480 O.2   100  ASP100     -0.2718
     89  CB       -10.1650  -20.4170    1.3340 C.3   100  ASP100      0.1424
     90  CG        -9.9080  -21.9200    1.3160 C.2   100  ASP100      0.3668
     91  OD1      -10.0000  -22.5400    0.2350 O.co2 100  ASP100     -0.2456
     92  OD2       -9.5990  -22.4750    2.3910 O.co2 100  ASP100     -0.2456
     93  N        -12.5180  -21.4270   -0.2300 N.am  101  VAL101     -0.1980
     94  CA       -13.9190  -21.7950   -0.3640 C.3   101  VAL101      0.1595
     95  C        -14.5920  -21.7610    1.0030 C.2   101  VAL101      0.2287
     96  O        -14.1030  -22.3680    1.9530 O.2   101  VAL101     -0.2864
     97  CB       -14.0720  -23.1880   -1.0000 C.3   101  VAL101      0.0276
     98  CG1      -15.5320  -23.6230   -0.9960 C.3   101  VAL101      0.0022
     99  CG2      -13.4990  -23.1840   -2.4120 C.3   101  VAL101      0.0022
    100  N        -14.5530  -24.1020    4.2490 N.3   104  THR104     -0.1218
    101  CA       -13.3420  -24.9090    4.1240 C.3   104  THR104      0.1862
    102  C        -12.1140  -24.2590    4.7720 C.2   104  THR104      0.2287
    103  O        -10.9930  -24.7330    4.5910 O.2   104  THR104     -0.2866
    104  CB       -13.0040  -25.1990    2.6410 C.3   104  THR104      0.1770
    105  OG1      -12.5830  -23.9900    1.9870 O.3   104  THR104     -0.2211
    106  CG2      -14.2130  -25.7870    1.9130 C.3   104  THR104      0.0375
    107  N         -8.8760  -25.9120    7.8010 N.3   107  ASN107     -0.1240
    108  CA        -7.5320  -26.4800    7.7110 C.3   107  ASN107      0.1653
    109  C         -6.4950  -25.4810    7.2030 C.2   107  ASN107      0.2266
    110  O         -5.3730  -25.8590    6.8460 O.2   107  ASN107     -0.2867
    111  CB        -7.5490  -27.7010    6.7970 C.3   107  ASN107      0.1155
    112  CG        -8.0090  -27.3630    5.3930 C.2   107  ASN107      0.2627
    113  OD1       -8.5080  -26.2660    5.1370 O.2   107  ASN107     -0.2716
    114  ND2       -7.8490  -28.3060    4.4750 N.am  107  ASN107     -0.0877
@<TRIPOS>BOND
     1    59    56    1
     2    59    60    1
     3    56    55    1
     4    56    57    1
     5    60    61    1
     6    55    61    1
     7    55    47   am
     8    48    47    2
     9    57    58    2
    10    47    46    1
    11    45    46    1
    12    46    49    1
    13    62    63    1
    14    49    50    1
    15    63    64    1
    16    63    66    1
    17    67    66    1
    18    67    68    1
    19    70    68   am
    20    77    76    1
    21    50    51   ar
    22    50    52   ar
    23    64    65    2
    24    79    80    1
    25    51    53   ar
    26    68    69    2
    27    52    54   ar
    28    76    75    1
    29    76    78    1
    30    71    72    1
    31    75    72    1
    32    53    54   ar
    33    74    73    2
    34    83    80    1
    35    83    84    1
    36    80    81    1
    37    72    73    1
    38    39    37   ar
    39    39    40   ar
    40    82    81    2
    41    37    36   ar
    42    12    11    1
    43    40    42   ar
    44    40    38   ar
    45    42    44   ar
    46    36    38   ar
    47    36    35    1
    48    99    97    1
    49    11     9   ar
    50    11    10   ar
    51    38    41   ar
    52     9     7   ar
    53    10     8   ar
    54    35    32    1
    55    44    43   ar
    56    97    98    1
    57    97    94    1
    58     7     6   ar
    59    41    43   ar
    60    32    33    1
    61    32    31    1
    62     8     6   ar
    63    94    93    1
    64    94    95    1
    65    88    87    2
    66    33    34    2
    67    93    87   am
    68    22    21    1
    69    22    23    1
    70    87    86    1
    71     6     5    1
    72    85    86    1
    73    86    89    1
    74    91    90   ar
    75    21    18    1
    76    23    17    1
    77     5     2    1
    78    95    96    2
    79    90    89    1
    80    90    92   ar
    81    18    17    1
    82    18    19    1
    83   106   104    1
    84   105   104    1
    85    17    15   am
    86    29    28    1
    87     1     2    1
    88     2     3    1
    89     4     3    2
    90   104   101    1
    91     3    13   am
    92    19    24   am
    93    19    20    2
    94    24    25    1
    95    13    14    1
    96    26    25    1
    97    26    27    2
    98    15    14    1
    99    15    16    2
   100    28    25    1
   101    28    30    1
   102   101   100    1
   103   101   102    1
   104   114   112   am
   105   103   102    2
   106   113   112    2
   107   112   111    1
   108   111   108    1
   109   110   109    2
   110   109   108    1
   111   108   107    1
