@<TRIPOS>MOLECULE
tmp/4yw8A01.pdb
 80 80 0 0 0
SMALL
GASTEIGER

@<TRIPOS>ATOM
      1  N         -2.9850    6.1990   14.2380 N.3   286  PHE286     -0.1241
      2  CA        -1.9770    5.9130   15.3280 C.3   286  PHE286      0.1605
      3  C         -0.8480    5.0330   14.7730 C.2   286  PHE286      0.2264
      4  O         -1.0260    4.2270   13.8530 O.2   286  PHE286     -0.2867
      5  CB        -2.6280    5.0660   16.4150 C.3   286  PHE286      0.0534
      6  CG        -3.8630    5.6300   17.0620 C.ar  286  PHE286     -0.0203
      7  CD1       -4.1500    6.9770   17.1280 C.ar  286  PHE286     -0.0042
      8  CD2       -4.7330    4.7510   17.6800 C.ar  286  PHE286     -0.0042
      9  CE1       -5.3000    7.4390   17.7710 C.ar  286  PHE286     -0.0003
     10  CE2       -5.8610    5.2030   18.3060 C.ar  286  PHE286     -0.0003
     11  CZ        -6.1390    6.5450   18.3550 C.ar  286  PHE286     -0.0000
     12  N          0.4750    0.9240   17.9210 N.3   290  CYS290     -0.1221
     13  CA        -0.6440    1.3030   18.7670 C.3   290  CYS290      0.1808
     14  C         -1.9090    0.5520   18.3930 C.2   290  CYS290      0.2601
     15  O         -1.9010   -0.2620   17.4630 O.2   290  CYS290     -0.2717
     16  CB        -0.9530    2.8280   18.6820 C.3   290  CYS290      0.0970
     17  SG         0.3520    3.8760   19.3910 S.3   290  CYS290     -0.0800
     18  N         -2.9910    0.8520   19.1160 N.am  291  GLY291     -0.1957
     19  CA        -4.2340    0.0800   19.0530 C.3   291  GLY291      0.1869
     20  C         -5.3770    0.6500   18.2240 C.2   291  GLY291      0.2309
     21  O         -6.4750    0.9190   18.7400 O.2   291  GLY291     -0.2863
     22  N         -2.6460   10.3090   17.3090 N.3   432  GLY432     -0.1210
     23  CA        -2.3200    9.8540   18.6530 C.3   432  GLY432      0.1956
     24  C         -1.0200    9.1450   18.7220 C.2   432  GLY432      0.2612
     25  O         -0.5010    8.6530   17.7240 O.2   432  GLY432     -0.2717
     26  N         -0.5070    9.0550   19.9310 N.am  433  GLY433     -0.1942
     27  CA         0.7940    8.4110   20.1230 C.3   433  GLY433      0.2014
     28  C          0.9170    8.0470   21.6020 C.2   433  GLY433      0.2638
     29  O          0.2790    8.6310   22.4750 O.2   433  GLY433     -0.2714
     30  N          1.8250    7.1250   21.9020 N.am  434  ARG434     -0.1977
     31  CA         1.9770    6.6390   23.2420 C.3   434  ARG434      0.1597
     32  C          2.9860    7.5570   23.9220 C.2   434  ARG434      0.2287
     33  O          4.1410    7.5710   23.5510 O.2   434  ARG434     -0.2864
     34  CB         2.5040    5.1950   23.1860 C.3   434  ARG434      0.0334
     35  CG         2.7610    4.5060   24.5220 C.3   434  ARG434      0.0492
     36  CD         3.2870    3.0870   24.3030 C.3   434  ARG434      0.2205
     37  NE         2.6260    2.4370   23.1740 N.pl3 434  ARG434     -0.0865
     38  CZ         3.2180    1.6260   22.2860 C.cat 434  ARG434      0.5346
     39  NH1        2.4920    1.1220   21.2900 N.pl3 434  ARG434      0.1354
     40  NH2        4.5180    1.3100   22.3750 N.pl3 434  ARG434      0.1354
     41  N         -4.8870   12.3180   20.7210 N.3   508  VAL508     -0.1231
     42  CA        -5.1200   11.5040   21.9210 C.3   508  VAL508      0.1692
     43  C         -3.8070   10.8600   22.4530 C.2   508  VAL508      0.2592
     44  O         -2.8900   10.5950   21.6830 O.2   508  VAL508     -0.2718
     45  CB        -6.2740   10.5130   21.7680 C.3   508  VAL508      0.0266
     46  CG1       -7.5610   11.2620   21.5020 C.3   508  VAL508      0.0020
     47  CG2       -6.0320    9.4770   20.6890 C.3   508  VAL508      0.0020
     48  N         -3.8740   10.4740   23.7190 N.am  509  ASN509     -0.1960
     49  CA        -2.7480    9.7760   24.4150 C.3   509  ASN509      0.1819
     50  C         -3.3740    8.9580   25.5420 C.2   509  ASN509      0.2621
     51  O         -3.8540    9.5420   26.4800 O.2   509  ASN509     -0.2715
     52  CB        -1.8500   10.7690   24.9760 C.3   509  ASN509      0.1195
     53  CG        -0.6870   10.0940   25.7110 C.2   509  ASN509      0.2630
     54  OD1       -0.3900    8.9200   25.4760 O.2   509  ASN509     -0.2716
     55  ND2       -0.0960   10.8110   26.6800 N.am  509  ASN509     -0.0877
     56  N         -3.3910    7.6500   25.4270 N.am  510  TRP510     -0.1960
     57  CA        -4.0010    6.8400   26.4890 C.3   510  TRP510      0.1771
     58  C         -2.9340    6.4680   27.5350 C.2   510  TRP510      0.2619
     59  O         -3.2530    5.7910   28.5250 O.2   510  TRP510     -0.2715
     60  CB        -4.5750    5.5590   25.9510 C.3   510  TRP510      0.0590
     61  CG        -5.4000    5.5930   24.7020 C.ar  510  TRP510      0.0006
     62  CD1       -5.3400    4.7000   23.6890 C.ar  510  TRP510      0.0946
     63  CD2       -6.4460    6.5080   24.3610 C.ar  510  TRP510      0.0152
     64  NE1       -6.3000    4.9840   22.7490 N.ar  510  TRP510     -0.2442
     65  CE2       -6.9640    6.1020   23.1240 C.ar  510  TRP510      0.0810
     66  CE3       -7.0030    7.6090   24.9800 C.ar  510  TRP510      0.0012
     67  CZ2       -8.0100    6.7640   22.5060 C.ar  510  TRP510      0.0191
     68  CZ3       -8.0590    8.2580   24.3670 C.ar  510  TRP510      0.0001
     69  CH2       -8.5480    7.8230   23.1360 C.ar  510  TRP510      0.0015
     70  N         -1.7140    6.9270   27.3440 N.am  511  PHE511     -0.1974
     71  CA        -0.5320    6.3210   28.0040 C.3   511  PHE511      0.1639
     72  C          0.0980    7.1890   29.0790 C.2   511  PHE511      0.2290
     73  O          1.1910    6.8160   29.6280 O.2   511  PHE511     -0.2864
     74  CB         0.5440    5.9860   26.9480 C.3   511  PHE511      0.0560
     75  CG         1.6140    4.9940   27.4110 C.ar  511  PHE511     -0.0200
     76  CD1        1.2930    3.6750   27.6890 C.ar  511  PHE511     -0.0042
     77  CD2        2.9430    5.3770   27.4990 C.ar  511  PHE511     -0.0042
     78  CE1        2.2630    2.7670   28.0810 C.ar  511  PHE511     -0.0003
     79  CE2        3.9120    4.4790   27.8790 C.ar  511  PHE511     -0.0003
     80  CZ         3.5810    3.1740   28.1780 C.ar  511  PHE511     -0.0000
@<TRIPOS>BOND
     1     4     3    2
     2     1     2    1
     3     3     2    1
     4     2     5    1
     5     5     6    1
     6     6     7   ar
     7     6     8   ar
     8     7     9   ar
     9    22    23    1
    10    15    14    2
    11     8    10   ar
    12    25    24    2
    13     9    11   ar
    14    12    13    1
    15    20    21    2
    16    20    19    1
    17    10    11   ar
    18    14    13    1
    19    14    18   am
    20    23    24    1
    21    16    13    1
    22    16    17    1
    23    24    26   am
    24    19    18    1
    25    26    27    1
    26    27    28    1
    27    47    45    1
    28    41    42    1
    29    39    38    1
    30    46    45    1
    31    28    30   am
    32    28    29    2
    33    44    43    2
    34    45    42    1
    35    30    31    1
    36    42    43    1
    37    38    40    1
    38    38    37    2
    39    43    48   am
    40    67    65   ar
    41    67    69   ar
    42    64    65   ar
    43    64    62   ar
    44    65    63   ar
    45    69    68   ar
    46    37    36    1
    47    34    31    1
    48    34    35    1
    49    31    32    1
    50    33    32    2
    51    62    61   ar
    52    48    49    1
    53    36    35    1
    54    63    61   ar
    55    63    66   ar
    56    68    66   ar
    57    49    52    1
    58    49    50    1
    59    61    60    1
    60    52    53    1
    61    56    50   am
    62    56    57    1
    63    54    53    2
    64    50    51    2
    65    53    55   am
    66    60    57    1
    67    57    58    1
    68    74    75    1
    69    74    71    1
    70    70    58   am
    71    70    71    1
    72    75    77   ar
    73    75    76   ar
    74    77    79   ar
    75    58    59    2
    76    76    78   ar
    77    79    80   ar
    78    71    72    1
    79    78    80   ar
    80    72    73    2
