@<TRIPOS>MOLECULE
tmp/4yw8A00.pdb
 127 119 0 0 0
SMALL
GASTEIGER

@<TRIPOS>ATOM
      1  N          7.3520   -6.7090    8.3080 N.3    89  ARG89      -0.1245
      2  CA         7.8050   -5.7850    7.2820 C.3    89  ARG89       0.1563
      3  C          9.2890   -5.5320    7.5660 C.2    89  ARG89       0.2260
      4  O          9.6620   -5.4530    8.7360 O.2    89  ARG89      -0.2867
      5  CB         7.0880   -4.4470    7.3160 C.3    89  ARG89       0.0307
      6  CG         5.7150   -4.4670    6.6300 C.3    89  ARG89       0.0489
      7  CD         5.0350   -3.1050    6.6690 C.3    89  ARG89       0.2205
      8  NE         4.7610   -2.5800    8.0030 N.pl3  89  ARG89      -0.0865
      9  CZ         5.5400   -1.7080    8.6640 C.cat  89  ARG89       0.5346
     10  NH1        6.6630   -1.2250    8.1120 N.pl3  89  ARG89       0.1354
     11  NH2        5.2260   -1.3460    9.8830 N.pl3  89  ARG89       0.1354
     12  N          5.4560  -12.8310    4.4370 N.3   237  TYR237     -0.1241
     13  CA         4.7850  -12.0840    5.4690 C.3   237  TYR237      0.1605
     14  C          3.8430  -11.0520    4.8860 C.2   237  TYR237      0.2264
     15  O          4.2460  -10.2730    4.0410 O.2   237  TYR237     -0.2867
     16  CB         5.7780  -11.3330    6.4020 C.3   237  TYR237      0.0534
     17  CG         4.9980  -10.3360    7.3210 C.ar  237  TYR237     -0.0201
     18  CD1        4.2760  -10.8000    8.3940 C.ar  237  TYR237     -0.0009
     19  CD2        4.9610   -8.9460    7.0750 C.ar  237  TYR237     -0.0009
     20  CE1        3.5030   -9.9410    9.1820 C.ar  237  TYR237      0.0417
     21  CE2        4.2080   -8.0540    7.8880 C.ar  237  TYR237      0.0417
     22  CZ         3.4770   -8.5590    8.9440 C.ar  237  TYR237      0.1957
     23  OH         2.6930   -7.7270    9.7600 O.3   237  TYR237     -0.2866
     24  N          2.5250   -7.9710    5.2650 N.3   239  GLY239     -0.1225
     25  CA         2.7810   -6.6100    4.8790 C.3   239  GLY239      0.1811
     26  C          3.6780   -6.5060    3.6640 C.2   239  GLY239      0.2280
     27  O          3.6640   -5.4960    2.9650 O.2   239  GLY239     -0.2866
     28  N         -2.4080   -4.0320    0.2280 N.3   245  LYS245     -0.1231
     29  CA        -2.5330   -3.3740    1.4930 C.3   245  LYS245      0.1693
     30  C         -1.5620   -2.2070    1.6340 C.2   245  LYS245      0.2591
     31  O         -1.8630   -1.0750    1.2390 O.2   245  LYS245     -0.2718
     32  CB        -2.2750   -4.4170    2.5640 C.3   245  LYS245      0.0285
     33  CG        -2.3790   -3.9430    4.0210 C.3   245  LYS245      0.0035
     34  CD        -2.6270   -5.1170    4.9660 C.3   245  LYS245      0.0206
     35  CE        -2.9620   -4.7020    6.3840 C.3   245  LYS245      0.1093
     36  NZ        -4.2680   -3.9680    6.4810 N.3   245  LYS245     -0.1314
     37  N         -0.3620   -2.4320    2.2120 N.am  246  LYS246     -0.1980
     38  CA         0.4910   -1.3250    2.3710 C.3   246  LYS246      0.1596
     39  C          1.0820   -0.8060    1.0460 C.2   246  LYS246      0.2287
     40  O          1.1290    0.3880    0.8070 O.2   246  LYS246     -0.2864
     41  CB         1.6650   -1.7250    3.3150 C.3   246  LYS246      0.0298
     42  CG         1.2420   -2.2200    4.6650 C.3   246  LYS246      0.0038
     43  CD         0.3760   -1.2290    5.3960 C.3   246  LYS246      0.0206
     44  CE         0.1150   -1.5490    6.8460 C.3   246  LYS246      0.1093
     45  NZ        -0.6130   -0.4350    7.4090 N.3   246  LYS246     -0.1314
     46  N         -3.2010    6.0480    6.7880 N.3   266  HIS266     -0.1241
     47  CA        -3.1310    5.0150    7.7310 C.3   266  HIS266      0.1621
     48  C         -4.0410    5.2360    8.9130 C.2   266  HIS266      0.2264
     49  O         -3.6600    5.4990   10.0290 O.2   266  HIS266     -0.2867
     50  CB        -1.6520    4.9530    8.2510 C.3   266  HIS266      0.0745
     51  CG        -1.3510    3.7020    8.9810 C.ar  266  HIS266      0.0817
     52  ND1       -0.2320    3.6010    9.8160 N.ar  266  HIS266     -0.2268
     53  CD2       -1.9090    2.4700    8.9770 C.ar  266  HIS266      0.1154
     54  CE1       -0.1850    2.3840   10.3140 C.ar  266  HIS266      0.1986
     55  NE2       -1.1890    1.6790    9.8200 N.ar  266  HIS266     -0.2212
     56  N          1.6830    2.0690   13.8710 N.3   288  SER288     -0.1217
     57  CA         1.4830    0.6240   13.7660 C.3   288  SER288      0.1889
     58  C          1.5040   -0.0780   15.1370 C.2   288  SER288      0.2288
     59  O          0.6830   -0.9610   15.4170 O.2   288  SER288     -0.2866
     60  CB         2.5130    0.0060   12.8420 C.3   288  SER288      0.2089
     61  OG         2.5820    0.7050   11.6010 O.3   288  SER288     -0.2183
     62  N         -5.1340    0.8090   16.9260 N.3   292  LYS292     -0.1245
     63  CA        -6.2300    1.1160   15.9690 C.3   292  LYS292      0.1561
     64  C         -7.3830    0.0930   16.0290 C.2   292  LYS292      0.2260
     65  O         -8.5300    0.4840   16.1600 O.2   292  LYS292     -0.2867
     66  CB        -5.6930    1.2640   14.5440 C.3   292  LYS292      0.0271
     67  CG        -5.0650    2.6190   14.2230 C.3   292  LYS292      0.0035
     68  CD        -5.0170    2.8720   12.7060 C.3   292  LYS292      0.0206
     69  CE        -4.0920    1.9420   11.9170 C.3   292  LYS292      0.1093
     70  NZ        -2.7050    1.8920   12.5390 N.3   292  LYS292     -0.1314
     71  N        -10.0340   -0.8420   10.1120 N.3   312  ASP312     -0.1225
     72  CA        -9.0600   -0.7400   11.2110 C.3   312  ASP312      0.1805
     73  C         -7.7120   -0.3460   10.7790 C.2   312  ASP312      0.2597
     74  O         -6.8050   -0.3530   11.6710 O.2   312  ASP312     -0.2718
     75  CB        -8.9390   -2.0620   11.9500 C.3   312  ASP312      0.1424
     76  CG        -8.0730   -3.0680   11.2730 C.2   312  ASP312      0.3668
     77  OD1       -7.8980   -3.0530   10.0630 O.co2 312  ASP312     -0.2456
     78  OD2       -7.4530   -3.9490   11.9950 O.co2 312  ASP312     -0.2456
     79  N         -7.4980    0.0300    9.5270 N.am  313  ASP313     -0.1974
     80  CA        -6.1100    0.2340    9.0420 C.3   313  ASP313      0.1709
     81  C         -5.8780    1.3130    8.0040 C.2   313  ASP313      0.2293
     82  O         -5.0180    2.1150    8.1780 O.2   313  ASP313     -0.2864
     83  CB        -5.4880   -1.0630    8.4920 C.3   313  ASP313      0.1436
     84  CG        -3.9420   -1.0490    8.4010 C.2   313  ASP313      0.3671
     85  OD1       -3.1410   -0.5520    9.2720 O.co2 313  ASP313     -0.2456
     86  OD2       -3.4040   -1.5840    7.4180 O.co2 313  ASP313     -0.2456
     87  N         -6.3520   -7.6430    9.3420 N.3   335  PHE335     -0.1241
     88  CA        -5.0930   -8.3600    9.4810 C.3   335  PHE335      0.1605
     89  C         -4.4910   -7.7950   10.7770 C.2   335  PHE335      0.2264
     90  O         -3.6430   -6.8710   10.7690 O.2   335  PHE335     -0.2867
     91  CB        -4.2040   -8.0540    8.2760 C.3   335  PHE335      0.0534
     92  CG        -2.9450   -8.8900    8.1930 C.ar  335  PHE335     -0.0203
     93  CD1       -3.0150  -10.2660    8.1910 C.ar  335  PHE335     -0.0042
     94  CD2       -1.7000   -8.3050    8.1070 C.ar  335  PHE335     -0.0042
     95  CE1       -1.8850  -11.0450    8.1040 C.ar  335  PHE335     -0.0003
     96  CE2       -0.5730   -9.0740    7.9930 C.ar  335  PHE335     -0.0003
     97  CZ        -0.6670  -10.4500    7.9700 C.ar  335  PHE335     -0.0000
     98  N          4.6640  -10.2610   16.6440 N.3   401  ASN401     -0.1240
     99  CA         3.9590   -9.7860   15.4290 C.3   401  ASN401      0.1653
    100  C          3.0040  -10.7780   14.7770 C.2   401  ASN401      0.2266
    101  O          2.6610  -10.5630   13.5930 O.2   401  ASN401     -0.2867
    102  CB         4.9440   -9.2740   14.3730 C.3   401  ASN401      0.1155
    103  CG         4.3130   -8.2840   13.3640 C.2   401  ASN401      0.2627
    104  OD1        3.5130   -7.4140   13.7290 O.2   401  ASN401     -0.2716
    105  ND2        4.6810   -8.4360   12.0830 N.am  401  ASN401     -0.0877
    106  N         -0.4400  -12.8210   13.8350 N.3   403  ARG403     -0.1245
    107  CA        -1.6130  -12.1760   13.2440 C.3   403  ARG403      0.1563
    108  C         -2.7660  -13.0930   13.1490 C.2   403  ARG403      0.2260
    109  O         -2.6330  -14.3000   13.0620 O.2   403  ARG403     -0.2867
    110  CB        -1.2950  -11.7790   11.8050 C.3   403  ARG403      0.0307
    111  CG        -0.0840  -10.8840   11.6280 C.3   403  ARG403      0.0489
    112  CD        -0.5620   -9.4640   11.8160 C.3   403  ARG403      0.2205
    113  NE         0.5020   -8.5140   12.0540 N.pl3 403  ARG403     -0.0865
    114  CZ         0.3150   -7.2010   12.1060 C.cat 403  ARG403      0.5346
    115  NH1       -0.8840   -6.6640   11.8870 N.pl3 403  ARG403      0.1354
    116  NH2        1.3470   -6.4240   12.3920 N.pl3 403  ARG403      0.1354
    117  N          5.3350    4.4250    5.2580 N.3   479  PHE479     -0.1298
    118  CA         4.3160    4.2810    4.2210 C.3   479  PHE479      0.1290
    119  C          4.1740    5.4030    3.2200 C.3   479  PHE479      0.2013
    120  O          3.2530    5.3420    2.3170 O.3   479  PHE479     -0.2188
    121  CB         2.9780    3.9990    4.8790 C.3   479  PHE479      0.0480
    122  CG         2.9560    2.8480    5.8230 C.ar  479  PHE479     -0.0206
    123  CD1        3.3700    1.5550    5.4500 C.ar  479  PHE479     -0.0042
    124  CD2        2.6090    3.0260    7.1670 C.ar  479  PHE479     -0.0042
    125  CE1        3.3710    0.5050    6.3350 C.ar  479  PHE479     -0.0003
    126  CE2        2.5880    1.9610    8.0590 C.ar  479  PHE479     -0.0003
    127  CZ         2.9890    0.7030    7.6560 C.ar  479  PHE479     -0.0000
@<TRIPOS>BOND
     1    28    29    1
     2    40    39    2
     3    39    38    1
     4    31    30    2
     5    29    30    1
     6    29    32    1
     7    30    37   am
     8    37    38    1
     9   120   119    1
    10    38    41    1
    11    32    33    1
    12    27    26    2
    13   119   118    1
    14    41    42    1
    15    26    25    1
    16    33    34    1
    17    15    14    2
    18   118   121    1
    19   118   117    1
    20    12    13    1
    21    42    43    1
    22   121   122    1
    23    25    24    1
    24    14    13    1
    25    34    35    1
    26    43    44    1
    27   123   122   ar
    28   123   125   ar
    29    13    16    1
    30   122   124   ar
    31   125   127   ar
    32    35    36    1
    33    16    17    1
    34     6     7    1
    35     6     5    1
    36     7     8    1
    37    46    47    1
    38    44    45    1
    39    19    17   ar
    40    19    21   ar
    41   124   126   ar
    42     2     5    1
    43     2     3    1
    44     2     1    1
    45    17    18   ar
    46    86    84   ar
    47     3     4    2
    48   127   126   ar
    49    47    50    1
    50    47    48    1
    51    21    22   ar
    52    97    96   ar
    53    97    95   ar
    54    96    94   ar
    55     8     9    2
    56    81    82    2
    57    81    80    1
    58    95    93   ar
    59    94    92   ar
    60    10     9    1
    61    93    92   ar
    62    92    91    1
    63    50    51    1
    64    91    88    1
    65    18    20   ar
    66    84    83    1
    67    84    85   ar
    68    83    80    1
    69     9    11    1
    70    48    49    2
    71    22    20   ar
    72    22    23    1
    73    53    51   ar
    74    53    55   ar
    75    51    52   ar
    76    80    79    1
    77    87    88    1
    78    88    89    1
    79    79    73   am
    80    52    54   ar
    81    55    54   ar
    82    77    76   ar
    83    71    72    1
    84    90    89    2
    85    73    72    1
    86    73    74    2
    87    72    75    1
    88    76    75    1
    89    76    78   ar
    90    61    60    1
    91   111   110    1
    92   111   112    1
    93   110   107    1
    94   112   113    1
    95   115   114    1
    96    69    70    1
    97    69    68    1
    98   113   114    2
    99   105   103   am
   100   114   116    1
   101    68    67    1
   102    60    57    1
   103   109   108    2
   104   108   107    1
   105   107   106    1
   106   103   104    2
   107   103   102    1
   108   101   100    2
   109    57    56    1
   110    57    58    1
   111    67    66    1
   112   102    99    1
   113    66    63    1
   114   100    99    1
   115    58    59    2
   116    99    98    1
   117    63    64    1
   118    63    62    1
   119    64    65    2
