@<TRIPOS>MOLECULE
tmp/4ywaD00.pdb
 133 128 0 0 0
SMALL
GASTEIGER

@<TRIPOS>ATOM
      1  N         -4.1460   57.2760   44.1170 N.3    36  TYR36      -0.1227
      2  CA        -3.8640   55.8490   44.3010 C.3    36  TYR36       0.1736
      3  C         -4.3520   55.3830   45.6850 C.2    36  TYR36       0.2596
      4  O         -4.0740   54.2560   46.0780 O.2    36  TYR36      -0.2718
      5  CB        -2.3460   55.5970   44.1740 C.3    36  TYR36       0.0548
      6  CG        -1.5030   56.4350   45.0780 C.ar   36  TYR36      -0.0200
      7  CD1       -1.0590   57.7090   44.7010 C.ar   36  TYR36      -0.0009
      8  CD2       -1.1470   55.9610   46.3430 C.ar   36  TYR36      -0.0009
      9  CE1       -0.2880   58.4700   45.5370 C.ar   36  TYR36       0.0417
     10  CE2       -0.4040   56.7140   47.1820 C.ar   36  TYR36       0.0417
     11  CZ         0.0330   57.9710   46.8000 C.ar   36  TYR36       0.1957
     12  OH         0.7890   58.7450   47.6290 O.3    36  TYR36      -0.2866
     13  N         -5.0990   56.2140   46.3850 N.am   37  GLY37      -0.1943
     14  CA        -5.6450   55.7830   47.6830 C.3    37  GLY37       0.1998
     15  C         -5.9210   56.9530   48.5990 C.2    37  GLY37       0.2480
     16  O         -7.0120   57.0470   49.1620 O.2    37  GLY37      -0.2729
     17  N         -4.9490   57.8540   48.7810 N.am   38  PRO38      -0.2726
     18  CA        -5.1620   58.9870   49.6810 C.3    38  PRO38       0.1402
     19  C         -6.2740   59.9240   49.2720 C.2    38  PRO38       0.2269
     20  O         -6.7150   59.8990   48.1240 O.2    38  PRO38      -0.2865
     21  CB        -3.8090   59.7020   49.6780 C.3    38  PRO38       0.0296
     22  CG        -2.8280   58.6260   49.3760 C.3    38  PRO38       0.0237
     23  CD        -3.5350   57.7200   48.3960 C.3    38  PRO38       0.0939
     24  N         -5.9620   63.1070   48.9740 N.3    40  GLN40      -0.1245
     25  CA        -5.3400   64.0400   48.0240 C.3    40  GLN40       0.1566
     26  C         -5.4310   63.4620   46.6110 C.2    40  GLN40       0.2260
     27  O         -5.6100   62.2620   46.4280 O.2    40  GLN40      -0.2867
     28  CB        -3.8690   64.2530   48.4270 C.3    40  GLN40       0.0367
     29  CG        -3.0710   65.2780   47.6280 C.3    40  GLN40       0.0905
     30  CD        -1.6770   65.5260   48.2200 C.2    40  GLN40       0.2608
     31  OE1       -1.3050   64.9250   49.2330 O.2    40  GLN40      -0.2717
     32  NE2       -0.9090   66.4180   47.5920 N.am   40  GLN40      -0.0878
     33  N         -3.4590   63.8170   42.5570 N.3    42  TRP42      -0.1241
     34  CA        -2.2360   64.2050   41.8300 C.3    42  TRP42       0.1605
     35  C         -2.5510   64.2370   40.3420 C.2    42  TRP42       0.2264
     36  O         -3.4890   63.5790   39.8790 O.2    42  TRP42      -0.2867
     37  CB        -1.0750   63.2150   42.0950 C.3    42  TRP42       0.0550
     38  CG        -0.5700   63.2650   43.5110 C.ar   42  TRP42       0.0003
     39  CD1        0.4940   63.9860   43.9680 C.ar   42  TRP42       0.0946
     40  CD2       -1.1170   62.5800   44.6420 C.ar   42  TRP42       0.0152
     41  NE1        0.6410   63.7990   45.3380 N.ar   42  TRP42      -0.2442
     42  CE2       -0.3350   62.9340   45.7620 C.ar   42  TRP42       0.0810
     43  CE3       -2.1860   61.6960   44.8060 C.ar   42  TRP42       0.0012
     44  CZ2       -0.5800   62.4300   47.0420 C.ar   42  TRP42       0.0191
     45  CZ3       -2.4360   61.1990   46.0920 C.ar   42  TRP42       0.0001
     46  CH2       -1.6310   61.5710   47.1780 C.ar   42  TRP42       0.0015
     47  N          2.7540   61.1940   42.1480 N.3    47  ASP47      -0.1239
     48  CA         3.1920   61.6750   43.4570 C.3    47  ASP47       0.1674
     49  C          4.6940   61.4950   43.6120 C.2    47  ASP47       0.2266
     50  O          5.1890   60.3750   43.8400 O.2    47  ASP47      -0.2867
     51  CB         2.4640   60.9180   44.5640 C.3    47  ASP47       0.1410
     52  CG         2.8550   61.3810   45.9630 C.2    47  ASP47       0.3668
     53  OD1        3.7270   62.2720   46.1170 O.co2  47  ASP47      -0.2456
     54  OD2        2.2800   60.8460   46.9360 O.co2  47  ASP47      -0.2456
     55  N          6.6440   62.1900   45.8990 N.3    49  GLU49      -0.1231
     56  CA         7.1060   61.9160   47.2630 C.3    49  GLU49       0.1699
     57  C          6.8530   60.5020   47.7100 C.2    49  GLU49       0.2592
     58  O          7.2850   60.1210   48.8040 O.2    49  GLU49      -0.2718
     59  CB         6.4350   62.8850   48.2320 C.3    49  GLU49       0.0402
     60  CG         6.8710   64.3320   48.0100 C.3    49  GLU49       0.1161
     61  CD         6.2870   65.3180   48.9960 C.2    49  GLU49       0.3649
     62  OE1        5.4850   64.9090   49.8630 O.co2  49  GLU49      -0.2457
     63  OE2        6.6370   66.5150   48.8940 O.co2  49  GLU49      -0.2457
     64  N          6.1410   59.7120   46.9300 N.am   50  HIS50      -0.1962
     65  CA         5.7220   58.3960   47.3790 C.3    50  HIS50       0.1772
     66  C          6.6920   57.3210   46.8980 C.2    50  HIS50       0.2462
     67  O          7.0490   57.2870   45.7210 O.2    50  HIS50      -0.2730
     68  CB         4.3020   58.1290   46.8910 C.3    50  HIS50       0.0785
     69  CG         3.7040   56.8600   47.4100 C.ar   50  HIS50       0.0821
     70  ND1        3.3970   56.6800   48.7420 N.ar   50  HIS50      -0.2267
     71  CD2        3.3420   55.7220   46.7800 C.ar   50  HIS50       0.1154
     72  CE1        2.8780   55.4750   48.9070 C.ar   50  HIS50       0.1986
     73  NE2        2.8240   54.8770   47.7320 N.ar   50  HIS50      -0.2212
     74  N          7.1460   56.4300   47.8010 N.am   51  PRO51      -0.2727
     75  CA         8.0860   55.4040   47.3360 C.3    51  PRO51       0.1402
     76  C          7.4320   54.4240   46.3820 C.2    51  PRO51       0.2269
     77  O          6.2320   54.1730   46.4790 O.2    51  PRO51      -0.2865
     78  CB         8.4780   54.6690   48.6330 C.3    51  PRO51       0.0296
     79  CG         7.3570   54.9520   49.5650 C.3    51  PRO51       0.0237
     80  CD         6.9280   56.3540   49.2590 C.3    51  PRO51       0.0939
     81  N          6.6040   50.9140   45.5260 N.3    53  GLN53      -0.1245
     82  CA         6.4300   49.6710   46.3010 C.3    53  GLN53       0.1566
     83  C          6.0010   48.5260   45.3910 C.2    53  GLN53       0.2260
     84  O          5.3100   47.5850   45.8110 O.2    53  GLN53      -0.2867
     85  CB         5.4010   49.8780   47.4180 C.3    53  GLN53       0.0367
     86  CG         5.7360   51.0390   48.3190 C.3    53  GLN53       0.0905
     87  CD         4.7460   51.2150   49.4570 C.2    53  GLN53       0.2608
     88  OE1        5.1470   51.3310   50.6210 O.2    53  GLN53      -0.2717
     89  NE2        3.4520   51.2270   49.1410 N.am   53  GLN53      -0.0878
     90  N          5.4140   49.2140   41.5700 N.3    55  LEU55      -0.1245
     91  CA         4.5970   49.8180   40.5100 C.3    55  LEU55       0.1561
     92  C          4.7020   49.0590   39.2130 C.2    55  LEU55       0.2260
     93  O          5.7280   48.4460   38.9180 O.2    55  LEU55      -0.2867
     94  CB         5.0920   51.2450   40.3120 C.3    55  LEU55       0.0270
     95  CG         4.8380   52.1530   41.4970 C.3    55  LEU55       0.0019
     96  CD1        5.5940   53.4590   41.3430 C.3    55  LEU55       0.0001
     97  CD2        3.3440   52.3820   41.6890 C.3    55  LEU55       0.0001
     98  N          4.2980   56.7970   41.3560 N.3    62  CYS62      -0.1235
     99  CA         2.9890   56.2830   41.6690 C.3    62  CYS62       0.1677
    100  C          1.9370   57.3390   41.3550 C.2    62  CYS62       0.2270
    101  O          2.0770   58.4930   41.7280 O.2    62  CYS62      -0.2867
    102  CB         2.9660   55.9030   43.1600 C.3    62  CYS62       0.0956
    103  SG         1.4100   55.0940   43.6710 S.3    62  CYS62      -0.0801
    104  N          0.0790   52.0700   39.4330 N.3   100  ASP100     -0.1225
    105  CA        -0.0670   51.6830   40.8420 C.3   100  ASP100      0.1805
    106  C          0.5200   50.2840   40.9510 C.2   100  ASP100      0.2597
    107  O          0.9870   49.6920   40.0000 O.2   100  ASP100     -0.2718
    108  CB        -1.5480   51.6970   41.2250 C.3   100  ASP100      0.1424
    109  CG        -1.7680   51.8750   42.7400 C.2   100  ASP100      0.3668
    110  OD1       -0.7880   51.8520   43.5130 O.co2 100  ASP100     -0.2456
    111  OD2       -2.9170   52.0910   43.1440 O.co2 100  ASP100     -0.2456
    112  N          0.5050   49.7690   42.1850 N.am  101  VAL101     -0.1980
    113  CA         0.9900   48.4050   42.4620 C.3   101  VAL101      0.1595
    114  C         -0.1090   47.4060   42.1130 C.2   101  VAL101      0.2287
    115  O         -1.2650   47.6250   42.4900 O.2   101  VAL101     -0.2864
    116  CB         1.3750   48.3020   43.9380 C.3   101  VAL101      0.0276
    117  CG1        1.7710   46.8400   44.3190 C.3   101  VAL101      0.0022
    118  CG2        2.4950   49.2830   44.2590 C.3   101  VAL101      0.0022
    119  N         -3.6660   46.6420   44.0270 N.3   104  THR104     -0.1218
    120  CA        -3.9960   47.7410   44.9130 C.3   104  THR104      0.1862
    121  C         -4.8120   48.8430   44.2360 C.2   104  THR104      0.2287
    122  O         -4.9050   49.9320   44.7580 O.2   104  THR104     -0.2866
    123  CB        -2.7510   48.3930   45.5580 C.3   104  THR104      0.1770
    124  OG1       -2.0540   49.1780   44.5600 O.3   104  THR104     -0.2211
    125  CG2       -1.8140   47.3190   46.1350 C.3   104  THR104      0.0375
    126  N         -8.8150   50.9700   45.6590 N.3   107  ASN107     -0.1240
    127  CA        -9.0410   52.1680   46.4070 C.3   107  ASN107      0.1653
    128  C         -8.6560   53.4420   45.6350 C.2   107  ASN107      0.2266
    129  O         -8.5830   54.4980   46.2170 O.2   107  ASN107     -0.2867
    130  CB        -8.3160   52.1310   47.7540 C.3   107  ASN107      0.1155
    131  CG        -6.7980   52.1780   47.6060 C.2   107  ASN107      0.2627
    132  OD1       -6.2430   51.9690   46.5300 O.2   107  ASN107     -0.2716
    133  ND2       -6.1250   52.4600   48.7010 N.am  107  ASN107     -0.0877
@<TRIPOS>BOND
     1    93    92    2
     2    92    91    1
     3   104   105    1
     4    36    35    2
     5   107   106    2
     6    94    91    1
     7    94    95    1
     8    35    34    1
     9    91    90    1
    10   105   106    1
    11   105   108    1
    12   106   112   am
    13   108   109    1
    14    96    95    1
    15   100    99    1
    16   100   101    2
    17    98    99    1
    18    95    97    1
    19    99   102    1
    20    34    37    1
    21    34    33    1
    22    37    38    1
    23   114   113    1
    24   114   115    2
    25    47    48    1
    26   112   113    1
    27   113   116    1
    28   109   111   ar
    29   109   110   ar
    30   102   103    1
    31    48    49    1
    32    48    51    1
    33    38    39   ar
    34    38    40   ar
    35    49    50    2
    36   116   118    1
    37   116   117    1
    38    39    41   ar
    39   119   120    1
    40     1     2    1
    41     5     2    1
    42     5     6    1
    43   121   122    2
    44   121   120    1
    45     2     3    1
    46   124   123    1
    47    51    52    1
    48    40    43   ar
    49    40    42   ar
    50     7     6   ar
    51     7     9   ar
    52    43    45   ar
    53   120   123    1
    54     6     8   ar
    55    41    42   ar
    56    83    84    2
    57    83    82    1
    58    81    82    1
    59     9    11   ar
    60   123   125    1
    61   128   129    2
    62   128   127    1
    63   126   127    1
    64     3     4    2
    65     3    13   am
    66    67    66    2
    67    42    44   ar
    68    55    56    1
    69    52    53   ar
    70    52    54   ar
    71    45    46   ar
    72    82    85    1
    73     8    10   ar
    74    76    77    2
    75    76    75    1
    76    13    14    1
    77   127   130    1
    78    27    26    2
    79   132   131    2
    80    26    25    1
    81    71    69   ar
    82    71    73   ar
    83    11    10   ar
    84    11    12    1
    85    68    65    1
    86    68    69    1
    87    66    65    1
    88    66    74   am
    89    64    65    1
    90    64    57   am
    91    44    46   ar
    92    56    57    1
    93    56    59    1
    94    75    74    1
    95    75    78    1
    96    69    70   ar
    97    85    86    1
    98    32    30   am
    99   131   130    1
   100   131   133   am
   101    29    30    1
   102    29    28    1
   103    14    15    1
   104    57    58    2
   105    73    72   ar
   106    74    80    1
   107    60    59    1
   108    60    61    1
   109    25    28    1
   110    25    24    1
   111    20    19    2
   112    30    31    2
   113    86    87    1
   114    23    17    1
   115    23    22    1
   116    15    17   am
   117    15    16    2
   118    78    79    1
   119    70    72   ar
   120    17    18    1
   121    63    61   ar
   122    61    62   ar
   123    89    87   am
   124    80    79    1
   125    19    18    1
   126    22    21    1
   127    87    88    2
   128    21    18    1
