@<TRIPOS>MOLECULE
tmp/4ywdA00.pdb
 131 123 0 0 0
SMALL
GASTEIGER

@<TRIPOS>ATOM
      1  N          7.4140   -6.7800    8.2260 N.3    79  ARG79      -0.1245
      2  CA         7.9050   -5.8190    7.2450 C.3    79  ARG79       0.1563
      3  C          9.3650   -5.4480    7.5420 C.2    79  ARG79       0.2260
      4  O          9.7410   -5.2940    8.7000 O.2    79  ARG79      -0.2867
      5  CB         7.0590   -4.5450    7.2660 C.3    79  ARG79       0.0307
      6  CG         5.6780   -4.6930    6.6650 C.3    79  ARG79       0.0489
      7  CD         4.9800   -3.3460    6.5410 C.3    79  ARG79       0.2205
      8  NE         4.7320   -2.7580    7.8570 N.pl3  79  ARG79      -0.0865
      9  CZ         5.4070   -1.7420    8.3990 C.cat  79  ARG79       0.5346
     10  NH1        6.4070   -1.1380    7.7540 N.pl3  79  ARG79       0.1354
     11  NH2        5.0700   -1.3220    9.6120 N.pl3  79  ARG79       0.1354
     12  N          5.4740  -12.7840    4.2190 N.3   227  TYR227     -0.1241
     13  CA         4.7540  -12.1940    5.3380 C.3   227  TYR227      0.1605
     14  C          3.8790  -11.0110    4.8990 C.2   227  TYR227      0.2264
     15  O          4.3100  -10.1580    4.1230 O.2   227  TYR227     -0.2867
     16  CB         5.7230  -11.7920    6.4500 C.3   227  TYR227      0.0534
     17  CG         5.1030  -11.8420    7.8250 C.ar  227  TYR227     -0.0201
     18  CD1        4.9310  -13.0550    8.4920 C.ar  227  TYR227     -0.0009
     19  CD2        4.6850  -10.6810    8.4570 C.ar  227  TYR227     -0.0009
     20  CE1        4.3600  -13.1010    9.7520 C.ar  227  TYR227      0.0417
     21  CE2        4.1170  -10.7170    9.7140 C.ar  227  TYR227      0.0417
     22  CZ         3.9590  -11.9240   10.3590 C.ar  227  TYR227      0.1957
     23  OH         3.3900  -11.9400   11.6080 O.3   227  TYR227     -0.2866
     24  N          2.4520   -7.8080    5.1740 N.3   229  GLY229     -0.1225
     25  CA         2.8190   -6.4920    4.6750 C.3   229  GLY229      0.1811
     26  C          3.7300   -6.4740    3.4520 C.2   229  GLY229      0.2280
     27  O          3.7710   -5.4730    2.7440 O.2   229  GLY229     -0.2866
     28  N         -2.4210   -4.0930    0.3830 N.3   235  LYS235     -0.1231
     29  CA        -2.5190   -3.4290    1.6780 C.3   235  LYS235      0.1693
     30  C         -1.5740   -2.2220    1.8260 C.2   235  LYS235      0.2591
     31  O         -1.9460   -1.0960    1.4630 O.2   235  LYS235     -0.2718
     32  CB        -2.3020   -4.4820    2.7660 C.3   235  LYS235      0.0285
     33  CG        -2.4610   -4.0010    4.1910 C.3   235  LYS235      0.0035
     34  CD        -2.5050   -5.2020    5.1170 C.3   235  LYS235      0.0206
     35  CE        -2.6960   -4.7950    6.5630 C.3   235  LYS235      0.1093
     36  NZ        -4.0200   -4.1750    6.8370 N.3   235  LYS235     -0.1314
     37  N         -0.3590   -2.4330    2.3380 N.am  236  LYS236     -0.1980
     38  CA         0.5860   -1.3350    2.5170 C.3   236  LYS236      0.1596
     39  C          1.1010   -0.7860    1.1880 C.2   236  LYS236      0.2287
     40  O          1.0910    0.4340    0.9570 O.2   236  LYS236     -0.2864
     41  CB         1.7640   -1.7830    3.3970 C.3   236  LYS236      0.0298
     42  CG         1.3470   -2.2860    4.7700 C.3   236  LYS236      0.0038
     43  CD         0.3490   -1.3280    5.3980 C.3   236  LYS236      0.0206
     44  CE         0.1260   -1.6040    6.8710 C.3   236  LYS236      0.1093
     45  NZ        -0.6400   -0.4910    7.4850 N.3   236  LYS236     -0.1314
     46  N         -3.3630    6.1220    6.8870 N.3   256  HIS256     -0.1241
     47  CA        -3.1960    4.9940    7.7890 C.3   256  HIS256      0.1621
     48  C         -4.1470    5.1820    8.9650 C.2   256  HIS256      0.2264
     49  O         -3.7210    5.3780   10.1120 O.2   256  HIS256     -0.2867
     50  CB        -1.7390    4.9460    8.2400 C.3   256  HIS256      0.0745
     51  CG        -1.3730    3.7240    9.0170 C.ar  256  HIS256      0.0817
     52  ND1       -0.3210    3.7050    9.9080 N.ar  256  HIS256     -0.2268
     53  CD2       -1.9040    2.4800    9.0350 C.ar  256  HIS256      0.1154
     54  CE1       -0.2190    2.5040   10.4430 C.ar  256  HIS256      0.1986
     55  NE2       -1.1670    1.7410    9.9290 N.ar  256  HIS256     -0.2212
     56  N          1.8630    2.0960   14.2060 N.3   278  SER278     -0.1217
     57  CA         1.7790    0.6330   14.0460 C.3   278  SER278      0.1889
     58  C          1.9440   -0.1290   15.3700 C.2   278  SER278      0.2288
     59  O          1.5000   -1.2760   15.4780 O.2   278  SER278     -0.2866
     60  CB         2.8120    0.1320   13.0290 C.3   278  SER278      0.2089
     61  OG         2.6650    0.7870   11.7860 O.3   278  SER278     -0.2183
     62  N         -5.2970    0.5510   17.4160 N.3   282  LYS282     -0.1245
     63  CA        -6.2690    0.9550   16.4050 C.3   282  LYS282      0.1561
     64  C         -7.4570    0.0110   16.3590 C.2   282  LYS282      0.2260
     65  O         -8.6120    0.4460   16.3810 O.2   282  LYS282     -0.2867
     66  CB        -5.6260    0.9740   15.0220 C.3   282  LYS282      0.0271
     67  CG        -4.5150    1.9920   14.8610 C.3   282  LYS282      0.0035
     68  CD        -3.8840    1.8810   13.4880 C.3   282  LYS282      0.0206
     69  CE        -4.8730    2.2480   12.3930 C.3   282  LYS282      0.1093
     70  NZ        -4.1900    2.3560   11.0820 N.3   282  LYS282     -0.1314
     71  N        -10.1570   -0.8520   10.2380 N.3   302  ASP302     -0.1225
     72  CA        -9.1920   -0.7810   11.3430 C.3   302  ASP302      0.1805
     73  C         -7.7660   -0.4130   10.9240 C.2   302  ASP302      0.2597
     74  O         -6.8670   -0.4550   11.7600 O.2   302  ASP302     -0.2718
     75  CB        -9.1320   -2.1330   12.0670 C.3   302  ASP302      0.1424
     76  CG        -8.2430   -3.1410   11.3510 C.2   302  ASP302      0.3668
     77  OD1       -8.1960   -3.1130   10.1010 O.co2 302  ASP302     -0.2456
     78  OD2       -7.5880   -3.9590   12.0360 O.co2 302  ASP302     -0.2456
     79  N         -7.5330   -0.0730    9.6540 N.am  303  ASP303     -0.1974
     80  CA        -6.1570    0.1670    9.2090 C.3   303  ASP303      0.1709
     81  C         -5.9860    1.2990    8.1960 C.2   303  ASP303      0.2293
     82  O         -5.1620    2.1920    8.4010 O.2   303  ASP303     -0.2864
     83  CB        -5.5620   -1.1280    8.6510 C.3   303  ASP303      0.1436
     84  CG        -4.0470   -1.1040    8.6080 C.2   303  ASP303      0.3671
     85  OD1       -3.4200   -0.5210    9.5220 O.co2 303  ASP303     -0.2456
     86  OD2       -3.4750   -1.6750    7.6580 O.co2 303  ASP303     -0.2456
     87  N         -6.3660   -7.8160    9.3150 N.3   325  PHE325     -0.1227
     88  CA        -5.0950   -8.4830    9.4830 C.3   325  PHE325      0.1736
     89  C         -4.4730   -7.9090   10.7550 C.2   325  PHE325      0.2596
     90  O         -3.5040   -7.1570   10.7070 O.2   325  PHE325     -0.2718
     91  CB        -4.2270   -8.2400    8.2480 C.3   325  PHE325      0.0547
     92  CG        -2.9480   -9.0220    8.2350 C.ar  325  PHE325     -0.0202
     93  CD1       -2.9680  -10.4080    8.1840 C.ar  325  PHE325     -0.0042
     94  CD2       -1.7230   -8.3740    8.2650 C.ar  325  PHE325     -0.0042
     95  CE1       -1.7910  -11.1330    8.1650 C.ar  325  PHE325     -0.0003
     96  CE2       -0.5410   -9.0930    8.2510 C.ar  325  PHE325     -0.0003
     97  CZ        -0.5760  -10.4740    8.1940 C.ar  325  PHE325     -0.0000
     98  N         -5.0600   -8.2590   11.8980 N.am  326  GLY326     -0.1957
     99  CA        -4.6960   -7.6520   13.1850 C.3   326  GLY326      0.1869
    100  C         -3.5980   -8.3810   13.9390 C.2   326  GLY326      0.2309
    101  O         -3.3150   -9.5470   13.6700 O.2   326  GLY326     -0.2863
    102  N          4.7100  -10.1080   16.6630 N.3   392  ASN392     -0.1240
    103  CA         4.0060   -9.6220   15.4710 C.3   392  ASN392      0.1653
    104  C          3.0950  -10.6720   14.8230 C.2   392  ASN392      0.2266
    105  O          2.6500  -10.4810   13.6970 O.2   392  ASN392     -0.2867
    106  CB         5.0060   -9.0830   14.4400 C.3   392  ASN392      0.1155
    107  CG         4.3490   -8.1810   13.3980 C.2   392  ASN392      0.2627
    108  OD1        3.4960   -7.3510   13.7230 O.2   392  ASN392     -0.2716
    109  ND2        4.7410   -8.3450   12.1360 N.am  392  ASN392     -0.0877
    110  N         -0.2730  -12.9150   13.8880 N.3   394  ARG394     -0.1245
    111  CA        -1.4540  -12.3220   13.2540 C.3   394  ARG394      0.1563
    112  C         -2.6830  -13.2230   13.1850 C.2   394  ARG394      0.2260
    113  O         -2.5710  -14.4440   13.1700 O.2   394  ARG394     -0.2867
    114  CB        -1.0990  -11.9120   11.8160 C.3   394  ARG394      0.0307
    115  CG        -0.0200  -10.8470   11.7020 C.3   394  ARG394      0.0489
    116  CD        -0.5690   -9.4670   12.0130 C.3   394  ARG394      0.2205
    117  NE         0.4840   -8.4660   12.1640 N.pl3 394  ARG394     -0.0865
    118  CZ         0.2820   -7.1490   12.2520 C.cat 394  ARG394      0.5346
    119  NH1       -0.9440   -6.6310   12.1860 N.pl3 394  ARG394      0.1354
    120  NH2        1.3210   -6.3350   12.3990 N.pl3 394  ARG394      0.1354
    121  N          5.1020    4.5390    5.3800 N.3   468  PHE468     -0.1241
    122  CA         4.0990    4.3720    4.3280 C.3   468  PHE468      0.1605
    123  C          3.9570    5.5300    3.3280 C.2   468  PHE468      0.2264
    124  O          3.1810    5.4060    2.3720 O.2   468  PHE468     -0.2867
    125  CB         2.7400    4.0660    4.9720 C.3   468  PHE468      0.0534
    126  CG         2.7660    2.8830    5.9070 C.ar  468  PHE468     -0.0203
    127  CD1        3.1530    1.6340    5.4530 C.ar  468  PHE468     -0.0042
    128  CD2        2.4100    3.0210    7.2470 C.ar  468  PHE468     -0.0042
    129  CE1        3.1970    0.5470    6.3030 C.ar  468  PHE468     -0.0003
    130  CE2        2.4420    1.9270    8.1000 C.ar  468  PHE468     -0.0003
    131  CZ         2.8330    0.6930    7.6280 C.ar  468  PHE468     -0.0000
@<TRIPOS>BOND
     1    28    29    1
     2    40    39    2
     3    39    38    1
     4    31    30    2
     5    29    30    1
     6    29    32    1
     7    30    37   am
     8    37    38    1
     9   124   123    2
    10    38    41    1
    11    27    26    2
    12    32    33    1
    13   123   122    1
    14    41    42    1
    15    26    25    1
    16    15    14    2
    17    33    34    1
    18    12    13    1
    19   122   125    1
    20   122   121    1
    21    25    24    1
    22    42    43    1
    23    14    13    1
    24   125   126    1
    25    34    35    1
    26    13    16    1
    27    43    44    1
    28   127   126   ar
    29   127   129   ar
    30   126   128   ar
    31   129   131   ar
    32    16    17    1
    33     7     6    1
    34     7     8    1
    35    35    36    1
    36     6     5    1
    37    44    45    1
    38    46    47    1
    39     2     5    1
    40     2     3    1
    41     2     1    1
    42   128   130   ar
    43     3     4    2
    44   131   130   ar
    45    86    84   ar
    46    10     9    1
    47    47    50    1
    48    47    48    1
    49    17    19   ar
    50    17    18   ar
    51     8     9    2
    52    95    93   ar
    53    95    97   ar
    54    93    92   ar
    55    97    96   ar
    56    81    82    2
    57    81    80    1
    58    92    91    1
    59    92    94   ar
    60    50    51    1
    61    91    88    1
    62    96    94   ar
    63     9    11    1
    64    19    21   ar
    65    18    20   ar
    66    84    83    1
    67    84    85   ar
    68    83    80    1
    69    48    49    2
    70    51    53   ar
    71    51    52   ar
    72    53    55   ar
    73    80    79    1
    74    87    88    1
    75    88    89    1
    76    79    73   am
    77    21    22   ar
    78    20    22   ar
    79    52    54   ar
    80    55    54   ar
    81    77    76   ar
    82    71    72    1
    83    22    23    1
    84    90    89    2
    85    89    98   am
    86    73    72    1
    87    73    74    2
    88    70    69    1
    89    72    75    1
    90    76    78   ar
    91    76    75    1
    92   115   114    1
    93   115   116    1
    94    61    60    1
    95   114   111    1
    96    98    99    1
    97   116   117    1
    98   109   107   am
    99   117   118    2
   100   119   118    1
   101   118   120    1
   102    69    68    1
   103    60    57    1
   104   113   112    2
   105   112   111    1
   106    99   100    1
   107   111   110    1
   108   107   108    2
   109   107   106    1
   110    68    67    1
   111   101   100    2
   112   105   104    2
   113    57    56    1
   114    57    58    1
   115   106   103    1
   116   104   103    1
   117    67    66    1
   118    66    63    1
   119    58    59    2
   120   103   102    1
   121    64    65    2
   122    64    63    1
   123    63    62    1
