@<TRIPOS>MOLECULE
tmp/4ywgC01.pdb
 81 75 0 0 0
SMALL
GASTEIGER

@<TRIPOS>ATOM
      1  N        -30.3700   20.6370  -63.6300 N.3    11  THR11      -0.1218
      2  CA       -30.5930   19.2650  -63.1660 C.3    11  THR11       0.1862
      3  C        -29.2850   18.4940  -63.0630 C.2    11  THR11       0.2287
      4  O        -28.3740   18.6550  -63.8730 O.2    11  THR11      -0.2866
      5  CB       -31.5630   18.4840  -64.0810 C.3    11  THR11       0.1770
      6  OG1      -32.8710   19.0630  -63.9940 O.3    11  THR11      -0.2211
      7  CG2      -31.6630   17.0330  -63.6500 C.3    11  THR11       0.0375
      8  N        -27.3340   14.7590  -62.7300 N.3    13  ASN13      -0.1240
      9  CA       -27.3000   13.3160  -62.7780 C.3    13  ASN13       0.1653
     10  C        -26.2020   12.8960  -61.8380 C.2    13  ASN13       0.2266
     11  O        -25.0650   13.3220  -62.0160 O.2    13  ASN13      -0.2867
     12  CB       -27.0220   12.8150  -64.1930 C.3    13  ASN13       0.1155
     13  CG       -27.6280   11.4510  -64.4710 C.2    13  ASN13       0.2627
     14  OD1      -28.1310   10.7830  -63.5680 O.2    13  ASN13      -0.2716
     15  ND2      -27.5840   11.0410  -65.7460 N.am   13  ASN13      -0.0877
     16  N        -23.0540   14.9170  -63.2100 N.3    23  SER23      -0.1202
     17  CA       -22.9460   15.5360  -64.5080 C.3    23  SER23       0.2020
     18  C        -24.2430   16.2470  -64.8590 C.2    23  SER23       0.2619
     19  O        -25.3430   15.8490  -64.4450 O.2    23  SER23      -0.2717
     20  CB       -22.5820   14.5110  -65.5680 C.3    23  SER23       0.2103
     21  OG       -23.5620   13.4990  -65.6680 O.3    23  SER23      -0.2182
     22  N        -24.0860   17.3230  -65.6170 N.am   24  PHE24      -0.1961
     23  CA       -25.1590   18.2650  -65.8950 C.3    24  PHE24       0.1771
     24  C        -24.7620   18.9800  -67.1850 C.2    24  PHE24       0.2619
     25  O        -23.5940   18.9040  -67.5840 O.2    24  PHE24      -0.2715
     26  CB       -25.3460   19.2510  -64.7210 C.3    24  PHE24       0.0574
     27  CG       -24.0940   20.0260  -64.3760 C.ar   24  PHE24      -0.0200
     28  CD1      -23.0960   19.4550  -63.5930 C.ar   24  PHE24      -0.0042
     29  CD2      -23.9070   21.3060  -64.8490 C.ar   24  PHE24      -0.0042
     30  CE1      -21.9400   20.1430  -63.2900 C.ar   24  PHE24      -0.0003
     31  CE2      -22.7560   21.9970  -64.5540 C.ar   24  PHE24      -0.0003
     32  CZ       -21.7710   21.4170  -63.7700 C.ar   24  PHE24      -0.0000
     33  N        -25.7180   19.6570  -67.8290 N.am   25  ASN25      -0.1972
     34  CA       -25.4550   20.3900  -69.0810 C.3    25  ASN25       0.1688
     35  C        -25.2980   21.8940  -68.8750 C.2    25  ASN25       0.2292
     36  O        -26.2610   22.5810  -68.5390 O.2    25  ASN25      -0.2864
     37  CB       -26.5750   20.1840  -70.1020 C.3    25  ASN25       0.1181
     38  CG       -26.8720   18.7290  -70.3850 C.2    25  ASN25       0.2629
     39  OD1      -25.9670   17.9120  -70.6080 O.2    25  ASN25      -0.2716
     40  ND2      -28.1720   18.4030  -70.3830 N.am   25  ASN25      -0.0877
     41  N        -23.1690   22.7120  -78.1820 N.3    33  ARG33      -0.1231
     42  CA       -23.7850   21.4110  -78.3820 C.3    33  ARG33       0.1694
     43  C        -24.5550   21.0680  -77.1160 C.2    33  ARG33       0.2591
     44  O        -24.9960   19.9260  -76.9370 O.2    33  ARG33      -0.2718
     45  CB       -22.7420   20.3370  -78.6840 C.3    33  ARG33       0.0321
     46  CG       -22.9750   19.6370  -80.0160 C.3    33  ARG33       0.0489
     47  CD       -24.4290   19.1890  -80.1720 C.3    33  ARG33       0.2205
     48  NE       -24.7840   18.9420  -81.5710 N.pl3  33  ARG33      -0.0865
     49  CZ       -25.1640   19.8940  -82.4280 C.cat  33  ARG33       0.5346
     50  NH1      -25.2320   21.1670  -82.0310 N.pl3  33  ARG33       0.1354
     51  NH2      -25.4730   19.5790  -83.6860 N.pl3  33  ARG33       0.1354
     52  N        -24.7220   22.0850  -76.2630 N.am   34  LYS34      -0.1980
     53  CA       -25.1620   21.9340  -74.8730 C.3    34  LYS34       0.1596
     54  C        -24.2950   20.8940  -74.1840 C.2    34  LYS34       0.2287
     55  O        -24.4760   19.6800  -74.3430 O.2    34  LYS34      -0.2864
     56  CB       -26.6390   21.5630  -74.7810 C.3    34  LYS34       0.0298
     57  CG       -27.3630   22.2630  -73.6340 C.3    34  LYS34       0.0038
     58  CD       -28.7960   22.6070  -74.0250 C.3    34  LYS34       0.0206
     59  CE       -29.3280   23.8070  -73.2460 C.3    34  LYS34       0.1093
     60  NZ       -30.6050   24.2950  -73.8410 N.3    34  LYS34      -0.1314
     61  N        -22.4490   18.4420  -71.8050 N.3    36  LYS36      -0.1245
     62  CA       -22.4280   17.5600  -70.6360 C.3    36  LYS36       0.1561
     63  C        -21.0580   17.6380  -69.9750 C.2    36  LYS36       0.2260
     64  O        -20.0210   17.6170  -70.6470 O.2    36  LYS36      -0.2867
     65  CB       -22.7380   16.1150  -71.0010 C.3    36  LYS36       0.0271
     66  CG       -22.3170   15.1340  -69.9210 C.3    36  LYS36       0.0035
     67  CD       -22.0090   13.7360  -70.4410 C.3    36  LYS36       0.0206
     68  CE       -21.4170   12.8390  -69.3340 C.3    36  LYS36       0.1093
     69  NZ       -19.9550   13.0690  -69.0660 N.3    36  LYS36      -0.1314
     70  N        -31.7850   11.5300  -60.2050 N.3    53  LEU53      -0.1245
     71  CA       -31.6080   12.9250  -60.5960 C.3    53  LEU53       0.1561
     72  C        -31.7300   13.8900  -59.4240 C.2    53  LEU53       0.2260
     73  O        -32.5250   13.6660  -58.5170 O.2    53  LEU53      -0.2867
     74  CB       -32.6340   13.2920  -61.6700 C.3    53  LEU53       0.0270
     75  CG       -32.2140   13.1820  -63.1410 C.3    53  LEU53       0.0019
     76  CD1      -31.4860   11.8770  -63.4500 C.3    53  LEU53       0.0001
     77  CD2      -33.4400   13.3400  -64.0250 C.3    53  LEU53       0.0001
     78  N        -31.7950   21.4070  -68.4610 N.3   103  GLY103     -0.1225
     79  CA       -30.7990   20.4180  -68.8420 C.3   103  GLY103      0.1811
     80  C        -31.3700   19.2830  -69.6670 C.2   103  GLY103      0.2280
     81  O        -31.9550   18.3410  -69.1340 O.2   103  GLY103     -0.2866
@<TRIPOS>BOND
     1    51    49    1
     2    49    50    1
     3    49    48    2
     4    48    47    1
     5    47    46    1
     6    46    45    1
     7    45    42    1
     8    42    41    1
     9    42    43    1
    10    43    44    2
    11    43    52   am
    12    52    53    1
    13    53    56    1
    14    53    54    1
    15    56    57    1
    16    55    54    2
    17    58    57    1
    18    58    59    1
    19    60    59    1
    20    61    62    1
    21    65    62    1
    22    65    66    1
    23    64    63    2
    24    62    63    1
    25    39    38    2
    26    67    66    1
    27    67    68    1
    28    38    40   am
    29    38    37    1
    30    37    34    1
    31    80    81    2
    32    80    79    1
    33    68    69    1
    34    34    35    1
    35    34    33    1
    36    35    36    2
    37    79    78    1
    38    33    24   am
    39    25    24    2
    40    24    23    1
    41    23    22    1
    42    23    26    1
    43    15    13   am
    44    21    20    1
    45    22    18   am
    46    20    17    1
    47    18    17    1
    48    18    19    2
    49    29    31   ar
    50    29    27   ar
    51    26    27    1
    52    31    32   ar
    53    17    16    1
    54    13    12    1
    55    13    14    2
    56    27    28   ar
    57    12     9    1
    58     5     6    1
    59     5     7    1
    60     5     2    1
    61    77    75    1
    62     4     3    2
    63    32    30   ar
    64     1     2    1
    65    28    30   ar
    66    76    75    1
    67     2     3    1
    68    75    74    1
    69     9     8    1
    70     9    10    1
    71    11    10    2
    72    74    71    1
    73    71    70    1
    74    71    72    1
    75    72    73    2
