@<TRIPOS>MOLECULE
tmp/4ywhA00.pdb
 127 122 0 0 0
SMALL
GASTEIGER

@<TRIPOS>ATOM
      1  N         16.1270    3.4310   -6.8930 N.3    13  LEU13      -0.1245
      2  CA        17.1160    3.1660   -5.8480 C.3    13  LEU13       0.1561
      3  C         18.5170    3.4040   -6.4310 C.2    13  LEU13       0.2260
      4  O         18.8080    2.9930   -7.5530 O.2    13  LEU13      -0.2867
      5  CB        16.9630    1.7260   -5.3070 C.3    13  LEU13       0.0270
      6  CG        15.5970    1.3520   -4.7590 C.3    13  LEU13       0.0019
      7  CD1       15.5350   -0.1220   -4.5130 C.3    13  LEU13       0.0001
      8  CD2       15.2700    2.1390   -3.4740 C.3    13  LEU13       0.0001
      9  N         21.3590    2.0610   -6.1760 N.3    15  ARG15      -0.1231
     10  CA        22.1280    0.9240   -6.6250 C.3    15  ARG15       0.1694
     11  C         21.8900    0.4480   -8.0650 C.2    15  ARG15       0.2592
     12  O         22.8000   -0.1170   -8.6690 O.2    15  ARG15      -0.2718
     13  CB        21.9010   -0.2820   -5.6720 C.3    15  ARG15       0.0321
     14  CG        20.6140   -1.0450   -5.8680 C.3    15  ARG15       0.0489
     15  CD        20.6640   -2.3980   -5.1610 C.3    15  ARG15       0.2205
     16  NE        21.2560   -3.4330   -6.0090 N.pl3  15  ARG15      -0.0865
     17  CZ        21.2090   -4.7320   -5.7470 C.cat  15  ARG15       0.5346
     18  NH1       20.6310   -5.1980   -4.6480 N.pl3  15  ARG15       0.1354
     19  NH2       21.7280   -5.5740   -6.6060 N.pl3  15  ARG15       0.1354
     20  N         20.6980    0.6190   -8.6270 N.am   16  TRP16      -0.1976
     21  CA        20.3910   -0.0900   -9.8900 C.3    16  TRP16       0.1640
     22  C         21.1800    0.4710  -11.0950 C.2    16  TRP16       0.2290
     23  O         21.5260   -0.2690  -12.0260 O.2    16  TRP16      -0.2864
     24  CB        18.8820   -0.0290  -10.2140 C.3    16  TRP16       0.0576
     25  CG        17.9570   -0.6530   -9.2390 C.ar   16  TRP16       0.0006
     26  CD1       16.8340   -0.0710   -8.6690 C.ar   16  TRP16       0.0946
     27  CD2       18.0210   -1.9760   -8.7210 C.ar   16  TRP16       0.0152
     28  NE1       16.2190   -0.9550   -7.8390 N.ar   16  TRP16      -0.2442
     29  CE2       16.9120   -2.1410   -7.8590 C.ar   16  TRP16       0.0810
     30  CE3       18.9020   -3.0500   -8.9060 C.ar   16  TRP16       0.0012
     31  CZ2       16.6700   -3.3250   -7.1830 C.ar   16  TRP16       0.0191
     32  CZ3       18.6590   -4.2210   -8.2310 C.ar   16  TRP16       0.0001
     33  CH2       17.5540   -4.3510   -7.3770 C.ar   16  TRP16       0.0015
     34  N         19.2940  -10.5770   -8.5770 N.3    88  ASP88      -0.1225
     35  CA        18.9810  -10.0630   -7.2250 C.3    88  ASP88       0.1805
     36  C         17.6340  -10.5490   -6.6050 C.2    88  ASP88       0.2597
     37  O         17.6370  -11.1310   -5.5210 O.2    88  ASP88      -0.2718
     38  CB        19.0160   -8.5230   -7.2400 C.3    88  ASP88       0.1424
     39  CG        19.1240   -7.9320   -5.8600 C.2    88  ASP88       0.3668
     40  OD1       20.2550   -7.9390   -5.3250 O.co2  88  ASP88      -0.2456
     41  OD2       18.0970   -7.4640   -5.3030 O.co2  88  ASP88      -0.2456
     42  N         16.5030  -10.2970   -7.2720 N.am   89  ARG89      -0.1979
     43  CA        15.1940  -10.7370   -6.7930 C.3    89  ARG89       0.1597
     44  C         14.7490  -11.9690   -7.5420 C.2    89  ARG89       0.2287
     45  O         14.7900  -12.0050   -8.7600 O.2    89  ARG89      -0.2864
     46  CB        14.1410   -9.6440   -6.9520 C.3    89  ARG89       0.0334
     47  CG        14.5160   -8.3240   -6.3780 C.3    89  ARG89       0.0492
     48  CD        13.6490   -7.2200   -7.0260 C.3    89  ARG89       0.2205
     49  NE        13.7900   -5.9840   -6.2700 N.pl3  89  ARG89      -0.0865
     50  CZ        13.2170   -4.8230   -6.5630 C.cat  89  ARG89       0.5346
     51  NH1       12.4320   -4.6960   -7.6180 N.pl3  89  ARG89       0.1354
     52  NH2       13.4420   -3.7700   -5.7840 N.pl3  89  ARG89       0.1354
     53  N          8.1060   -8.0550   -3.8510 N.3   132  ASP132     -0.1239
     54  CA         9.5070   -8.4370   -4.0050 C.3   132  ASP132      0.1674
     55  C          9.8730   -9.5890   -3.0530 C.2   132  ASP132      0.2266
     56  O          9.7310   -9.4780   -1.8420 O.2   132  ASP132     -0.2867
     57  CB        10.3740   -7.2050   -3.7650 C.3   132  ASP132      0.1410
     58  CG        11.8450   -7.5280   -3.6240 C.2   132  ASP132      0.3668
     59  OD1       12.2800   -8.6330   -3.9910 O.co2 132  ASP132     -0.2456
     60  OD2       12.5820   -6.6460   -3.1570 O.co2 132  ASP132     -0.2456
     61  N         12.5410  -10.6720   -2.0560 N.3   134  ASN134     -0.1240
     62  CA        13.5730  -10.2640   -1.0940 C.3   134  ASN134      0.1653
     63  C         13.0360   -9.6380    0.1890 C.2   134  ASN134      0.2266
     64  O         13.6310   -9.8080    1.2690 O.2   134  ASN134     -0.2867
     65  CB        14.5310   -9.3050   -1.7790 C.3   134  ASN134      0.1155
     66  CG        15.4340  -10.0130   -2.7550 C.2   134  ASN134      0.2627
     67  OD1       15.4570  -11.2470   -2.8040 O.2   134  ASN134     -0.2716
     68  ND2       16.2040   -9.2480   -3.5150 N.am  134  ASN134     -0.0877
     69  N         14.1210  -10.7570    3.9030 N.3   138  PHE138     -0.1241
     70  CA        14.7080   -9.8300    4.8560 C.3   138  PHE138      0.1605
     71  C         13.9440   -9.9690    6.1670 C.2   138  PHE138      0.2264
     72  O         14.5170  -10.0320    7.2620 O.2   138  PHE138     -0.2867
     73  CB        14.6370   -8.3830    4.3610 C.3   138  PHE138      0.0534
     74  CG        15.4470   -8.1050    3.1150 C.ar  138  PHE138     -0.0203
     75  CD1       16.7140   -8.6200    2.9510 C.ar  138  PHE138     -0.0042
     76  CD2       14.9370   -7.3060    2.1210 C.ar  138  PHE138     -0.0042
     77  CE1       17.4600   -8.3420    1.8150 C.ar  138  PHE138     -0.0003
     78  CE2       15.6750   -7.0330    0.9710 C.ar  138  PHE138     -0.0003
     79  CZ        16.9340   -7.5540    0.8220 C.ar  138  PHE138     -0.0000
     80  N          9.0990   -0.0370   -2.4990 N.3   165  TRP165     -0.1241
     81  CA        10.3050    0.4970   -1.8820 C.3   165  TRP165      0.1605
     82  C         10.4190    2.0210   -1.9480 C.2   165  TRP165      0.2264
     83  O         11.4930    2.5580   -1.7180 O.2   165  TRP165     -0.2867
     84  CB        11.5470   -0.1070   -2.5390 C.3   165  TRP165      0.0550
     85  CG        11.7790   -1.5720   -2.2920 C.ar  165  TRP165      0.0003
     86  CD1       11.6050   -2.5910   -3.1800 C.ar  165  TRP165      0.0946
     87  CD2       12.3030   -2.1560   -1.1140 C.ar  165  TRP165      0.0152
     88  NE1       11.9580   -3.7810   -2.6150 N.ar  165  TRP165     -0.2442
     89  CE2       12.3970   -3.5420   -1.3410 C.ar  165  TRP165      0.0810
     90  CE3       12.6860   -1.6500    0.1290 C.ar  165  TRP165      0.0012
     91  CZ2       12.8620   -4.4340   -0.3690 C.ar  165  TRP165      0.0191
     92  CZ3       13.1430   -2.5340    1.1030 C.ar  165  TRP165      0.0001
     93  CH2       13.2340   -3.9130    0.8450 C.ar  165  TRP165      0.0015
     94  N         15.5120   -1.1260    3.7900 N.3   191  ASN191     -0.1240
     95  CA        16.5860   -0.6050    2.9190 C.3   191  ASN191      0.1653
     96  C         16.8510    0.8690    3.1420 C.2   191  ASN191      0.2266
     97  O         16.1810    1.4750    3.9620 O.2   191  ASN191     -0.2867
     98  CB        16.2960   -0.9150    1.4300 C.3   191  ASN191      0.1155
     99  CG        15.4780    0.1430    0.7250 C.2   191  ASN191      0.2627
    100  OD1       14.6220    0.8210    1.3120 O.2   191  ASN191     -0.2716
    101  ND2       15.7160    0.2600   -0.5820 N.am  191  ASN191     -0.0877
    102  N         19.9100   -0.7610    4.0560 N.3   216  GLN216     -0.1231
    103  CA        20.8190   -1.5370    3.2020 C.3   216  GLN216      0.1698
    104  C         20.9590   -0.8890    1.8400 C.2   216  GLN216      0.2592
    105  O         20.0320   -0.2100    1.4040 O.2   216  GLN216     -0.2718
    106  CB        20.3590   -3.0090    3.0470 C.3   216  GLN216      0.0381
    107  CG        19.4110   -3.2540    1.8760 C.3   216  GLN216      0.0905
    108  CD        18.8280   -4.6710    1.8240 C.2   216  GLN216      0.2608
    109  OE1       19.4220   -5.5930    1.2670 O.2   216  GLN216     -0.2717
    110  NE2       17.6470   -4.8320    2.3860 N.am  216  GLN216     -0.0878
    111  N         22.1160   -1.1700    1.2060 N.am  217  ASP217     -0.1974
    112  CA        22.5890   -0.6870   -0.1120 C.3   217  ASP217      0.1709
    113  C         23.7690    0.2660    0.0280 C.2   217  ASP217      0.2293
    114  O         24.4810    0.5180   -0.9440 O.2   217  ASP217     -0.2864
    115  CB        21.5090    0.0210   -0.9240 C.3   217  ASP217      0.1436
    116  CG        20.3310   -0.9270   -1.3190 C.2   217  ASP217      0.3671
    117  OD1       20.4520   -2.1390   -1.0190 O.co2 217  ASP217     -0.2456
    118  OD2       19.2990   -0.4660   -1.9090 O.co2 217  ASP217     -0.2456
    119  N         26.5030   -4.2330    0.1110 N.3   236  LYS236     -0.1245
    120  CA        26.4510   -5.3320   -0.8530 C.3   236  LYS236      0.1561
    121  C         27.2590   -4.9100   -2.0840 C.2   236  LYS236      0.2260
    122  O         26.7230   -4.2340   -2.9710 O.2   236  LYS236     -0.2867
    123  CB        25.0010   -5.6500   -1.2440 C.3   236  LYS236      0.0271
    124  CG        24.0120   -5.6920   -0.0700 C.3   236  LYS236      0.0035
    125  CD        22.7080   -6.4530   -0.4150 C.3   236  LYS236      0.0206
    126  CE        21.7060   -5.5580   -1.0910 C.3   236  LYS236      0.1093
    127  NZ        20.4910   -6.3370   -1.3930 N.3   236  LYS236     -0.1314
@<TRIPOS>BOND
     1    23    22    2
     2    22    21    1
     3    24    21    1
     4    24    25    1
     5    21    20    1
     6    25    27   ar
     7    25    26   ar
     8    30    27   ar
     9    30    32   ar
    10    45    44    2
    11    27    29   ar
    12    26    28   ar
    13    12    11    2
    14    20    11   am
    15    34    35    1
    16    32    33   ar
    17    11    10    1
    18    29    28   ar
    19    29    31   ar
    20    51    50    1
    21     4     3    2
    22    44    43    1
    23    33    31   ar
    24    42    43    1
    25    42    36   am
    26    38    35    1
    27    38    39    1
    28    35    36    1
    29    48    47    1
    30    48    49    1
    31    46    43    1
    32    46    47    1
    33     1     2    1
    34    10     9    1
    35    10    13    1
    36    19    17    1
    37    36    37    2
    38    50    49    2
    39    50    52    1
    40     3     2    1
    41    16    17    2
    42    16    15    1
    43    14    13    1
    44    14    15    1
    45    39    40   ar
    46    39    41   ar
    47     2     5    1
    48    17    18    1
    49     5     6    1
    50     6     7    1
    51     6     8    1
    52    54    53    1
    53    54    57    1
    54    54    55    1
    55    59    58   ar
    56    57    58    1
    57    58    60   ar
    58    68    66   am
    59    86    88   ar
    60    86    85   ar
    61    55    56    2
    62   122   121    2
    63    67    66    2
    64    66    65    1
    65    88    89   ar
    66    84    85    1
    67    84    81    1
    68    80    81    1
    69    85    87   ar
    70   121   120    1
    71    61    62    1
    72    82    81    1
    73    82    83    2
    74   118   116   ar
    75    65    62    1
    76   127   126    1
    77    89    87   ar
    78    89    91   ar
    79   116   117   ar
    80   116   115    1
    81   123   120    1
    82   123   124    1
    83    87    90   ar
    84    62    63    1
    85   126   125    1
    86   114   113    2
    87   115   112    1
    88   120   119    1
    89   101    99   am
    90   125   124    1
    91    91    93   ar
    92   112   113    1
    93   112   111    1
    94    90    92   ar
    95    63    64    2
    96    99   100    2
    97    99    98    1
    98    79    78   ar
    99    79    77   ar
   100    93    92   ar
   101    78    76   ar
   102   111   104   am
   103   109   108    2
   104   105   104    2
   105    98    95    1
   106    77    75   ar
   107   108   107    1
   108   108   110   am
   109   104   103    1
   110   107   106    1
   111    76    74   ar
   112    95    96    1
   113    95    94    1
   114    75    74   ar
   115   106   103    1
   116    74    73    1
   117    96    97    2
   118   103   102    1
   119    69    70    1
   120    73    70    1
   121    70    71    1
   122    71    72    2
