@<TRIPOS>MOLECULE
tmp/4ywjB00.pdb
 208 203 0 0 0
SMALL
GASTEIGER

@<TRIPOS>ATOM
      1  N        -14.6140   47.5330   18.3580 N.3     7  VAL7       -0.1231
      2  CA       -15.3230   48.7850   18.6000 C.3     7  VAL7        0.1692
      3  C        -14.5710   49.8900   17.8740 C.2     7  VAL7        0.2592
      4  O        -13.3340   49.9160   17.8650 O.2     7  VAL7       -0.2718
      5  CB       -15.4870   49.0770   20.1150 C.3     7  VAL7        0.0266
      6  CG1      -14.1430   49.1090   20.8210 C.3     7  VAL7        0.0020
      7  CG2      -16.2460   50.3810   20.3390 C.3     7  VAL7        0.0020
      8  N        -15.3230   50.7880   17.2500 N.am    8  GLY8       -0.1957
      9  CA       -14.7600   51.7200   16.2920 C.3     8  GLY8        0.1869
     10  C        -14.6620   51.0190   14.9530 C.2     8  GLY8        0.2309
     11  O        -13.7590   51.2870   14.1530 O.2     8  GLY8       -0.2863
     12  N        -16.2160   51.0980   12.2270 N.3    10  ALA10      -0.1231
     13  CA       -16.3920   51.8550   10.9920 C.3    10  ALA10       0.1694
     14  C        -15.2160   52.7880   10.7220 C.2    10  ALA10       0.2593
     15  O        -15.0950   53.3500    9.6330 O.2    10  ALA10      -0.2718
     16  CB       -17.7070   52.6510   11.0400 C.3    10  ALA10       0.0304
     17  N        -14.3450   52.9470   11.7130 N.am   11  GLY11      -0.1942
     18  CA       -13.1680   53.7850   11.5640 C.3    11  GLY11       0.2014
     19  C        -12.0880   53.1920   10.6860 C.2    11  GLY11       0.2639
     20  O        -12.2210   52.0750   10.1840 O.2    11  GLY11      -0.2714
     21  N        -11.0110   53.9460   10.5010 N.am   12  ARG12      -0.1963
     22  CA        -9.9020   53.4840    9.6830 C.3    12  ARG12       0.1729
     23  C         -9.3130   52.1910   10.2480 C.2    12  ARG12       0.2616
     24  O         -9.2390   51.1850    9.5450 O.2    12  ARG12      -0.2715
     25  CB        -8.8360   54.5750    9.5680 C.3    12  ARG12       0.0348
     26  CG        -9.2920   55.7590    8.7130 C.3    12  ARG12       0.0492
     27  CD        -8.2640   56.8780    8.6850 C.3    12  ARG12       0.2205
     28  NE        -8.2220   57.6050    9.9500 N.pl3  12  ARG12      -0.0865
     29  CZ        -7.3160   58.5280   10.2540 C.cat  12  ARG12       0.5346
     30  NH1       -6.3620   58.8420    9.3850 N.pl3  12  ARG12       0.1354
     31  NH2       -7.3610   59.1370   11.4320 N.pl3  12  ARG12       0.1354
     32  N         -8.9250   52.1970   11.5180 N.am   13  MET13      -0.1963
     33  CA        -8.3390   50.9940   12.1050 C.3    13  MET13       0.1736
     34  C         -9.4060   49.9150   12.2360 C.2    13  MET13       0.2617
     35  O         -9.1250   48.7300   12.0530 O.2    13  MET13      -0.2715
     36  CB        -7.7010   51.2930   13.4610 C.3    13  MET13       0.0427
     37  CG        -6.4120   52.0910   13.3470 C.3    13  MET13       0.0599
     38  SD        -5.2320   51.3020   12.2160 S.3    13  MET13      -0.1393
     39  CE        -5.0160   49.7390   13.0440 C.3    13  MET13       0.0692
     40  N        -10.6300   50.3370   12.5350 N.am   14  GLY14      -0.1955
     41  CA       -11.7450   49.4190   12.6440 C.3    14  GLY14       0.1869
     42  C        -11.8960   48.5280   11.4290 C.2    14  GLY14       0.2309
     43  O        -11.9970   47.3090   11.5590 O.2    14  GLY14      -0.2863
     44  N        -19.0340   47.3890   16.6720 N.3    34  VAL34      -0.1231
     45  CA       -19.7060   48.5560   17.2310 C.3    34  VAL34       0.1692
     46  C        -19.0290   49.8440   16.7880 C.2    34  VAL34       0.2592
     47  O        -17.7990   49.9500   16.8000 O.2    34  VAL34      -0.2718
     48  CB       -19.7440   48.4820   18.7710 C.3    34  VAL34       0.0266
     49  CG1      -20.4680   49.6860   19.3540 C.3    34  VAL34       0.0020
     50  CG2      -20.3970   47.1900   19.2300 C.3    34  VAL34       0.0020
     51  N        -19.8330   50.8210   16.3870 N.am   35  ASP35      -0.1960
     52  CA       -19.3320   52.1780   16.2030 C.3    35  ASP35       0.1840
     53  C        -20.2610   53.1050   16.9800 C.2    35  ASP35       0.2622
     54  O        -20.9990   52.6460   17.8540 O.2    35  ASP35      -0.2715
     55  CB       -19.2590   52.5600   14.7230 C.3    35  ASP35       0.1450
     56  CG       -18.1760   53.5940   14.4390 C.2    35  ASP35       0.3671
     57  OD1      -16.9940   53.2110   14.2720 O.co2  35  ASP35      -0.2456
     58  OD2      -18.5090   54.7960   14.3810 O.co2  35  ASP35      -0.2456
     59  N        -20.2180   54.3990   16.6870 N.am   36  ARG36      -0.1964
     60  CA       -21.0990   55.3470   17.3680 C.3    36  ARG36       0.1714
     61  C        -22.5710   54.9650   17.1630 C.2    36  ARG36       0.2458
     62  O        -22.9570   54.5420   16.0760 O.2    36  ARG36      -0.2730
     63  CB       -20.8390   56.7720   16.8670 C.3    36  ARG36       0.0347
     64  CG       -19.4360   57.2700   17.2020 C.3    36  ARG36       0.0492
     65  CD       -19.1280   57.3680   18.6930 C.3    36  ARG36       0.2205
     66  NE       -20.1350   58.2030   19.3650 N.pl3  36  ARG36      -0.0865
     67  CZ       -20.0960   59.5070   19.4310 C.cat  36  ARG36       0.5346
     68  NH1      -19.0690   60.1940   18.9410 N.pl3  36  ARG36       0.1354
     69  NH2      -21.0660   60.1940   19.9880 N.pl3  36  ARG36       0.1354
     70  N        -23.3970   55.0980   18.2170 N.am   37  PRO37      -0.2727
     71  CA       -24.8440   54.8870   18.0650 C.3    37  PRO37       0.1402
     72  C        -25.3980   55.9360   17.1130 C.2    37  PRO37       0.2269
     73  O        -26.4410   55.7820   16.4740 O.2    37  PRO37      -0.2865
     74  CB       -25.3980   55.0820   19.4830 C.3    37  PRO37       0.0296
     75  CG       -24.2220   55.1670   20.3850 C.3    37  PRO37       0.0237
     76  CD       -23.0460   55.5890   19.5590 C.3    37  PRO37       0.0939
     77  N        -24.6210   49.5240   17.6140 N.3    61  GLY61      -0.1225
     78  CA       -24.3900   50.8660   18.1200 C.3    61  GLY61       0.1811
     79  C        -24.1650   50.9350   19.6200 C.2    61  GLY61       0.2280
     80  O        -23.8800   52.0000   20.1660 O.2    61  GLY61      -0.2866
     81  N         -9.8950   50.5100   19.0510 N.3    76  PHE76      -0.1227
     82  CA        -9.1690   51.6500   18.5020 C.3    76  PHE76       0.1736
     83  C        -10.1720   52.7840   18.2660 C.2    76  PHE76       0.2596
     84  O        -10.7420   52.8940   17.1770 O.2    76  PHE76      -0.2718
     85  CB        -8.4570   51.2990   17.1850 C.3    76  PHE76       0.0547
     86  CG        -7.2160   50.4340   17.3410 C.ar   76  PHE76      -0.0202
     87  CD1       -7.2840   49.1940   17.9550 C.ar   76  PHE76      -0.0042
     88  CD2       -6.0000   50.8530   16.8210 C.ar   76  PHE76      -0.0042
     89  CE1       -6.1570   48.3930   18.0680 C.ar   76  PHE76      -0.0003
     90  CE2       -4.8610   50.0610   16.9280 C.ar   76  PHE76      -0.0003
     91  CZ        -4.9350   48.8330   17.5530 C.ar   76  PHE76      -0.0000
     92  N        -10.4110   53.6070   19.2850 N.am   77  THR77      -0.1939
     93  CA       -11.3680   54.7060   19.1560 C.3    77  THR77       0.2028
     94  C        -10.7760   56.0320   19.6400 C.2    77  THR77       0.2642
     95  O        -10.0730   56.7190   18.9000 O.2    77  THR77      -0.2714
     96  CB       -12.6920   54.4220   19.9340 C.3    77  THR77       0.1808
     97  OG1      -12.4110   54.1630   21.3170 O.3    77  THR77      -0.2208
     98  CG2      -13.4340   53.2240   19.3320 C.3    77  THR77       0.0379
     99  N        -11.0740   56.3800   20.8850 N.am   78  HIS78      -0.1959
    100  CA       -10.7020   57.6660   21.4630 C.3    78  HIS78       0.1772
    101  C        -10.7390   57.4970   22.9800 C.2    78  HIS78       0.2462
    102  O        -11.5510   56.7200   23.4800 O.2    78  HIS78      -0.2730
    103  CB       -11.6590   58.7660   20.9920 C.3    78  HIS78       0.0785
    104  CG       -11.2870   60.1370   21.4630 C.ar   78  HIS78       0.0821
    105  ND1      -11.6250   60.6100   22.7130 N.ar   78  HIS78      -0.2267
    106  CD2      -10.5990   61.1330   20.8570 C.ar   78  HIS78       0.1154
    107  CE1      -11.1650   61.8410   22.8550 C.ar   78  HIS78       0.1986
    108  NE2      -10.5400   62.1820   21.7420 N.ar   78  HIS78      -0.2212
    109  N         -9.8390   58.1850   23.7120 N.am   79  PRO79      -0.2727
    110  CA        -9.7210   57.9760   25.1600 C.3    79  PRO79       0.1402
    111  C        -11.0490   58.0180   25.9050 C.2    79  PRO79       0.2269
    112  O        -11.3270   57.1160   26.7010 O.2    79  PRO79      -0.2865
    113  CB        -8.8190   59.1300   25.5990 C.3    79  PRO79       0.0296
    114  CG        -7.9260   59.3350   24.4290 C.3    79  PRO79       0.0237
    115  CD        -8.7850   59.0880   23.2110 C.3    79  PRO79       0.0939
    116  N        -13.9610   57.4100   24.8380 N.3    81  VAL81      -0.1245
    117  CA       -14.7740   56.2570   24.4680 C.3    81  VAL81       0.1561
    118  C        -14.2460   54.9920   25.1520 C.2    81  VAL81       0.2260
    119  O        -15.0160   54.2130   25.7240 O.2    81  VAL81      -0.2867
    120  CB       -14.8220   56.0840   22.9360 C.3    81  VAL81       0.0252
    121  CG1      -15.5720   54.8120   22.5620 C.3    81  VAL81       0.0019
    122  CG2      -15.4650   57.3050   22.2870 C.3    81  VAL81       0.0019
    123  N        -15.0420   54.3590   28.8650 N.3    84  LYS84      -0.1231
    124  CA       -16.3720   53.7820   29.0410 C.3    84  LYS84       0.1693
    125  C        -16.3860   52.3120   28.6150 C.2    84  LYS84       0.2592
    126  O        -16.9670   51.4740   29.3000 O.2    84  LYS84      -0.2718
    127  CB       -17.4190   54.5760   28.2540 C.3    84  LYS84       0.0285
    128  CG       -17.6590   55.9610   28.8220 C.3    84  LYS84       0.0035
    129  CD       -18.9210   56.5980   28.2570 C.3    84  LYS84       0.0206
    130  CE       -18.8370   56.7630   26.7480 C.3    84  LYS84       0.1093
    131  NZ       -17.7700   57.7250   26.3150 N.3    84  LYS84      -0.1314
    132  N        -15.7420   52.0040   27.4900 N.am   85  ASN85      -0.1974
    133  CA       -15.6270   50.6220   27.0180 C.3    85  ASN85       0.1688
    134  C        -15.0320   49.7130   28.0870 C.2    85  ASN85       0.2292
    135  O        -15.4520   48.5670   28.2630 O.2    85  ASN85      -0.2864
    136  CB       -14.7660   50.5520   25.7550 C.3    85  ASN85       0.1181
    137  CG       -15.5010   51.0200   24.5310 C.2    85  ASN85       0.2629
    138  OD1      -16.7240   51.1330   24.5430 O.2    85  ASN85      -0.2716
    139  ND2      -14.7660   51.2930   23.4630 N.am   85  ASN85      -0.0877
    140  N         -5.8410   49.8560   21.5000 N.3    99  GLY99      -0.1210
    141  CA        -4.8880   50.5370   20.6370 C.3    99  GLY99       0.1956
    142  C         -5.0440   52.0490   20.6550 C.2    99  GLY99       0.2613
    143  O         -4.1810   52.7770   20.1640 O.2    99  GLY99      -0.2717
    144  N         -6.1580   52.5120   21.2100 N.am  100  THR100     -0.1938
    145  CA        -6.4120   53.9370   21.4290 C.3   100  THR100      0.2028
    146  C         -5.2020   54.6540   22.0330 C.2   100  THR100      0.2642
    147  O         -4.5750   54.1490   22.9660 O.2   100  THR100     -0.2714
    148  CB        -7.6180   54.1260   22.3570 C.3   100  THR100      0.1808
    149  OG1       -8.7540   53.4550   21.8000 O.3   100  THR100     -0.2208
    150  CG2       -7.9350   55.6000   22.5410 C.3   100  THR100      0.0379
    151  N         -4.8630   55.8210   21.4920 N.am  101  THR101     -0.1950
    152  CA        -3.7460   56.6010   22.0140 C.3   101  THR101      0.1897
    153  C         -4.2260   57.9100   22.6350 C.2   101  THR101      0.2313
    154  O         -5.3900   58.2710   22.5100 O.2   101  THR101     -0.2863
    155  CB        -2.7300   56.9230   20.9160 C.3   101  THR101      0.1794
    156  OG1       -3.3500   57.7860   19.9540 O.3   101  THR101     -0.2208
    157  CG2       -2.2840   55.6470   20.2240 C.3   101  THR101      0.0378
    158  N         -0.9730   49.0740   24.1250 N.3   123  ALA123     -0.1231
    159  CA         0.2970   49.3930   23.4830 C.3   123  ALA123      0.1694
    160  C          0.1970   50.6220   22.5950 C.2   123  ALA123      0.2592
    161  O         -0.7920   50.8210   21.8840 O.2   123  ALA123     -0.2718
    162  CB         0.8100   48.1860   22.6570 C.3   123  ALA123      0.0304
    163  N          1.2450   51.4370   22.6350 N.am  124  ALA124     -0.1966
    164  CA         1.3400   52.6240   21.7970 C.3   124  ALA124      0.1728
    165  C          1.5280   52.2560   20.3250 C.2   124  ALA124      0.2616
    166  O          1.2250   53.0480   19.4330 O.2   124  ALA124     -0.2715
    167  CB         2.4830   53.5030   22.2730 C.3   124  ALA124      0.0334
    168  N          2.0290   51.0490   20.0730 N.am  125  ASN125     -0.1958
    169  CA         2.2820   50.6090   18.7010 C.3   125  ASN125      0.1819
    170  C          2.0350   49.1050   18.6120 C.2   125  ASN125      0.2621
    171  O          2.6870   48.3270   19.3050 O.2   125  ASN125     -0.2715
    172  CB         3.7160   50.9780   18.2820 C.3   125  ASN125      0.1195
    173  CG         3.9790   50.7560   16.7990 C.2   125  ASN125      0.2630
    174  OD1        3.5910   49.7360   16.2300 O.2   125  ASN125     -0.2716
    175  ND2        4.6600   51.7070   16.1700 N.am  125  ASN125     -0.0877
    176  N          1.0880   48.6980   17.7670 N.am  126  PHE126     -0.1974
    177  CA         0.7340   47.2860   17.6730 C.3   126  PHE126      0.1639
    178  C          1.4050   46.5580   16.5070 C.2   126  PHE126      0.2290
    179  O          1.1400   45.3830   16.2850 O.2   126  PHE126     -0.2864
    180  CB        -0.7900   47.1250   17.5980 C.3   126  PHE126      0.0560
    181  CG        -1.4220   46.9410   18.9430 C.ar  126  PHE126     -0.0200
    182  CD1       -1.3500   45.7110   19.5900 C.ar  126  PHE126     -0.0042
    183  CD2       -2.0190   47.9980   19.5920 C.ar  126  PHE126     -0.0042
    184  CE1       -1.9080   45.5360   20.8450 C.ar  126  PHE126     -0.0003
    185  CE2       -2.5850   47.8300   20.8470 C.ar  126  PHE126     -0.0003
    186  CZ        -2.5240   46.6000   21.4750 C.ar  126  PHE126     -0.0000
    187  N         -1.7110   50.5060    7.2710 N.3   237  ARG237     -0.1245
    188  CA        -2.0670   50.3880    8.6840 C.3   237  ARG237      0.1563
    189  C         -2.4750   48.9630    9.0590 C.2   237  ARG237      0.2260
    190  O         -2.6890   48.6590   10.2350 O.2   237  ARG237     -0.2867
    191  CB        -3.2020   51.3530    9.0420 C.3   237  ARG237      0.0307
    192  CG        -2.7980   52.8230    9.0980 C.3   237  ARG237      0.0489
    193  CD        -4.0150   53.6740    9.4520 C.3   237  ARG237      0.2205
    194  NE        -5.1820   53.2640    8.6790 N.pl3 237  ARG237     -0.0865
    195  CZ        -5.5770   53.8480    7.5520 C.cat 237  ARG237      0.5346
    196  NH1       -6.6470   53.3980    6.9130 N.pl3 237  ARG237      0.1354
    197  NH2       -4.9040   54.8840    7.0670 N.pl3 237  ARG237      0.1354
    198  N         -0.6700   47.3210   12.0400 N.3   240  PHE240     -0.1241
    199  CA        -1.1260   47.5190   13.4190 C.3   240  PHE240      0.1605
    200  C         -2.3340   46.6380   13.7160 C.2   240  PHE240      0.2264
    201  O         -2.4850   46.1200   14.8230 O.2   240  PHE240     -0.2867
    202  CB        -1.4570   48.9970   13.6700 C.3   240  PHE240      0.0534
    203  CG        -0.3770   49.9520   13.1950 C.ar  240  PHE240     -0.0203
    204  CD1        0.8600   49.9960   13.8270 C.ar  240  PHE240     -0.0042
    205  CD2       -0.6080   50.8070   12.1240 C.ar  240  PHE240     -0.0042
    206  CE1        1.8550   50.8650   13.3930 C.ar  240  PHE240     -0.0003
    207  CE2        0.3730   51.6730   11.6840 C.ar  240  PHE240     -0.0003
    208  CZ         1.6150   51.6990   12.3190 C.ar  240  PHE240     -0.0000
@<TRIPOS>BOND
     1   196   195    1
     2   197   195    1
     3   187   188    1
     4   195   194    2
     5   194   193    1
     6   188   191    1
     7   188   189    1
     8    27    26    1
     9    27    28    1
    10    26    25    1
    11   191   192    1
    12   189   190    2
    13   192   193    1
    14    30    29    1
    15    24    23    2
    16    25    22    1
    17    15    14    2
    18    22    23    1
    19    22    21    1
    20    28    29    2
    21    20    19    2
    22    23    32   am
    23    29    31    1
    24    21    19   am
    25    19    18    1
    26    14    13    1
    27    14    17   am
    28    13    16    1
    29    13    12    1
    30    42    43    2
    31    42    41    1
    32    32    33    1
    33    18    17    1
    34   207   205   ar
    35   207   208   ar
    36   198   199    1
    37    35    34    2
    38    33    34    1
    39    33    36    1
    40   205   203   ar
    41    38    39    1
    42    38    37    1
    43    34    40   am
    44   208   206   ar
    45    40    41    1
    46   203   202    1
    47   203   204   ar
    48    37    36    1
    49   206   204   ar
    50   199   202    1
    51   199   200    1
    52   200   201    2
    53    11    10    2
    54    57    56   ar
    55    58    56   ar
    56    56    55    1
    57    55    52    1
    58    10     9    1
    59    62    61    2
    60   175   173   am
    61    52    51    1
    62    52    53    1
    63   174   173    2
    64   179   178    2
    65     9     8    1
    66    51    46   am
    67    73    72    2
    68   178   177    1
    69    44    45    1
    70    59    53   am
    71    59    60    1
    72    46    47    2
    73    46    45    1
    74   173   172    1
    75    88    90   ar
    76    88    86   ar
    77    63    64    1
    78    63    60    1
    79    90    91   ar
    80    53    54    2
    81    72    71    1
    82    61    60    1
    83    61    70   am
    84    84    83    2
    85    85    86    1
    86    85    82    1
    87    64    65    1
    88    45    48    1
    89     8     3   am
    90    86    87   ar
    91    91    89   ar
    92   180   177    1
    93   180   181    1
    94    77    78    1
    95   177   176    1
    96   176   170   am
    97     4     3    2
    98     3     2    1
    99    87    89   ar
   100    71    70    1
   101    71    74    1
   102    78    79    1
   103    70    76    1
   104    83    82    1
   105    83    92   am
   106   172   169    1
   107     1     2    1
   108    82    81    1
   109     2     5    1
   110   170   169    1
   111   170   171    2
   112    65    66    1
   113   169   168    1
   114    48    50    1
   115    48    49    1
   116    95    94    2
   117    68    67    1
   118   181   182   ar
   119   181   183   ar
   120    93    92    1
   121    93    94    1
   122    93    96    1
   123    98    96    1
   124    66    67    2
   125    67    69    1
   126   166   165    2
   127    74    75    1
   128    76    75    1
   129   182   184   ar
   130   183   185   ar
   131    79    80    2
   132    94    99   am
   133    96    97    1
   134   156   155    1
   135   168   165   am
   136     5     7    1
   137     5     6    1
   138   143   142    2
   139   157   155    1
   140   165   164    1
   141   141   142    1
   142   141   140    1
   143   142   144   am
   144   184   186   ar
   145   185   186   ar
   146   106   104   ar
   147   106   108   ar
   148    99   100    1
   149   155   152    1
   150   103   100    1
   151   103   104    1
   152   144   145    1
   153   145   146    1
   154   145   148    1
   155   100   101    1
   156   104   105   ar
   157   151   152    1
   158   151   146   am
   159   108   107   ar
   160   164   167    1
   161   164   163    1
   162   149   148    1
   163   161   160    2
   164   152   153    1
   165   146   147    2
   166   122   120    1
   167   148   150    1
   168   154   153    2
   169   121   120    1
   170   160   163   am
   171   160   159    1
   172   162   159    1
   173   105   107   ar
   174   120   117    1
   175   101   102    2
   176   101   109   am
   177   115   109    1
   178   115   114    1
   179   139   137   am
   180   159   158    1
   181   109   110    1
   182   114   113    1
   183   117   116    1
   184   117   118    1
   185   137   138    2
   186   137   136    1
   187   118   119    2
   188   110   113    1
   189   110   111    1
   190   136   133    1
   191   111   112    2
   192   131   130    1
   193   130   129    1
   194   133   132    1
   195   133   134    1
   196   132   125   am
   197   134   135    2
   198   127   128    1
   199   127   124    1
   200   129   128    1
   201   125   124    1
   202   125   126    2
   203   123   124    1
