@<TRIPOS>MOLECULE
tmp/4ywpA00.pdb
 151 143 0 0 0
SMALL
GASTEIGER

@<TRIPOS>ATOM
      1  N          8.5320   -0.5330   10.3370 N.3     2  TRP2       -0.1241
      2  CA         7.9780   -1.4960   11.2870 C.3     2  TRP2        0.1605
      3  C          6.9680   -2.3910   10.5970 C.2     2  TRP2        0.2264
      4  O          6.3770   -2.0240    9.5780 O.2     2  TRP2       -0.2867
      5  CB         7.3270   -0.7770   12.4720 C.3     2  TRP2        0.0550
      6  CG         6.1150    0.0340   12.1190 C.ar    2  TRP2        0.0003
      7  CD1        6.0830    1.3500   11.7240 C.ar    2  TRP2        0.0946
      8  CD2        4.7500   -0.4130   12.1190 C.ar    2  TRP2        0.0152
      9  NE1        4.7940    1.7420   11.4890 N.ar    2  TRP2       -0.2442
     10  CE2        3.9540    0.6830   11.7270 C.ar    2  TRP2        0.0810
     11  CE3        4.1250   -1.6200   12.4380 C.ar    2  TRP2        0.0012
     12  CZ2        2.5640    0.5960   11.6230 C.ar    2  TRP2        0.0191
     13  CZ3        2.7470   -1.7050   12.3370 C.ar    2  TRP2        0.0001
     14  CH2        1.9860   -0.5950   11.9340 C.ar    2  TRP2        0.0015
     15  N         -8.7800    1.7210    2.0720 N.3    57  LEU57      -0.1245
     16  CA        -7.3720    1.7990    1.7340 C.3    57  LEU57       0.1561
     17  C         -6.5770    0.6880    2.4010 C.2    57  LEU57       0.2260
     18  O         -6.9210    0.2300    3.4830 O.2    57  LEU57      -0.2867
     19  CB        -6.8030    3.1620    2.1080 C.3    57  LEU57       0.0270
     20  CG        -6.8780    3.5210    3.5770 C.3    57  LEU57       0.0019
     21  CD1       -5.6300    3.0320    4.3140 C.3    57  LEU57       0.0001
     22  CD2       -7.0880    5.0110    3.7470 C.3    57  LEU57       0.0001
     23  N         -3.1360    0.3220    4.0260 N.3    59  ASN59      -0.1240
     24  CA        -2.0530    1.1620    4.5240 C.3    59  ASN59       0.1653
     25  C         -0.7610    0.3860    4.8480 C.2    59  ASN59       0.2266
     26  O          0.1620    0.9360    5.4640 O.2    59  ASN59      -0.2867
     27  CB        -2.5440    1.9350    5.7380 C.3    59  ASN59       0.1155
     28  CG        -2.9960    1.0250    6.8620 C.2    59  ASN59       0.2627
     29  OD1       -2.5730   -0.1260    6.9360 O.2    59  ASN59      -0.2716
     30  ND2       -3.8450    1.5330    7.7200 N.am   59  ASN59      -0.0877
     31  N         -0.4270   -2.0920    6.8520 N.3    61  HIS61      -0.1226
     32  CA        -0.5760   -2.8480    8.0950 C.3    61  HIS61       0.1752
     33  C         -1.9910   -3.3410    8.3620 C.2    61  HIS61       0.2596
     34  O         -2.1790   -4.2020    9.2200 O.2    61  HIS61      -0.2718
     35  CB        -0.0540   -2.0960    9.3310 C.3    61  HIS61       0.0759
     36  CG        -0.3230   -0.6320    9.3420 C.ar   61  HIS61       0.0818
     37  ND1        0.4280    0.2540    8.6040 N.ar   61  HIS61      -0.2268
     38  CD2       -1.1870    0.1120   10.0660 C.ar   61  HIS61       0.1154
     39  CE1        0.0020    1.4810    8.8360 C.ar   61  HIS61       0.1986
     40  NE2       -0.9720    1.4260    9.7210 N.ar   61  HIS61      -0.2212
     41  N         -2.9720   -2.8170    7.6350 N.am   62  SER62      -0.1952
     42  CA        -4.3620   -3.2970    7.7110 C.3    62  SER62       0.1924
     43  C         -5.0610   -2.7710    6.4760 C.2    62  SER62       0.2314
     44  O         -4.4280   -2.1390    5.6290 O.2    62  SER62      -0.2863
     45  CB        -5.0400   -2.7860    8.9870 C.3    62  SER62       0.2116
     46  OG        -6.3520   -3.3080    9.1690 O.3    62  SER62      -0.2180
     47  N         -8.5690   -0.2900    5.8170 N.3    64  GLN64      -0.1245
     48  CA        -9.2220    0.6900    6.6210 C.3    64  GLN64       0.1566
     49  C        -10.2790    1.4140    5.8150 C.2    64  GLN64       0.2260
     50  O        -10.0490    1.7490    4.6470 O.2    64  GLN64      -0.2867
     51  CB        -8.1700    1.6530    7.0960 C.3    64  GLN64       0.0367
     52  CG        -8.6850    2.7210    7.9180 C.3    64  GLN64       0.0905
     53  CD        -7.5820    3.5460    8.5030 C.2    64  GLN64       0.2608
     54  OE1       -7.6030    4.7770    8.4300 O.2    64  GLN64      -0.2717
     55  NE2       -6.5740    2.8660    9.0750 N.am   64  GLN64      -0.0878
     56  N        -12.4270    4.9020    5.8210 N.3    66  THR66      -0.1218
     57  CA       -12.3360    6.2260    6.4150 C.3    66  THR66       0.1862
     58  C        -13.6820    6.9560    6.3660 C.2    66  THR66       0.2287
     59  O        -14.5450    6.6290    5.5520 O.2    66  THR66      -0.2866
     60  CB       -11.2880    7.0400    5.7020 C.3    66  THR66       0.1770
     61  OG1      -11.7650    7.2910    4.3830 O.3    66  THR66      -0.2211
     62  CG2       -9.9800    6.2790    5.6310 C.3    66  THR66       0.0375
     63  N        -13.4910    8.3020   12.8580 N.3    88  LEU88      -0.1231
     64  CA       -12.6470    8.6420   11.7270 C.3    88  LEU88       0.1693
     65  C        -12.3500    7.4680   10.8020 C.2    88  LEU88       0.2591
     66  O        -12.2810    7.6470    9.5860 O.2    88  LEU88      -0.2718
     67  CB       -11.3420    9.2840   12.2130 C.3    88  LEU88       0.0284
     68  CG       -10.1140    9.3170   11.3010 C.3    88  LEU88       0.0019
     69  CD1      -10.4470   10.2610   10.1800 C.3    88  LEU88       0.0001
     70  CD2       -8.8770    9.8150   12.0130 C.3    88  LEU88       0.0001
     71  N        -12.1920    6.2700   11.3560 N.am   89  GLN89      -0.1979
     72  CA       -11.8700    5.1270   10.5310 C.3    89  GLN89       0.1601
     73  C        -12.0850    3.8500   11.2940 C.2    89  GLN89       0.2287
     74  O        -12.1110    3.8570   12.5220 O.2    89  GLN89      -0.2864
     75  CB       -10.4160    5.1910   10.0330 C.3    89  GLN89       0.0394
     76  CG        -9.3360    5.3420   11.1490 C.3    89  GLN89       0.0908
     77  CD        -8.6060    4.0590   11.5260 C.2    89  GLN89       0.2608
     78  OE1       -9.1170    2.9500   11.3620 O.2    89  GLN89      -0.2717
     79  NE2       -7.4220    4.2070   12.0890 N.am   89  GLN89      -0.0878
     80  N        -10.7470   -0.4340   11.0170 N.3    91  HIS91      -0.1241
     81  CA        -9.8180   -1.3600   10.4050 C.3    91  HIS91       0.1621
     82  C         -9.8440   -2.6660   11.1950 C.2    91  HIS91       0.2264
     83  O        -10.5280   -2.7750   12.2060 O.2    91  HIS91      -0.2867
     84  CB        -8.4130   -0.7620   10.4060 C.3    91  HIS91       0.0745
     85  CG        -7.8750   -0.5490   11.7850 C.ar   91  HIS91       0.0817
     86  ND1       -7.9780    0.6530   12.4500 N.ar   91  HIS91      -0.2268
     87  CD2       -7.2690   -1.4040   12.6370 C.ar   91  HIS91       0.1154
     88  CE1       -7.4790    0.5200   13.6610 C.ar   91  HIS91       0.1986
     89  NE2       -7.0290   -0.7150   13.7980 N.ar   91  HIS91      -0.2212
     90  N        -12.1820    3.6350   15.3570 N.3   118  VAL118     -0.1245
     91  CA       -11.3450    4.6510   15.9820 C.3   118  VAL118      0.1561
     92  C        -12.0380    5.9950   15.9520 C.2   118  VAL118      0.2260
     93  O        -12.4530    6.4700   14.8780 O.2   118  VAL118     -0.2867
     94  CB        -9.9800    4.7510   15.2490 C.3   118  VAL118      0.0252
     95  CG1       -9.0610    5.7460   15.9610 C.3   118  VAL118      0.0019
     96  CG2       -9.3170    3.3700   15.1720 C.3   118  VAL118      0.0019
     97  N         -7.6060   14.8990   15.0120 N.3   127  VAL127     -0.1231
     98  CA        -7.0740   13.6480   15.5080 C.3   127  VAL127      0.1692
     99  C         -5.5780   13.7300   15.8610 C.2   127  VAL127      0.2592
    100  O         -5.1390   13.1020   16.8210 O.2   127  VAL127     -0.2718
    101  CB        -7.3930   12.4810   14.5180 C.3   127  VAL127      0.0266
    102  CG1       -6.5900   12.5890   13.2440 C.3   127  VAL127      0.0020
    103  CG2       -7.1330   11.1480   15.1780 C.3   127  VAL127      0.0020
    104  N         -4.8130   14.5180   15.1120 N.am  128  GLY128     -0.1957
    105  CA        -3.4020   14.7210   15.3880 C.3   128  GLY128      0.1869
    106  C         -3.1500   15.3170   16.7720 C.2   128  GLY128      0.2309
    107  O         -2.1810   14.9710   17.4590 O.2   128  GLY128     -0.2863
    108  N         -4.2490   12.5660   19.5470 N.3   131  VAL131     -0.1245
    109  CA        -3.3040   11.4920   19.8740 C.3   131  VAL131      0.1561
    110  C         -2.2350   11.9140   20.8830 C.2   131  VAL131      0.2260
    111  O         -1.5530   11.0690   21.4470 O.2   131  VAL131     -0.2867
    112  CB        -2.6440   10.9520   18.5800 C.3   131  VAL131      0.0252
    113  CG1       -1.4130   10.1110   18.8910 C.3   131  VAL131      0.0019
    114  CG2       -3.6330   10.1320   17.7800 C.3   131  VAL131      0.0019
    115  N         -8.5460    9.6640   22.2920 N.3   137  LEU137     -0.1245
    116  CA        -9.1770    8.7040   21.3920 C.3   137  LEU137      0.1561
    117  C        -10.0310    7.7330   22.1800 C.2   137  LEU137      0.2260
    118  O         -9.7480    7.4490   23.3510 O.2   137  LEU137     -0.2867
    119  CB        -8.1270    7.9080   20.5990 C.3   137  LEU137      0.0270
    120  CG        -7.6290    8.5170   19.2860 C.3   137  LEU137      0.0019
    121  CD1       -6.9870    9.8850   19.4700 C.3   137  LEU137      0.0001
    122  CD2       -6.6800    7.5470   18.5600 C.3   137  LEU137      0.0001
    123  N         -2.6870    3.1920   21.3430 N.3   194  LEU194     -0.1245
    124  CA        -2.7280    2.6620   19.9960 C.3   194  LEU194      0.1561
    125  C         -1.9470    1.3630   20.0060 C.2   194  LEU194      0.2260
    126  O         -0.9370    1.2150   20.7280 O.2   194  LEU194     -0.2867
    127  CB        -2.0590    3.6200   19.0240 C.3   194  LEU194      0.0270
    128  CG        -2.7000    5.0000   18.8780 C.3   194  LEU194      0.0019
    129  CD1       -1.8300    5.8880   18.0280 C.3   194  LEU194      0.0001
    130  CD2       -4.0780    4.8750   18.2520 C.3   194  LEU194      0.0001
    131  N         -0.5850    0.1090   17.2210 N.3   196  THR196     -0.1204
    132  CA         0.4030    0.2310   16.1600 C.3   196  THR196      0.1979
    133  C          1.2550    1.4640   16.4380 C.2   196  THR196      0.2460
    134  O          0.7700    2.4270   17.0320 O.2   196  THR196     -0.2732
    135  CB        -0.2630    0.4080   14.7780 C.3   196  THR196      0.1783
    136  OG1       -1.3090    1.3870   14.8690 O.3   196  THR196     -0.2211
    137  CG2       -0.8810   -0.8860   14.2850 C.3   196  THR196      0.0376
    138  N          2.5190    1.4480   15.9920 N.am  197  PRO197     -0.2718
    139  CA         3.3510    2.6490   16.0930 C.3   197  PRO197      0.1520
    140  C          2.5610    3.8590   15.6120 C.2   197  PRO197      0.2440
    141  O          1.9440    3.7970   14.5280 O.2   197  PRO197     -0.2731
    142  CB         4.5340    2.3070   15.1910 C.3   197  PRO197      0.0310
    143  CG         4.7080    0.8350   15.4130 C.3   197  PRO197      0.0237
    144  CD         3.2710    0.3150   15.4410 C.3   197  PRO197      0.0939
    145  N          2.5710    4.9670   16.3710 N.am  198  PRO198     -0.2727
    146  CA         3.5090    5.3060   17.4510 C.3   198  PRO198      0.1402
    147  C          3.1330    4.8030   18.8550 C.2   198  PRO198      0.2269
    148  O          3.8290    5.1420   19.8050 O.2   198  PRO198     -0.2865
    149  CB         3.4950    6.8380   17.4330 C.3   198  PRO198      0.0296
    150  CG         2.1230    7.1720   17.0150 C.3   198  PRO198      0.0237
    151  CD         1.7590    6.1270   15.9820 C.3   198  PRO198      0.0939
@<TRIPOS>BOND
     1    16    15    1
     2    16    19    1
     3    16    17    1
     4    19    20    1
     5    17    18    2
     6    20    22    1
     7    20    21    1
     8    23    24    1
     9    61    60    1
    10    24    25    1
    11    24    27    1
    12    50    49    2
    13    25    26    2
    14    59    58    2
    15    44    43    2
    16    62    60    1
    17    60    57    1
    18    27    28    1
    19    49    48    1
    20    47    48    1
    21    56    57    1
    22    58    57    1
    23    43    42    1
    24    48    51    1
    25    31    32    1
    26    28    29    2
    27    28    30   am
    28    51    52    1
    29    41    42    1
    30    41    33   am
    31    42    45    1
    32    52    53    1
    33    32    33    1
    34    32    35    1
    35    33    34    2
    36    54    53    2
    37    53    55   am
    38    37    39   ar
    39    37    36   ar
    40    39    40   ar
    41    45    46    1
    42    35    36    1
    43    36    38   ar
    44     4     3    2
    45    66    65    2
    46    40    38   ar
    47    75    72    1
    48    75    76    1
    49    69    68    1
    50     1     2    1
    51    81    84    1
    52    81    80    1
    53    81    82    1
    54    84    85    1
    55    72    73    1
    56    72    71    1
    57     3     2    1
    58    65    71   am
    59    65    64    1
    60    76    77    1
    61    82    83    2
    62     2     5    1
    63    73    74    2
    64    68    70    1
    65    68    67    1
    66    78    77    2
    67     9     7   ar
    68     9    10   ar
    69    77    79   am
    70    12    10   ar
    71    12    14   ar
    72     7     6   ar
    73    64    67    1
    74    64    63    1
    75    10     8   ar
    76    85    86   ar
    77    85    87   ar
    78    14    13   ar
    79     8     6   ar
    80     8    11   ar
    81     6     5    1
    82    13    11   ar
    83    86    88   ar
    84    87    89   ar
    85   102   101    1
    86    88    89   ar
    87   137   135    1
    88   101   103    1
    89   101    98    1
    90   141   140    2
    91   135   136    1
    92   135   132    1
    93    93    92    2
    94    97    98    1
    95   104   105    1
    96   104    99   am
    97    96    94    1
    98   142   143    1
    99   142   139    1
   100    94    95    1
   101    94    91    1
   102    90    91    1
   103   105   106    1
   104   143   144    1
   105   144   138    1
   106    98    99    1
   107   140   139    1
   108   140   145   am
   109    99   100    2
   110    92    91    1
   111   151   145    1
   112   151   150    1
   113   138   139    1
   114   138   133   am
   115   132   133    1
   116   132   131    1
   117   145   146    1
   118   133   134    2
   119   106   107    2
   120   150   149    1
   121   149   146    1
   122   146   147    1
   123   114   112    1
   124   129   128    1
   125   130   128    1
   126   122   120    1
   127   112   113    1
   128   112   109    1
   129   147   148    2
   130   128   127    1
   131   127   124    1
   132   120   121    1
   133   120   119    1
   134   108   109    1
   135   109   110    1
   136   124   125    1
   137   124   123    1
   138   125   126    2
   139   119   116    1
   140   110   111    2
   141   116   117    1
   142   116   115    1
   143   117   118    2
