@<TRIPOS>MOLECULE
tmp/4ywrA00.pdb
 145 130 0 0 0
SMALL
GASTEIGER

@<TRIPOS>ATOM
      1  N          2.0410   30.2330   30.8240 N.3     8  SER8       -0.1202
      2  CA         0.6420   30.6290   30.7500 C.3     8  SER8        0.2020
      3  C         -0.0530   29.7830   29.7040 C.2     8  SER8        0.2619
      4  O          0.5800   29.2510   28.7870 O.2     8  SER8       -0.2717
      5  CB         0.5060   32.1110   30.3840 C.3     8  SER8        0.2103
      6  OG         0.9870   32.9410   31.4390 O.3     8  SER8       -0.2182
      7  N         -1.3730   29.6650   29.8530 N.am    9  GLY9       -0.1956
      8  CA        -2.1570   28.9210   28.8900 C.3     9  GLY9        0.1869
      9  C         -2.6990   29.7890   27.7810 C.2     9  GLY9        0.2309
     10  O         -2.7870   31.0120   27.8850 O.2     9  GLY9       -0.2863
     11  N         -5.7860   30.9580   25.5470 N.3    11  ASP11      -0.1239
     12  CA        -7.2320   31.1190   25.4610 C.3    11  ASP11       0.1674
     13  C         -7.5590   31.5490   24.0410 C.2    11  ASP11       0.2266
     14  O         -7.2780   32.6980   23.6740 O.2    11  ASP11      -0.2867
     15  CB        -7.7020   32.1670   26.4790 C.3    11  ASP11       0.1410
     16  CG        -9.0940   32.7130   26.1990 C.2    11  ASP11       0.3668
     17  OD1       -9.8700   32.0870   25.4470 O.co2  11  ASP11      -0.2456
     18  OD2       -9.4210   33.7810   26.7780 O.co2  11  ASP11      -0.2456
     19  N         -8.1030   36.2080   27.8180 N.3    16  ALA16      -0.1231
     20  CA        -7.2630   35.9160   28.9660 C.3    16  ALA16       0.1694
     21  C         -6.0590   35.1130   28.5020 C.2    16  ALA16       0.2592
     22  O         -5.8640   34.8810   27.3040 O.2    16  ALA16      -0.2718
     23  CB        -8.0620   35.1570   30.0260 C.3    16  ALA16       0.0304
     24  N         -5.2410   34.7000   29.4660 N.am   17  GLY17      -0.1957
     25  CA        -4.1370   33.8140   29.1440 C.3    17  GLY17       0.1869
     26  C         -2.9480   34.5370   28.5420 C.2    17  GLY17       0.2309
     27  O         -2.7260   35.7350   28.7480 O.2    17  GLY17      -0.2863
     28  N         -6.1250   25.6530   25.5040 N.3    40  THR40      -0.1218
     29  CA        -7.4850   25.5090   26.0040 C.3    40  THR40       0.1862
     30  C         -8.4900   25.6400   24.8670 C.2    40  THR40       0.2287
     31  O         -8.2020   26.1780   23.7930 O.2    40  THR40      -0.2866
     32  CB        -7.8150   26.5350   27.1060 C.3    40  THR40       0.1770
     33  OG1       -7.9710   27.8460   26.5350 O.3    40  THR40      -0.2211
     34  CG2       -6.7310   26.5820   28.1810 C.3    40  THR40       0.0375
     35  N        -12.0210   27.2440   24.6980 N.3    42  GLN42      -0.1245
     36  CA       -12.8840   28.0580   25.5430 C.3    42  GLN42       0.1566
     37  C        -13.2060   29.3500   24.8190 C.2    42  GLN42       0.2260
     38  O        -12.5440   29.7230   23.8480 O.2    42  GLN42      -0.2867
     39  CB       -12.2260   28.3670   26.9000 C.3    42  GLN42       0.0367
     40  CG       -11.0840   29.3570   26.8030 C.3    42  GLN42       0.0905
     41  CD       -10.5620   29.8160   28.1660 C.2    42  GLN42       0.2608
     42  OE1      -11.2720   30.4590   28.9380 O.2    42  GLN42      -0.2717
     43  NE2       -9.3120   29.4900   28.4490 N.am   42  GLN42      -0.0878
     44  N          6.7010   34.9100   34.9580 N.3    75  LYS75      -0.1245
     45  CA         5.3330   35.0760   35.4300 C.3    75  LYS75       0.1561
     46  C          4.5960   33.7880   35.1140 C.2    75  LYS75       0.2260
     47  O          4.7860   33.2150   34.0400 O.2    75  LYS75      -0.2867
     48  CB         4.6580   36.2910   34.7600 C.3    75  LYS75       0.0271
     49  CG         3.1900   36.5320   35.1610 C.3    75  LYS75       0.0035
     50  CD         2.2360   35.8010   34.2090 C.3    75  LYS75       0.0206
     51  CE         0.7870   35.9380   34.6850 C.3    75  LYS75       0.1093
     52  NZ        -0.1740   35.2650   33.7610 N.3    75  LYS75      -0.1314
     53  N          0.6720   31.9180   34.9780 N.3    77  GLY77      -0.1210
     54  CA        -0.7710   31.9890   35.1080 C.3    77  GLY77       0.1956
     55  C         -1.3130   30.5830   35.2140 C.2    77  GLY77       0.2611
     56  O         -0.9950   29.8520   36.1570 O.2    77  GLY77      -0.2717
     57  N         -2.1170   30.1880   34.2340 N.am   78  MET78      -0.1979
     58  CA        -2.5980   28.8200   34.1910 C.3    78  MET78       0.1605
     59  C         -1.4320   27.8660   34.0260 C.2    78  MET78       0.2287
     60  O         -0.6200   28.0090   33.1090 O.2    78  MET78      -0.2864
     61  CB        -3.5720   28.6310   33.0380 C.3    78  MET78       0.0413
     62  CG        -3.9560   27.1570   32.8610 C.3    78  MET78       0.0598
     63  SD        -5.0130   26.9320   31.4490 S.3    78  MET78      -0.1393
     64  CE        -5.3580   25.1720   31.6410 C.3    78  MET78       0.0692
     65  N          0.7940   34.2550   39.5840 N.3   103  ASP103     -0.1239
     66  CA        -0.6360   34.5420   39.5650 C.3   103  ASP103      0.1674
     67  C         -1.3630   33.2180   39.7370 C.2   103  ASP103      0.2266
     68  O         -1.3390   32.3930   38.8160 O.2   103  ASP103     -0.2867
     69  CB        -1.0460   35.2180   38.2540 C.3   103  ASP103      0.1410
     70  CG        -2.4640   35.7430   38.2930 C.2   103  ASP103      0.3668
     71  OD1       -2.9950   35.9210   39.4070 O.co2 103  ASP103     -0.2456
     72  OD2       -3.0550   35.9860   37.2180 O.co2 103  ASP103     -0.2456
     73  N         -3.7060   31.0100   39.2560 N.3   105  VAL105     -0.1245
     74  CA        -4.9280   30.7510   38.4940 C.3   105  VAL105      0.1561
     75  C         -5.4500   29.3580   38.8270 C.2   105  VAL105      0.2260
     76  O         -4.7760   28.3500   38.5860 O.2   105  VAL105     -0.2867
     77  CB        -4.6670   30.9060   36.9900 C.3   105  VAL105      0.0252
     78  CG1       -5.9140   30.5020   36.1820 C.3   105  VAL105      0.0019
     79  CG2       -4.2910   32.3430   36.6970 C.3   105  VAL105      0.0019
     80  N         -9.1300   28.7080   38.3230 N.3   107  VAL107     -0.1231
     81  CA       -10.3920   28.5690   37.5980 C.3   107  VAL107      0.1692
     82  C        -10.4040   29.6610   36.5540 C.2   107  VAL107      0.2592
     83  O         -9.7510   30.6920   36.7110 O.2   107  VAL107     -0.2718
     84  CB       -11.6550   28.7290   38.4880 C.3   107  VAL107      0.0266
     85  CG1      -12.7410   27.7220   38.1030 C.3   107  VAL107      0.0020
     86  CG2      -11.3500   28.7740   39.9650 C.3   107  VAL107      0.0020
     87  N        -11.1950   29.4640   35.5020 N.am  108  ALA108     -0.1966
     88  CA       -11.3900   30.5320   34.5380 C.3   108  ALA108      0.1728
     89  C        -12.3670   31.5580   35.1000 C.2   108  ALA108      0.2616
     90  O        -13.2380   31.2340   35.9130 O.2   108  ALA108     -0.2715
     91  CB       -11.9190   29.9810   33.2120 C.3   108  ALA108      0.0334
     92  N        -12.2170   32.8070   34.6530 N.am  109  ASN109     -0.1958
     93  CA       -13.1590   33.8520   35.0450 C.3   109  ASN109      0.1819
     94  C        -14.5940   33.4750   34.7000 C.2   109  ASN109      0.2622
     95  O        -15.5240   33.8500   35.4240 O.2   109  ASN109     -0.2715
     96  CB       -12.7830   35.1740   34.3770 C.3   109  ASN109      0.1195
     97  CG       -11.4120   35.6780   34.8070 C.2   109  ASN109      0.2630
     98  OD1      -11.0070   35.5100   35.9600 O.2   109  ASN109     -0.2716
     99  ND2      -10.6870   36.2890   33.8730 N.am  109  ASN109     -0.0877
    100  N        -14.7970   32.7360   33.6040 N.am  110  SER110     -0.1950
    101  CA       -16.1210   32.2480   33.2340 C.3   110  SER110      0.1924
    102  C        -16.6610   31.2040   34.1990 C.2   110  SER110      0.2314
    103  O        -17.8400   30.8570   34.1010 O.2   110  SER110     -0.2863
    104  CB       -16.0840   31.6410   31.8320 C.3   110  SER110      0.2116
    105  OG       -15.2890   30.4620   31.8470 O.3   110  SER110     -0.2180
    106  N         -9.9440   25.0450   34.8010 N.3   114  LEU114     -0.1245
    107  CA        -8.5800   25.0650   34.2850 C.3   114  LEU114      0.1561
    108  C         -7.7010   24.0940   35.0680 C.2   114  LEU114      0.2260
    109  O         -6.4950   24.3090   35.2050 O.2   114  LEU114     -0.2867
    110  CB        -8.0090   26.4850   34.3230 C.3   114  LEU114      0.0270
    111  CG        -8.7950   27.5070   33.4810 C.3   114  LEU114      0.0019
    112  CD1       -8.2320   28.9280   33.6420 C.3   114  LEU114      0.0001
    113  CD2       -8.8220   27.1150   31.9980 C.3   114  LEU114      0.0001
    114  N         -6.4480   37.0080   43.8510 N.3   137  ASN137     -0.1240
    115  CA        -7.6960   37.6690   44.1970 C.3   137  ASN137      0.1653
    116  C         -8.2130   37.0390   45.4920 C.2   137  ASN137      0.2266
    117  O         -7.5960   36.1230   46.0460 O.2   137  ASN137     -0.2867
    118  CB        -8.6930   37.6000   43.0310 C.3   137  ASN137      0.1155
    119  CG        -9.0950   36.1750   42.6590 C.2   137  ASN137      0.2627
    120  OD1       -9.1880   35.2970   43.5100 O.2   137  ASN137     -0.2716
    121  ND2       -9.3600   35.9530   41.3690 N.am  137  ASN137     -0.0877
    122  N         -8.8160   33.2000   45.2570 N.3   140  GLU140     -0.1245
    123  CA        -7.5660   32.4430   45.2180 C.3   140  GLU140      0.1567
    124  C         -6.8620   32.4660   46.5650 C.2   140  GLU140      0.2260
    125  O         -6.2920   31.4580   46.9910 O.2   140  GLU140     -0.2867
    126  CB        -6.6460   33.0040   44.1220 C.3   140  GLU140      0.0388
    127  CG        -7.2270   32.7780   42.7310 C.3   140  GLU140      0.1160
    128  CD        -6.6700   33.7250   41.6740 C.2   140  GLU140      0.3649
    129  OE1       -5.9540   34.6920   42.0300 O.co2 140  GLU140     -0.2457
    130  OE2       -6.9660   33.4990   40.4790 O.co2 140  GLU140     -0.2457
    131  N         -5.8260   41.2450   45.6290 N.3   168  LYS168     -0.1245
    132  CA        -6.7260   41.9800   44.7570 C.3   168  LYS168      0.1561
    133  C         -8.1410   41.8320   45.3040 C.2   168  LYS168      0.2260
    134  O         -8.7360   40.7480   45.2370 O.2   168  LYS168     -0.2867
    135  CB        -6.6050   41.4680   43.3270 C.3   168  LYS168      0.0271
    136  CG        -5.1670   41.5620   42.8170 C.3   168  LYS168      0.0035
    137  CD        -5.0270   41.0760   41.3930 C.3   168  LYS168      0.0206
    138  CE        -5.3290   39.5910   41.2700 C.3   168  LYS168      0.1093
    139  NZ        -5.1760   39.1230   39.8620 N.3   168  LYS168     -0.1314
    140  N         -6.1380   42.4050   36.3890 N.3   198  SER198     -0.1217
    141  CA        -5.0850   41.4890   35.9410 C.3   198  SER198      0.1889
    142  C         -3.7650   42.2560   35.8970 C.2   198  SER198      0.2288
    143  O         -3.3930   42.8430   34.8800 O.2   198  SER198     -0.2866
    144  CB        -5.4370   40.8860   34.5850 C.3   198  SER198      0.2089
    145  OG        -4.5150   39.8760   34.2130 O.3   198  SER198     -0.2183
@<TRIPOS>BOND
     1    14    13    2
     2    31    30    2
     3    38    37    2
     4    13    12    1
     5    35    36    1
     6    37    36    1
     7    30    29    1
     8    17    16   ar
     9    12    11    1
    10    12    15    1
    11    28    29    1
    12    36    39    1
    13    29    32    1
    14    16    15    1
    15    16    18   ar
    16    33    32    1
    17    40    39    1
    18    40    41    1
    19    32    34    1
    20    22    21    2
    21     9    10    2
    22     9     8    1
    23    19    20    1
    24    41    43   am
    25    41    42    2
    26    21    20    1
    27    21    24   am
    28    26    27    2
    29    26    25    1
    30     4     3    2
    31     8     7    1
    32    20    23    1
    33    25    24    1
    34     3     7   am
    35     3     2    1
    36     5     2    1
    37     5     6    1
    38     2     1    1
    39    63    64    1
    40    63    62    1
    41   104   105    1
    42   104   101    1
    43   113   111    1
    44    62    61    1
    45    61    58    1
    46    60    59    2
    47    91    88    1
    48   101   100    1
    49   101   102    1
    50   111   112    1
    51   111   110    1
    52   100    94   am
    53    52    51    1
    54    99    97   am
    55    59    58    1
    56    47    46    2
    57   103   102    2
    58    58    57    1
    59    50    51    1
    60    50    49    1
    61   145   144    1
    62    57    55   am
    63   107   110    1
    64   107   106    1
    65   107   108    1
    66    96    97    1
    67    96    93    1
    68    88    89    1
    69    88    87    1
    70   144   141    1
    71    92    93    1
    72    92    89   am
    73    94    93    1
    74    94    95    2
    75    48    49    1
    76    48    45    1
    77    97    98    2
    78   143   142    2
    79    44    45    1
    80    53    54    1
    81   108   109    2
    82    89    90    2
    83    54    55    1
    84    46    45    1
    85    55    56    2
    86    87    82   am
    87   142   141    1
    88   141   140    1
    89    78    77    1
    90    82    83    2
    91    82    81    1
    92    79    77    1
    93    77    74    1
    94    72    70   ar
    95    81    80    1
    96    81    84    1
    97    85    84    1
    98    69    70    1
    99    69    66    1
   100    70    71   ar
   101    84    86    1
   102    74    75    1
   103    74    73    1
   104    76    75    2
   105    68    67    2
   106    66    65    1
   107    66    67    1
   108   139   138    1
   109   130   128   ar
   110   138   137    1
   111   121   119   am
   112   137   136    1
   113   128   129   ar
   114   128   127    1
   115   119   118    1
   116   119   120    2
   117   127   126    1
   118   136   135    1
   119   118   115    1
   120   135   132    1
   121   114   115    1
   122   126   123    1
   123   115   116    1
   124   132   133    1
   125   132   131    1
   126   123   122    1
   127   123   124    1
   128   134   133    2
   129   116   117    2
   130   124   125    2
