@<TRIPOS>MOLECULE
tmp/4ywuA00.pdb
 135 131 0 0 0
SMALL
GASTEIGER

@<TRIPOS>ATOM
      1  N         54.4240  -23.4690  -18.9520 N.3   129  PRO129     -0.2116
      2  CA        55.1650  -23.4650  -17.6870 C.3   129  PRO129      0.1372
      3  C         55.3740  -24.8480  -17.0680 C.2   129  PRO129      0.2244
      4  O         54.8720  -25.8520  -17.5660 O.2   129  PRO129     -0.2868
      5  CB        54.3110  -22.5700  -16.8100 C.3   129  PRO129      0.0268
      6  CG        52.9380  -22.9930  -17.2150 C.3   129  PRO129      0.0207
      7  CD        53.0350  -23.0310  -18.7330 C.3   129  PRO129      0.0892
      8  N         54.6220  -25.7110  -13.6370 N.3   131  ASN131     -0.1225
      9  CA        53.7370  -26.1310  -12.5530 C.3   131  ASN131      0.1785
     10  C         52.7410  -27.2520  -12.8990 C.2   131  ASN131      0.2597
     11  O         52.2290  -27.9270  -12.0070 O.2   131  ASN131     -0.2718
     12  CB        53.0180  -24.9140  -11.9550 C.3   131  ASN131      0.1169
     13  CG        51.9880  -24.3180  -12.8860 C.2   131  ASN131      0.2627
     14  OD1       52.2190  -24.1780  -14.0900 O.2   131  ASN131     -0.2716
     15  ND2       50.8440  -23.9420  -12.3270 N.am  131  ASN131     -0.0877
     16  N         52.4790  -27.4550  -14.1860 N.am  132  PHE132     -0.1976
     17  CA        51.5770  -28.5100  -14.6540 C.3   132  PHE132      0.1639
     18  C         52.0790  -28.9490  -16.0200 C.2   132  PHE132      0.2290
     19  O         51.4560  -28.6900  -17.0460 O.2   132  PHE132     -0.2864
     20  CB        50.1410  -27.9980  -14.7610 C.3   132  PHE132      0.0560
     21  CG        49.4590  -27.8420  -13.4370 C.ar  132  PHE132     -0.0200
     22  CD1       49.0880  -28.9580  -12.7000 C.ar  132  PHE132     -0.0042
     23  CD2       49.1970  -26.5770  -12.9160 C.ar  132  PHE132     -0.0042
     24  CE1       48.4640  -28.8220  -11.4590 C.ar  132  PHE132     -0.0003
     25  CE2       48.5750  -26.4260  -11.6760 C.ar  132  PHE132     -0.0003
     26  CZ        48.2080  -27.5500  -10.9460 C.ar  132  PHE132     -0.0000
     27  N         49.2250  -31.0510  -18.1060 N.3   135  TYR135     -0.1227
     28  CA        47.9810  -30.2960  -18.1740 C.3   135  TYR135      0.1736
     29  C         48.1380  -29.0420  -19.0400 C.2   135  TYR135      0.2595
     30  O         47.3240  -28.7860  -19.9270 O.2   135  TYR135     -0.2718
     31  CB        47.5460  -29.9150  -16.7540 C.3   135  TYR135      0.0548
     32  CG        46.4640  -28.8690  -16.6970 C.ar  135  TYR135     -0.0200
     33  CD1       45.1600  -29.1620  -17.0990 C.ar  135  TYR135     -0.0009
     34  CD2       46.7500  -27.5700  -16.2680 C.ar  135  TYR135     -0.0009
     35  CE1       44.1650  -28.1870  -17.0790 C.ar  135  TYR135      0.0417
     36  CE2       45.7640  -26.5850  -16.2460 C.ar  135  TYR135      0.0417
     37  CZ        44.4740  -26.9000  -16.6550 C.ar  135  TYR135      0.1957
     38  OH        43.5020  -25.9250  -16.6660 O.3   135  TYR135     -0.2866
     39  N         49.1950  -28.2730  -18.7870 N.am  136  GLN136     -0.1979
     40  CA        49.4490  -27.0510  -19.5430 C.3   136  GLN136      0.1601
     41  C         49.4880  -27.3340  -21.0370 C.2   136  GLN136      0.2287
     42  O         48.8770  -26.6130  -21.8220 O.2   136  GLN136     -0.2864
     43  CB        50.7760  -26.4030  -19.1100 C.3   136  GLN136      0.0394
     44  CG        50.8110  -25.8740  -17.6630 C.3   136  GLN136      0.0908
     45  CD        49.7810  -24.7780  -17.3950 C.2   136  GLN136      0.2608
     46  OE1       49.0950  -24.3110  -18.3090 O.2   136  GLN136     -0.2717
     47  NE2       49.6760  -24.3610  -16.1380 N.am  136  GLN136     -0.0878
     48  N         45.9680  -28.6010  -22.5150 N.3   139  ARG139     -0.1245
     49  CA        44.9800  -27.5250  -22.5840 C.3   139  ARG139      0.1563
     50  C         44.9120  -26.8860  -23.9590 C.2   139  ARG139      0.2260
     51  O         43.8310  -26.5470  -24.4360 O.2   139  ARG139     -0.2867
     52  CB        45.3000  -26.4160  -21.5880 C.3   139  ARG139      0.0307
     53  CG        44.9040  -26.7060  -20.1840 C.3   139  ARG139      0.0489
     54  CD        44.5960  -25.4150  -19.4450 C.3   139  ARG139      0.2205
     55  NE        45.6860  -24.4440  -19.5110 N.pl3 139  ARG139     -0.0865
     56  CZ        45.8420  -23.4470  -18.6470 C.cat 139  ARG139      0.5346
     57  NH1       44.9860  -23.2960  -17.6520 N.pl3 139  ARG139      0.1354
     58  NH2       46.8440  -22.5950  -18.7820 N.pl3 139  ARG139      0.1354
     59  N         51.6920  -19.3680  -21.5450 N.3   205  THR205     -0.1218
     60  CA        51.2860  -19.5040  -20.1570 C.3   205  THR205      0.1862
     61  C         52.5710  -19.4140  -19.3420 C.2   205  THR205      0.2287
     62  O         53.4800  -20.2200  -19.5270 O.2   205  THR205     -0.2866
     63  CB        50.5960  -20.8590  -19.8860 C.3   205  THR205      0.1770
     64  OG1       49.4990  -21.0300  -20.7910 O.3   205  THR205     -0.2211
     65  CG2       50.0520  -20.9020  -18.4660 C.3   205  THR205      0.0375
     66  N         48.1260  -16.4530  -20.5090 N.3   228  GLU228     -0.1231
     67  CA        47.6460  -16.9990  -19.2480 C.3   228  GLU228      0.1699
     68  C         48.7910  -16.7110  -18.2870 C.2   228  GLU228      0.2592
     69  O         49.7480  -17.4820  -18.2020 O.2   228  GLU228     -0.2718
     70  CB        47.4200  -18.5110  -19.3530 C.3   228  GLU228      0.0402
     71  CG        46.2440  -18.9230  -20.2310 C.3   228  GLU228      0.1161
     72  CD        44.8970  -18.6870  -19.5630 C.2   228  GLU228      0.3649
     73  OE1       43.8590  -18.7130  -20.2630 O.co2 228  GLU228     -0.2457
     74  OE2       44.8740  -18.4860  -18.3320 O.co2 228  GLU228     -0.2457
     75  N         48.7110  -15.5850  -17.5870 N.am  229  LEU229     -0.1980
     76  CA        49.7620  -15.2160  -16.6480 C.3   229  LEU229      0.1596
     77  C         49.3880  -15.5650  -15.2040 C.2   229  LEU229      0.2287
     78  O         48.4360  -16.3060  -14.9670 O.2   229  LEU229     -0.2864
     79  CB        50.0810  -13.7270  -16.7990 C.3   229  LEU229      0.0297
     80  CG        50.3560  -13.3410  -18.2620 C.3   229  LEU229      0.0022
     81  CD1       50.6740  -11.8690  -18.3690 C.3   229  LEU229      0.0001
     82  CD2       51.5040  -14.1650  -18.8070 C.3   229  LEU229      0.0001
     83  N         50.3590  -22.6990   -7.8750 N.3   261  VAL261     -0.1231
     84  CA        49.2180  -22.7550   -8.7710 C.3   261  VAL261      0.1692
     85  C         48.7470  -21.3280   -8.9960 C.2   261  VAL261      0.2592
     86  O         48.4780  -20.6030   -8.0420 O.2   261  VAL261     -0.2718
     87  CB        48.0670  -23.5640   -8.1450 C.3   261  VAL261      0.0266
     88  CG1       46.9860  -23.8360   -9.1770 C.3   261  VAL261      0.0020
     89  CG2       48.6070  -24.8510   -7.5690 C.3   261  VAL261      0.0020
     90  N         48.6600  -20.9290  -10.2610 N.am  262  CYS262     -0.1956
     91  CA        48.2260  -19.5850  -10.6100 C.3   262  CYS262      0.1843
     92  C         46.8780  -19.2880   -9.9730 C.2   262  CYS262      0.2626
     93  O         46.5930  -18.1430   -9.6260 O.2   262  CYS262     -0.2714
     94  CB        48.1530  -19.4290  -12.1290 C.3   262  CYS262      0.0997
     95  SG        49.7620  -19.6300  -12.9690 S.3   262  CYS262     -0.0797
     96  N         46.0530  -20.3160   -9.8060 N.am  263  THR263     -0.1950
     97  CA        44.7460  -20.1340   -9.1810 C.3   263  THR263      0.1897
     98  C         44.7240  -20.5560   -7.7100 C.2   263  THR263      0.2313
     99  O         43.6720  -20.8560   -7.1450 O.2   263  THR263     -0.2863
    100  CB        43.6300  -20.8860   -9.9490 C.3   263  THR263      0.1794
    101  OG1       44.1200  -22.1570  -10.3910 O.3   263  THR263     -0.2208
    102  CG2       43.1670  -20.0680  -11.1390 C.3   263  THR263      0.0378
    103  N         42.6490  -13.4350  -12.0600 N.3   387  LEU387     -0.1245
    104  CA        42.5020  -14.7460  -12.6670 C.3   387  LEU387      0.1561
    105  C         41.3020  -15.4910  -12.1250 C.2   387  LEU387      0.2260
    106  O         40.2740  -15.5860  -12.7900 O.2   387  LEU387     -0.2867
    107  CB        43.7630  -15.5810  -12.4490 C.3   387  LEU387      0.0270
    108  CG        43.7730  -16.8780  -13.2610 C.3   387  LEU387      0.0019
    109  CD1       43.6630  -16.5340  -14.7530 C.3   387  LEU387      0.0001
    110  CD2       45.0430  -17.6650  -12.9780 C.3   387  LEU387      0.0001
    111  N         40.1430  -23.7300   -6.4560 N.3   417  TRP417     -0.1241
    112  CA        40.0910  -23.7250   -7.9100 C.3   417  TRP417      0.1605
    113  C         39.8460  -25.1230   -8.4780 C.2   417  TRP417      0.2264
    114  O         40.1980  -26.1340   -7.8680 O.2   417  TRP417     -0.2867
    115  CB        41.3940  -23.1690   -8.4900 C.3   417  TRP417      0.0550
    116  CG        42.4860  -24.1760   -8.5100 C.ar  417  TRP417      0.0003
    117  CD1       43.1980  -24.6430   -7.4410 C.ar  417  TRP417      0.0946
    118  CD2       42.9500  -24.9010   -9.6510 C.ar  417  TRP417      0.0152
    119  NE1       44.0790  -25.6170   -7.8470 N.ar  417  TRP417     -0.2442
    120  CE2       43.9490  -25.7960   -9.2000 C.ar  417  TRP417      0.0810
    121  CE3       42.6190  -24.8830  -11.0150 C.ar  417  TRP417      0.0012
    122  CZ2       44.6200  -26.6660  -10.0660 C.ar  417  TRP417      0.0191
    123  CZ3       43.2880  -25.7490  -11.8760 C.ar  417  TRP417      0.0001
    124  CH2       44.2770  -26.6280  -11.3960 C.ar  417  TRP417      0.0015
    125  N         39.0030  -21.2390  -19.0610 N.3   425  PHE425     -0.1241
    126  CA        40.0260  -20.8270  -18.1140 C.3   425  PHE425      0.1605
    127  C         40.7260  -19.5790  -18.6280 C.2   425  PHE425      0.2264
    128  O         41.1540  -19.5310  -19.7800 O.2   425  PHE425     -0.2867
    129  CB        41.0280  -21.9660  -17.9270 C.3   425  PHE425      0.0534
    130  CG        41.9060  -21.8180  -16.7170 C.ar  425  PHE425     -0.0203
    131  CD1       42.9240  -20.8660  -16.6840 C.ar  425  PHE425     -0.0042
    132  CD2       41.7300  -22.6480  -15.6140 C.ar  425  PHE425     -0.0042
    133  CE1       43.7560  -20.7460  -15.5700 C.ar  425  PHE425     -0.0003
    134  CE2       42.5550  -22.5360  -14.4950 C.ar  425  PHE425     -0.0003
    135  CZ        43.5700  -21.5860  -14.4740 C.ar  425  PHE425     -0.0000
@<TRIPOS>BOND
     1    51    50    2
     2    50    49    1
     3    49    48    1
     4    49    52    1
     5    42    41    2
     6    52    53    1
     7    59    60    1
     8    41    40    1
     9    64    63    1
    10    66    67    1
    11    73    72   ar
    12    71    72    1
    13    71    70    1
    14    53    54    1
    15    60    63    1
    16    60    61    1
    17    30    29    2
    18    63    65    1
    19   128   127    2
    20    72    74   ar
    21    40    43    1
    22    40    39    1
    23    62    61    2
    24    55    54    1
    25    55    56    2
    26    70    67    1
    27    67    68    1
    28    43    44    1
    29   125   126    1
    30    29    39   am
    31    29    28    1
    32     1     7    1
    33     1     2    1
    34    82    80    1
    35    58    56    1
    36     7     6    1
    37    56    57    1
    38   127   126    1
    39    81    80    1
    40    46    45    2
    41    68    69    2
    42    68    75   am
    43    80    79    1
    44    28    27    1
    45    28    31    1
    46   126   129    1
    47   129   130    1
    48     2     3    1
    49     2     5    1
    50    44    45    1
    51    75    76    1
    52     4     3    2
    53    45    47   am
    54     6     5    1
    55    33    35   ar
    56    33    32   ar
    57    35    37   ar
    58    19    18    2
    59    79    76    1
    60    31    32    1
    61   130   131   ar
    62   130   132   ar
    63    32    34   ar
    64   131   133   ar
    65    38    37    1
    66    37    36   ar
    67    76    77    1
    68    34    36   ar
    69    18    17    1
    70   132   134   ar
    71   133   135   ar
    72    77    78    2
    73    20    17    1
    74    20    21    1
    75   109   108    1
    76    17    16    1
    77   134   135   ar
    78    16    10   am
    79    14    13    2
    80     8     9    1
    81    21    23   ar
    82    21    22   ar
    83   108   110    1
    84   108   107    1
    85    95    94    1
    86    23    25   ar
    87    10     9    1
    88    10    11    2
    89    13    15   am
    90    13    12    1
    91   106   105    2
    92    22    24   ar
    93   104   107    1
    94   104   105    1
    95   104   103    1
    96     9    12    1
    97    94    91    1
    98   123   124   ar
    99   123   121   ar
   100    25    26   ar
   101    24    26   ar
   102   124   122   ar
   103   102   100    1
   104   121   118   ar
   105    91    90    1
   106    91    92    1
   107   101   100    1
   108    90    85   am
   109   122   120   ar
   110    92    96   am
   111    92    93    2
   112   100    97    1
   113    96    97    1
   114   118   120   ar
   115   118   116   ar
   116   120   119   ar
   117    97    98    1
   118    88    87    1
   119    85    84    1
   120    85    86    2
   121    84    87    1
   122    84    83    1
   123   116   115    1
   124   116   117   ar
   125   115   112    1
   126   113   112    1
   127   113   114    2
   128    87    89    1
   129   112   111    1
   130   119   117   ar
   131    98    99    2
