@<TRIPOS>MOLECULE
tmp/4yx9C00.pdb
 160 157 0 0 0
SMALL
GASTEIGER

@<TRIPOS>ATOM
      1  N          5.0070   41.9570   29.2450 N.3   105  ASP105     -0.1239
      2  CA         5.7920   41.0400   28.4230 C.3   105  ASP105      0.1674
      3  C          7.2150   41.5910   28.1940 C.2   105  ASP105      0.2266
      4  O          7.8470   42.0460   29.1540 O.2   105  ASP105     -0.2867
      5  CB         5.0390   40.7320   27.1230 C.3   105  ASP105      0.1410
      6  CG         5.6720   39.6270   26.3380 C.2   105  ASP105      0.3668
      7  OD1        6.3020   39.9390   25.3100 O.co2 105  ASP105     -0.2456
      8  OD2        5.5530   38.4560   26.7640 O.co2 105  ASP105     -0.2456
      9  N          3.0090   39.8950   33.3690 N.3   129  GLU129     -0.1245
     10  CA         3.1110   38.8330   32.3610 C.3   129  GLU129      0.1567
     11  C          4.4230   38.7570   31.5720 C.2   129  GLU129      0.2260
     12  O          4.4130   38.8030   30.3370 O.2   129  GLU129     -0.2867
     13  CB         1.9210   38.9170   31.3940 C.3   129  GLU129      0.0388
     14  CG         0.6770   38.2020   31.9190 C.3   129  GLU129      0.1160
     15  CD         0.9020   36.7080   32.0520 C.2   129  GLU129      0.3649
     16  OE1        1.5200   36.1160   31.1420 O.co2 129  GLU129     -0.2457
     17  OE2        0.4750   36.1310   33.0770 O.co2 129  GLU129     -0.2457
     18  N          8.7490   37.0940   32.7640 N.3   131  PRO131     -0.2116
     19  CA         9.8410   37.0840   33.7330 C.3   131  PRO131      0.1372
     20  C         10.8030   38.2360   33.4300 C.2   131  PRO131      0.2244
     21  O         11.0200   38.5850   32.2670 O.2   131  PRO131     -0.2868
     22  CB        10.5190   35.7330   33.4780 C.3   131  PRO131      0.0268
     23  CG        10.2640   35.4640   32.0190 C.3   131  PRO131      0.0207
     24  CD         8.9050   36.0640   31.7210 C.3   131  PRO131      0.0892
     25  N         15.0800   27.4740   33.7980 N.3   139  ARG139     -0.1231
     26  CA        14.4350   26.3340   34.4520 C.3   139  ARG139      0.1694
     27  C         13.0410   26.0160   33.8930 C.2   139  ARG139      0.2592
     28  O         12.4370   25.0080   34.2570 O.2   139  ARG139     -0.2718
     29  CB        14.3710   26.5330   35.9730 C.3   139  ARG139      0.0321
     30  CG        15.7350   26.6800   36.6420 C.3   139  ARG139      0.0489
     31  CD        15.6290   26.5890   38.1600 C.3   139  ARG139      0.2205
     32  NE        14.5570   27.4280   38.6940 N.pl3 139  ARG139     -0.0865
     33  CZ        14.7320   28.6470   39.2000 C.cat 139  ARG139      0.5346
     34  NH1       15.9470   29.1820   39.2500 N.pl3 139  ARG139      0.1354
     35  NH2       13.6880   29.3290   39.6590 N.pl3 139  ARG139      0.1354
     36  N         12.5260   26.8690   33.0180 N.am  140  PHE140     -0.1963
     37  CA        11.2010   26.6680   32.4070 C.3   140  PHE140      0.1756
     38  C         11.3270   25.4150   31.5010 C.2   140  PHE140      0.2461
     39  O         12.3190   25.2650   30.7930 O.2   140  PHE140     -0.2730
     40  CB        10.7880   27.8620   31.5410 C.3   140  PHE140      0.0574
     41  CG        10.2150   29.0350   32.3110 C.ar  140  PHE140     -0.0200
     42  CD1        8.8380   29.1830   32.4570 C.ar  140  PHE140     -0.0042
     43  CD2       11.0490   30.0010   32.8550 C.ar  140  PHE140     -0.0042
     44  CE1        8.3020   30.2750   33.1520 C.ar  140  PHE140     -0.0003
     45  CE2       10.5240   31.0880   33.5520 C.ar  140  PHE140     -0.0003
     46  CZ         9.1440   31.2230   33.6970 C.ar  140  PHE140     -0.0000
     47  N         10.3060   24.5450   31.5120 N.am  141  PRO141     -0.2727
     48  CA        10.3830   23.3180   30.7040 C.3   141  PRO141      0.1402
     49  C         10.1250   23.5380   29.2130 C.2   141  PRO141      0.2269
     50  O          9.3330   24.4080   28.8230 O.2   141  PRO141     -0.2865
     51  CB         9.2620   22.4560   31.2860 C.3   141  PRO141      0.0296
     52  CG         8.2570   23.4770   31.7780 C.3   141  PRO141      0.0237
     53  CD         9.1100   24.5600   32.3740 C.3   141  PRO141      0.0939
     54  N          5.4620   20.0670   28.3330 N.3   144  THR144     -0.1218
     55  CA         4.6880   19.7700   29.5320 C.3   144  THR144      0.1862
     56  C          3.7280   18.6060   29.3210 C.2   144  THR144      0.2287
     57  O          3.4070   18.2370   28.1940 O.2   144  THR144     -0.2866
     58  CB         3.8600   20.9840   30.0010 C.3   144  THR144      0.1770
     59  OG1        2.7810   21.2090   29.0880 O.3   144  THR144     -0.2211
     60  CG2        4.7310   22.2320   30.0750 C.3   144  THR144      0.0375
     61  N          4.5970   23.9540   25.6860 N.3   149  SER149     -0.1202
     62  CA         4.9920   24.7080   26.8760 C.3   149  SER149      0.2020
     63  C          4.8760   26.2020   26.6090 C.2   149  SER149      0.2619
     64  O          4.6940   26.6220   25.4800 O.2   149  SER149     -0.2717
     65  CB         6.4130   24.3560   27.3130 C.3   149  SER149      0.2103
     66  OG         7.3700   25.1960   26.7010 O.3   149  SER149     -0.2182
     67  N          5.0150   27.0140   27.6350 N.am  150  LEU150     -0.1965
     68  CA         4.7910   28.5600   27.6770 C.3   150  LEU150      0.1728
     69  C          5.8690   29.2500   26.8770 C.2   150  LEU150      0.2616
     70  O          5.6200   30.2490   26.2050 O.2   150  LEU150     -0.2715
     71  CB         4.7760   29.1690   29.0840 C.3   150  LEU150      0.0311
     72  CG         3.5300   29.1620   29.9670 C.3   150  LEU150      0.0022
     73  CD1        3.7330   30.1350   31.1220 C.3   150  LEU150      0.0001
     74  CD2        2.2790   29.5070   29.1730 C.3   150  LEU150      0.0001
     75  N          7.1140   28.8180   27.1030 N.am  151  VAL151     -0.1977
     76  CA         8.2680   29.5630   26.5940 C.3   151  VAL151      0.1596
     77  C          9.1680   28.8480   25.5990 C.2   151  VAL151      0.2287
     78  O         10.3260   29.2490   25.4520 O.2   151  VAL151     -0.2864
     79  CB         9.2700   29.9640   27.6980 C.3   151  VAL151      0.0276
     80  CG1        8.7680   31.0910   28.5230 C.3   151  VAL151      0.0022
     81  CG2        9.6140   28.7720   28.5300 C.3   151  VAL151      0.0022
     82  N          9.1730   29.0440   22.5750 N.3   153  HIS153     -0.1226
     83  CA         9.4960   29.9970   21.5230 C.3   153  HIS153      0.1752
     84  C         10.7790   30.7880   21.8190 C.2   153  HIS153      0.2596
     85  O         11.3730   31.3400   20.8980 O.2   153  HIS153     -0.2718
     86  CB         8.3130   30.9330   21.2580 C.3   153  HIS153      0.0759
     87  CG         7.9650   31.8010   22.4260 C.ar  153  HIS153      0.0818
     88  ND1        7.2880   31.3250   23.5280 N.ar  153  HIS153     -0.2268
     89  CD2        8.2310   33.1020   22.6770 C.ar  153  HIS153      0.1154
     90  CE1        7.1380   32.3040   24.4030 C.ar  153  HIS153      0.1986
     91  NE2        7.6940   33.3950   23.9080 N.ar  153  HIS153     -0.2212
     92  N         11.2130   30.8440   23.0860 N.am  154  PHE154     -0.1976
     93  CA        12.4800   31.5170   23.4270 C.3   154  PHE154      0.1639
     94  C         13.5970   30.9470   22.5530 C.2   154  PHE154      0.2290
     95  O         14.3810   31.6830   21.9520 O.2   154  PHE154     -0.2864
     96  CB        12.8710   31.3220   24.9050 C.3   154  PHE154      0.0560
     97  CG        12.1320   32.2270   25.8830 C.ar  154  PHE154     -0.0200
     98  CD1       10.9930   32.9260   25.5090 C.ar  154  PHE154     -0.0042
     99  CD2       12.5840   32.3550   27.1920 C.ar  154  PHE154     -0.0042
    100  CE1       10.3190   33.7510   26.4230 C.ar  154  PHE154     -0.0003
    101  CE2       11.9180   33.1670   28.1120 C.ar  154  PHE154     -0.0003
    102  CZ        10.7870   33.8710   27.7270 C.ar  154  PHE154     -0.0000
    103  N          0.0640   31.8310   18.0620 N.3   179  PHE179     -0.1241
    104  CA         0.8400   32.2400   19.2250 C.3   179  PHE179      0.1605
    105  C         -0.0570   32.9160   20.2510 C.2   179  PHE179      0.2264
    106  O         -0.0180   32.5930   21.4380 O.2   179  PHE179     -0.2867
    107  CB         1.9770   33.1870   18.8360 C.3   179  PHE179      0.0534
    108  CG         2.8570   33.5640   19.9980 C.ar  179  PHE179     -0.0203
    109  CD1        2.5770   34.6870   20.7710 C.ar  179  PHE179     -0.0042
    110  CD2        3.9280   32.7650   20.3460 C.ar  179  PHE179     -0.0042
    111  CE1        3.3720   35.0110   21.8550 C.ar  179  PHE179     -0.0003
    112  CE2        4.7290   33.0850   21.4230 C.ar  179  PHE179     -0.0003
    113  CZ         4.4620   34.2090   22.1720 C.ar  179  PHE179     -0.0000
    114  N         -1.6170   31.2300   24.0190 N.3   183  HIS183     -0.1241
    115  CA        -1.2300   31.8910   25.2630 C.3   183  HIS183      0.1621
    116  C         -2.4040   32.5900   25.9440 C.2   183  HIS183      0.2264
    117  O         -2.2120   33.3650   26.8760 O.2   183  HIS183     -0.2867
    118  CB        -0.0680   32.8720   25.0300 C.3   183  HIS183      0.0745
    119  CG         1.2430   32.1910   24.7860 C.ar  183  HIS183      0.0817
    120  ND1        1.6250   31.7450   23.5390 N.ar  183  HIS183     -0.2268
    121  CD2        2.2420   31.8410   25.6330 C.ar  183  HIS183      0.1154
    122  CE1        2.8070   31.1580   23.6240 C.ar  183  HIS183      0.1986
    123  NE2        3.2040   31.2040   24.8830 N.ar  183  HIS183     -0.2212
    124  N         -2.1180   29.8880   29.6780 N.3   246  GLY246     -0.1210
    125  CA        -1.1880   30.8100   29.0510 C.3   246  GLY246      0.1956
    126  C         -0.5950   31.8730   29.9670 C.2   246  GLY246      0.2612
    127  O          0.3180   32.5820   29.5690 O.2   246  GLY246     -0.2717
    128  N         -1.1110   31.9940   31.1850 N.am  247  GLY247     -0.1942
    129  CA        -0.6340   33.0210   32.0980 C.3   247  GLY247      0.2014
    130  C          0.5500   32.5670   32.9360 C.2   247  GLY247      0.2638
    131  O          0.8660   31.3700   33.0040 O.2   247  GLY247     -0.2714
    132  N          1.1980   33.5150   33.6030 N.am  248  MET248     -0.1976
    133  CA         2.3640   33.1730   34.4200 C.3   248  MET248      0.1605
    134  C          2.0550   32.8000   35.8470 C.2   248  MET248      0.2287
    135  O          2.9350   32.3250   36.5610 O.2   248  MET248     -0.2864
    136  CB         3.3800   34.2960   34.3610 C.3   248  MET248      0.0413
    137  CG         3.5670   34.6300   32.9430 C.3   248  MET248      0.0598
    138  SD         4.9720   35.6050   32.5690 S.3   248  MET248     -0.1393
    139  CE         4.8700   35.5810   30.7740 C.3   248  MET248      0.0692
    140  N          4.2660   32.8950   39.4500 N.3   251  PHE251     -0.1241
    141  CA         5.6720   33.1870   39.1600 C.3   251  PHE251      0.1605
    142  C          5.9640   34.6840   39.1750 C.2   251  PHE251      0.2264
    143  O          7.0170   35.1100   39.6560 O.2   251  PHE251     -0.2867
    144  CB         6.1140   32.6070   37.8090 C.3   251  PHE251      0.0534
    145  CG         7.5480   32.9200   37.4630 C.ar  251  PHE251     -0.0203
    146  CD1        8.5660   32.0640   37.8460 C.ar  251  PHE251     -0.0042
    147  CD2        7.8750   34.0800   36.7660 C.ar  251  PHE251     -0.0042
    148  CE1        9.8910   32.3500   37.5370 C.ar  251  PHE251     -0.0003
    149  CE2        9.1980   34.3840   36.4630 C.ar  251  PHE251     -0.0003
    150  CZ        10.2040   33.5180   36.8500 C.ar  251  PHE251     -0.0000
    151  N         -2.2370   35.2950   29.0610 N.3   273  HIS273     -0.1241
    152  CA        -1.1150   36.2130   28.8950 C.3   273  HIS273      0.1621
    153  C         -1.5420   37.6400   28.5380 C.2   273  HIS273      0.2264
    154  O         -0.9160   38.6120   28.9620 O.2   273  HIS273     -0.2867
    155  CB        -0.1810   35.6770   27.7970 C.3   273  HIS273      0.0745
    156  CG         0.9980   36.5550   27.5270 C.ar  273  HIS273      0.0817
    157  ND1        1.9750   36.8070   28.4690 N.ar  273  HIS273     -0.2268
    158  CD2        1.3490   37.2510   26.4200 C.ar  273  HIS273      0.1154
    159  CE1        2.8820   37.6180   27.9450 C.ar  273  HIS273      0.1986
    160  NE2        2.5240   37.9010   26.7040 N.ar  273  HIS273     -0.2212
@<TRIPOS>BOND
     1   103   104    1
     2   107   104    1
     3   107   108    1
     4   104   105    1
     5   108   110   ar
     6   108   109   ar
     7   105   106    2
     8   110   112   ar
     9   109   111   ar
    10    85    84    2
    11    86    83    1
    12    86    87    1
    13   112   113   ar
    14    83    84    1
    15    83    82    1
    16    84    92   am
    17   111   113   ar
    18    95    94    2
    19    87    89   ar
    20    87    88   ar
    21    94    93    1
    22    89    91   ar
    23    92    93    1
    24    93    96    1
    25    88    90   ar
    26   120   122   ar
    27   120   119   ar
    28   122   123   ar
    29    91    90   ar
    30   114   115    1
    31   119   118    1
    32   119   121   ar
    33   123   121   ar
    34    96    97    1
    35   118   115    1
    36   115   116    1
    37     7     6   ar
    38    78    77    2
    39    64    63    2
    40    98    97   ar
    41    98   100   ar
    42    77    76    1
    43    61    62    1
    44    97    99   ar
    45   116   117    2
    46    70    69    2
    47     6     8   ar
    48     6     5    1
    49   158   160   ar
    50   158   156   ar
    51   100   102   ar
    52    76    75    1
    53    76    79    1
    54    63    62    1
    55    63    67   am
    56    66    65    1
    57   160   159   ar
    58    62    65    1
    59    69    75   am
    60    69    68    1
    61     5     2    1
    62    99   101   ar
    63   156   155    1
    64   156   157   ar
    65    67    68    1
    66    68    71    1
    67    79    80    1
    68    79    81    1
    69   102   101   ar
    70   155   152    1
    71   159   157   ar
    72    57    56    2
    73     3     2    1
    74     3     4    2
    75    54    55    1
    76     2     1    1
    77   153   152    1
    78   153   154    2
    79    50    49    2
    80   152   151    1
    81   125   124    1
    82   125   126    1
    83    71    72    1
    84    59    58    1
    85    74    72    1
    86    49    48    1
    87    56    55    1
    88    55    58    1
    89   127   126    2
    90    72    73    1
    91   126   128   am
    92    58    60    1
    93    12    11    2
    94    48    51    1
    95    48    47    1
    96   139   138    1
    97    39    38    2
    98    16    15   ar
    99   128   129    1
   100    51    52    1
   101    13    14    1
   102    13    10    1
   103    38    47   am
   104    38    37    1
   105    47    53    1
   106    40    41    1
   107    40    37    1
   108    11    10    1
   109    24    23    1
   110    24    18    1
   111    52    53    1
   112    14    15    1
   113    23    22    1
   114    15    17   ar
   115   129   130    1
   116    21    20    2
   117    41    42   ar
   118    41    43   ar
   119    10     9    1
   120    37    36    1
   121    42    44   ar
   122   138   137    1
   123    18    19    1
   124    43    45   ar
   125   130   131    2
   126   130   132   am
   127   137   136    1
   128    36    27   am
   129    44    46   ar
   130    20    19    1
   131    22    19    1
   132    45    46   ar
   133   132   133    1
   134    25    26    1
   135    27    28    2
   136    27    26    1
   137   136   133    1
   138   133   134    1
   139    26    29    1
   140   134   135    2
   141    29    30    1
   142   149   147   ar
   143   149   150   ar
   144    30    31    1
   145   147   145   ar
   146   150   148   ar
   147   145   144    1
   148   145   146   ar
   149   148   146   ar
   150   144   141    1
   151    31    32    1
   152    32    33    2
   153   141   142    1
   154   141   140    1
   155   142   143    2
   156    33    34    1
   157    33    35    1
