@<TRIPOS>MOLECULE
tmp/4yxbA01.pdb
 83 80 0 0 0
SMALL
GASTEIGER

@<TRIPOS>ATOM
      1  N         26.9190   18.0090   54.0480 N.3    22  LYS22      -0.1245
      2  CA        27.6930   17.3510   55.1020 C.3    22  LYS22       0.1561
      3  C         29.1300   17.6610   54.8340 C.2    22  LYS22       0.2260
      4  O         29.4730   17.9430   53.6920 O.2    22  LYS22      -0.2867
      5  CB        27.4560   15.8360   55.1100 C.3    22  LYS22       0.0271
      6  CG        27.8860   15.1750   53.8260 C.3    22  LYS22       0.0035
      7  CD        27.5440   13.6960   53.7820 C.3    22  LYS22       0.0206
      8  CE        27.9400   13.1380   52.4310 C.3    22  LYS22       0.1093
      9  NZ        27.1670   13.8140   51.3390 N.3    22  LYS22      -0.1314
     10  N         31.6360   17.4160   51.3630 N.3    25  ASP25      -0.1225
     11  CA        30.9800   17.8690   50.1190 C.3    25  ASP25       0.1805
     12  C         31.6400   19.0820   49.4890 C.2    25  ASP25       0.2598
     13  O         31.9820   20.0470   50.1640 O.2    25  ASP25      -0.2718
     14  CB        29.5300   18.2090   50.3640 C.3    25  ASP25       0.1424
     15  CG        28.7320   17.0140   50.7590 C.2    25  ASP25       0.3668
     16  OD1       29.1660   15.8980   50.3880 O.co2  25  ASP25      -0.2456
     17  OD2       27.6820   17.1820   51.4290 O.co2  25  ASP25      -0.2456
     18  N         31.7990   19.0340   48.1790 N.am   26  VAL26      -0.1966
     19  CA        32.3890   20.1460   47.4670 C.3    26  VAL26       0.1727
     20  C         31.3230   20.7610   46.5790 C.2    26  VAL26       0.2616
     21  O         30.6860   20.0570   45.8050 O.2    26  VAL26      -0.2715
     22  CB        33.5920   19.7040   46.6420 C.3    26  VAL26       0.0290
     23  CG1       34.2840   20.9100   46.0800 C.3    26  VAL26       0.0023
     24  CG2       34.5360   18.9140   47.5300 C.3    26  VAL26       0.0023
     25  N         31.1090   22.0660   46.7340 N.am   27  LEU27      -0.1964
     26  CA        30.0940   22.7790   45.9820 C.3    27  LEU27       0.1713
     27  C         30.7520   23.5340   44.8630 C.2    27  LEU27       0.2458
     28  O         31.5490   24.4340   45.1090 O.2    27  LEU27      -0.2730
     29  CB        29.3220   23.7430   46.8830 C.3    27  LEU27       0.0310
     30  CG        28.4620   23.0680   47.9490 C.3    27  LEU27       0.0022
     31  CD1       27.9120   24.0750   48.9300 C.3    27  LEU27       0.0001
     32  CD2       27.3360   22.3200   47.2760 C.3    27  LEU27       0.0001
     33  N         30.4320   23.1720   43.6190 N.am   28  PRO28      -0.2727
     34  CA        31.0300   23.8500   42.4670 C.3    28  PRO28       0.1402
     35  C         30.6880   25.3370   42.4500 C.2    28  PRO28       0.2269
     36  O         29.5760   25.6940   42.7880 O.2    28  PRO28      -0.2865
     37  CB        30.4170   23.1110   41.2740 C.3    28  PRO28       0.0296
     38  CG        29.2050   22.4730   41.7980 C.3    28  PRO28       0.0237
     39  CD        29.5020   22.1120   43.2150 C.3    28  PRO28       0.0939
     40  N         38.9120   25.0220   46.8810 N.3   133  VAL133     -0.1245
     41  CA        39.4980   23.8210   46.3340 C.3   133  VAL133      0.1561
     42  C         39.5810   24.0440   44.8480 C.2   133  VAL133      0.2260
     43  O         38.6070   24.4790   44.2580 O.2   133  VAL133     -0.2867
     44  CB        38.6380   22.5980   46.6490 C.3   133  VAL133      0.0252
     45  CG1       38.9760   21.4670   45.7320 C.3   133  VAL133      0.0019
     46  CG2       38.8080   22.2080   48.1070 C.3   133  VAL133      0.0019
     47  N         40.6270   22.1130   41.1760 N.3   135  VAL135     -0.1231
     48  CA        41.0350   20.9030   40.4780 C.3   135  VAL135      0.1692
     49  C         40.9060   21.1170   38.9750 C.2   135  VAL135      0.2591
     50  O         39.7890   21.2750   38.4710 O.2   135  VAL135     -0.2718
     51  CB        40.1930   19.6820   40.9130 C.3   135  VAL135      0.0266
     52  CG1       40.5700   18.4580   40.1030 C.3   135  VAL135      0.0020
     53  CG2       40.3920   19.4070   42.3980 C.3   135  VAL135      0.0020
     54  N         42.0390   21.1390   38.2650 N.am  136  ALA136     -0.1980
     55  CA        42.0340   21.4120   36.8260 C.3   136  ALA136      0.1597
     56  C         41.3080   22.7240   36.5380 C.2   136  ALA136      0.2287
     57  O         40.4460   22.7950   35.6620 O.2   136  ALA136     -0.2864
     58  CB        41.3810   20.2600   36.0560 C.3   136  ALA136      0.0319
     59  N         38.8210   24.2030   37.6280 N.3   138  LYS138     -0.1231
     60  CA        37.4650   24.3420   38.1320 C.3   138  LYS138      0.1693
     61  C         37.4800   24.5720   39.6610 C.2   138  LYS138      0.2592
     62  O         38.0680   23.7830   40.4000 O.2   138  LYS138     -0.2718
     63  CB        36.6370   23.1020   37.7680 C.3   138  LYS138      0.0285
     64  CG        35.1960   23.1460   38.2030 C.3   138  LYS138      0.0035
     65  CD        34.4230   24.2670   37.5810 C.3   138  LYS138      0.0206
     66  CE        32.9390   24.0410   37.6760 C.3   138  LYS138      0.1093
     67  NZ        32.3520   25.2040   38.3200 N.3   138  LYS138     -0.1314
     68  N         36.8350   25.6390   40.1310 N.am  139  TYR139     -0.1962
     69  CA        36.7890   25.9630   41.5680 C.3   139  TYR139      0.1771
     70  C         35.6360   25.3200   42.3330 C.2   139  TYR139      0.2620
     71  O         34.6010   25.0070   41.7740 O.2   139  TYR139     -0.2715
     72  CB        36.7050   27.4680   41.7760 C.3   139  TYR139      0.0574
     73  CG        38.0250   28.1850   41.6900 C.ar  139  TYR139     -0.0198
     74  CD1       38.7630   28.1950   40.5140 C.ar  139  TYR139     -0.0009
     75  CD2       38.5270   28.8700   42.7870 C.ar  139  TYR139     -0.0009
     76  CE1       39.9840   28.8580   40.4410 C.ar  139  TYR139      0.0417
     77  CE2       39.7360   29.5370   42.7300 C.ar  139  TYR139      0.0417
     78  CZ        40.4640   29.5300   41.5520 C.ar  139  TYR139      0.1957
     79  OH        41.6660   30.2060   41.4990 O.3   139  TYR139     -0.2866
     80  N         35.8200   25.1310   43.6300 N.am  140  GLY140     -0.1954
     81  CA        34.7710   24.5790   44.4630 C.3   140  GLY140      0.1869
     82  C         35.0160   24.9910   45.8990 C.2   140  GLY140      0.2309
     83  O         36.1200   25.4140   46.2490 O.2   140  GLY140     -0.2863
@<TRIPOS>BOND
     1    57    56    2
     2    58    55    1
     3    56    55    1
     4    55    54    1
     5    65    66    1
     6    65    64    1
     7    59    60    1
     8    66    67    1
     9    63    60    1
    10    63    64    1
    11    60    61    1
    12    54    49   am
    13    50    49    2
    14    49    48    1
    15    61    68   am
    16    61    62    2
    17    52    51    1
    18    68    69    1
    19    76    74   ar
    20    76    78   ar
    21    48    51    1
    22    48    47    1
    23    74    73   ar
    24    51    53    1
    25    37    38    1
    26    37    34    1
    27    79    78    1
    28    78    77   ar
    29    69    72    1
    30    69    70    1
    31    73    72    1
    32    73    75   ar
    33    71    70    2
    34    38    39    1
    35    70    80   am
    36    35    34    1
    37    35    36    2
    38    34    33    1
    39    77    75   ar
    40    39    33    1
    41    33    27   am
    42    80    81    1
    43    43    42    2
    44    81    82    1
    45    42    41    1
    46    27    28    2
    47    27    26    1
    48    45    44    1
    49    21    20    2
    50    82    83    2
    51    26    25    1
    52    26    29    1
    53    23    22    1
    54    41    44    1
    55    41    40    1
    56    20    25   am
    57    20    19    1
    58    22    19    1
    59    22    24    1
    60    44    46    1
    61    29    30    1
    62    32    30    1
    63    19    18    1
    64    30    31    1
    65    18    12   am
    66    12    11    1
    67    12    13    2
    68    11    14    1
    69    11    10    1
    70    14    15    1
    71    16    15   ar
    72    15    17   ar
    73     9     8    1
    74     8     7    1
    75     4     3    2
    76     7     6    1
    77     6     5    1
    78     1     2    1
    79     3     2    1
    80     2     5    1
