@<TRIPOS>MOLECULE
tmp/4yxbA00.pdb
 110 108 0 0 0
SMALL
GASTEIGER

@<TRIPOS>ATOM
      1  N         34.7890   30.5320   38.9480 N.3    31  LYS31      -0.1231
      2  CA        36.0270   31.1940   39.3080 C.3    31  LYS31       0.1678
      3  C         35.6870   32.6540   39.4780 C.2    31  LYS31       0.2434
      4  O         35.1980   33.2880   38.5560 O.2    31  LYS31      -0.2733
      5  CB        37.1070   30.9940   38.2460 C.3    31  LYS31       0.0284
      6  CG        38.4740   31.5580   38.6050 C.3    31  LYS31       0.0035
      7  CD        39.4280   31.4240   37.4170 C.3    31  LYS31       0.0206
      8  CE        40.8510   31.7950   37.7620 C.3    31  LYS31       0.1093
      9  NZ        41.0240   33.2020   38.1430 N.3    31  LYS31      -0.1314
     10  N         35.8770   33.1810   40.6840 N.am   32  PRO32      -0.2729
     11  CA        35.5440   34.5960   40.8660 C.3    32  PRO32       0.1401
     12  C         36.6790   35.4930   40.3600 C.2    32  PRO32       0.2269
     13  O         37.7620   35.5900   40.9700 O.2    32  PRO32      -0.2865
     14  CB        35.3500   34.7160   42.3790 C.3    32  PRO32       0.0296
     15  CG        36.2680   33.6380   42.9490 C.3    32  PRO32       0.0237
     16  CD        36.3780   32.5410   41.9160 C.3    32  PRO32       0.0939
     17  N         39.8870   43.1780   42.8600 N.3    48  GLN48      -0.1231
     18  CA        40.5580   41.8860   42.7500 C.3    48  GLN48       0.1698
     19  C         40.8620   41.4270   44.1760 C.2    48  GLN48       0.2592
     20  O         40.6590   42.1870   45.1270 O.2    48  GLN48      -0.2718
     21  CB        41.8100   41.9870   41.8900 C.3    48  GLN48       0.0381
     22  CG        41.5880   42.3390   40.4210 C.3    48  GLN48       0.0905
     23  CD        40.6840   41.3550   39.7240 C.2    48  GLN48       0.2608
     24  OE1       40.9450   40.1380   39.7930 O.2    48  GLN48      -0.2717
     25  NE2       39.5970   41.8050   39.1800 N.am   48  GLN48      -0.0878
     26  N         41.2930   40.1850   44.3550 N.am   49  TYR49      -0.1962
     27  CA        41.4740   39.6910   45.7250 C.3    49  TYR49       0.1771
     28  C         42.7540   38.8660   45.9040 C.2    49  TYR49       0.2620
     29  O         43.2560   38.2320   44.9650 O.2    49  TYR49      -0.2715
     30  CB        40.2550   38.8580   46.1620 C.3    49  TYR49       0.0574
     31  CG        40.2080   37.4650   45.5510 C.ar   49  TYR49      -0.0198
     32  CD1       39.7780   37.2670   44.2440 C.ar   49  TYR49      -0.0009
     33  CD2       40.5900   36.3490   46.2830 C.ar   49  TYR49      -0.0009
     34  CE1       39.7310   35.9960   43.6840 C.ar   49  TYR49       0.0417
     35  CE2       40.5490   35.0820   45.7320 C.ar   49  TYR49       0.0417
     36  CZ        40.1230   34.9140   44.4340 C.ar   49  TYR49       0.1957
     37  OH        40.0900   33.6510   43.8820 O.3    49  TYR49      -0.2866
     38  N         43.2670   38.8760   47.1290 N.am   50  GLY50      -0.1940
     39  CA        44.4170   38.0610   47.4810 C.3    50  GLY50       0.2014
     40  C         44.8120   38.2650   48.9310 C.2    50  GLY50       0.2640
     41  O         43.9490   38.5190   49.7770 O.2    50  GLY50      -0.2714
     42  N         46.1170   38.1870   49.2060 N.am   51  THR51      -0.1936
     43  CA        46.6380   38.2460   50.5750 C.3    51  THR51       0.2028
     44  C         47.6440   39.3720   50.8650 C.2    51  THR51       0.2642
     45  O         48.3370   39.8550   49.9690 O.2    51  THR51      -0.2714
     46  CB        47.3150   36.9340   50.9370 C.3    51  THR51       0.1808
     47  OG1       48.3780   36.6940   50.0110 O.3    51  THR51      -0.2208
     48  CG2       46.3330   35.8030   50.8410 C.3    51  THR51       0.0379
     49  N         47.7130   39.7790   52.1320 N.am   52  VAL52      -0.1963
     50  CA        48.7330   40.7200   52.5900 C.3    52  VAL52       0.1727
     51  C         48.9380   40.6870   54.1220 C.2    52  VAL52       0.2616
     52  O         48.0750   41.0800   54.8970 O.2    52  VAL52      -0.2715
     53  CB        48.4170   42.1860   52.1110 C.3    52  VAL52       0.0290
     54  CG1       47.1720   42.7890   52.7830 C.3    52  VAL52       0.0023
     55  CG2       49.6220   43.0840   52.3250 C.3    52  VAL52       0.0023
     56  N         50.0570   40.1190   54.5570 N.am   53  ASN53      -0.1972
     57  CA        50.8250   39.2120   53.7260 C.3    53  ASN53       0.1688
     58  C         50.2530   37.8300   53.9970 C.2    53  ASN53       0.2292
     59  O         50.2670   36.9580   53.1180 O.2    53  ASN53      -0.2864
     60  CB        52.3270   39.2830   54.0340 C.3    53  ASN53       0.1181
     61  CG        52.9710   40.5740   53.5940 C.2    53  ASN53       0.2629
     62  OD1       52.4390   41.2910   52.7070 O.2    53  ASN53      -0.2716
     63  ND2       54.0940   40.9160   54.1810 N.am   53  ASN53      -0.0877
     64  N         43.6330   37.7810   54.0850 N.3    56  TYR56      -0.1227
     65  CA        42.9300   38.0360   52.8190 C.3    56  TYR56       0.1736
     66  C         42.6840   39.5400   52.6950 C.2    56  TYR56       0.2595
     67  O         42.4400   40.2400   53.7010 O.2    56  TYR56      -0.2718
     68  CB        41.5910   37.2810   52.7030 C.3    56  TYR56       0.0548
     69  CG        41.6720   35.7990   52.3680 C.ar   56  TYR56      -0.0200
     70  CD1       42.2860   35.3480   51.2110 C.ar   56  TYR56      -0.0009
     71  CD2       41.1020   34.8540   53.2100 C.ar   56  TYR56      -0.0009
     72  CE1       42.3380   33.9920   50.9130 C.ar   56  TYR56       0.0417
     73  CE2       41.1590   33.5080   52.9300 C.ar   56  TYR56       0.0417
     74  CZ        41.7650   33.0800   51.7870 C.ar   56  TYR56       0.1957
     75  OH        41.7950   31.7180   51.5440 O.3    56  TYR56      -0.2866
     76  N         42.7420   40.0320   51.4580 N.am   57  ALA57      -0.1980
     77  CA        42.5660   41.4520   51.2050 C.3    57  ALA57       0.1597
     78  C         41.9810   41.7370   49.8260 C.2    57  ALA57       0.2287
     79  O         42.0460   40.9020   48.9160 O.2    57  ALA57      -0.2864
     80  CB        43.8980   42.1720   51.3600 C.3    57  ALA57       0.0319
     81  N         42.1640   44.3820   46.5120 N.3    59  ARG59      -0.1245
     82  CA        42.7650   45.5050   45.7900 C.3    59  ARG59       0.1563
     83  C         41.6830   46.2430   44.9720 C.2    59  ARG59       0.2260
     84  O         41.3270   45.8110   43.8780 O.2    59  ARG59      -0.2867
     85  CB        43.9030   45.0170   44.8830 C.3    59  ARG59       0.0307
     86  CG        44.9110   46.1150   44.5010 C.3    59  ARG59       0.0489
     87  CD        46.0790   45.5460   43.7070 C.3    59  ARG59       0.2205
     88  NE        45.6040   44.8920   42.4900 N.pl3  59  ARG59      -0.0865
     89  CZ        46.3310   44.0650   41.7460 C.cat  59  ARG59       0.5346
     90  NH1       47.5770   43.7870   42.0950 N.pl3  59  ARG59       0.1354
     91  NH2       45.8110   43.5110   40.6570 N.pl3  59  ARG59       0.1354
     92  N         44.5720   48.7830   49.0330 N.3   107  VAL107     -0.1245
     93  CA        44.5820   47.3910   49.4790 C.3   107  VAL107      0.1561
     94  C         43.9380   47.2850   50.8560 C.2   107  VAL107      0.2260
     95  O         44.5360   47.6730   51.8500 O.2   107  VAL107     -0.2867
     96  CB        46.0050   46.8110   49.5150 C.3   107  VAL107      0.0252
     97  CG1       46.0170   45.4570   50.1890 C.3   107  VAL107      0.0019
     98  CG2       46.5670   46.6910   48.0990 C.3   107  VAL107      0.0019
     99  N         36.8350   25.6390   40.1310 N.3   139  TYR139     -0.1241
    100  CA        36.7890   25.9630   41.5680 C.3   139  TYR139      0.1605
    101  C         35.6360   25.3200   42.3330 C.2   139  TYR139      0.2264
    102  O         34.6010   25.0070   41.7740 O.2   139  TYR139     -0.2867
    103  CB        36.7050   27.4680   41.7760 C.3   139  TYR139      0.0534
    104  CG        38.0250   28.1850   41.6900 C.ar  139  TYR139     -0.0201
    105  CD1       38.7630   28.1950   40.5140 C.ar  139  TYR139     -0.0009
    106  CD2       38.5270   28.8700   42.7870 C.ar  139  TYR139     -0.0009
    107  CE1       39.9840   28.8580   40.4410 C.ar  139  TYR139      0.0417
    108  CE2       39.7360   29.5370   42.7300 C.ar  139  TYR139      0.0417
    109  CZ        40.4640   29.5300   41.5520 C.ar  139  TYR139      0.1957
    110  OH        41.6660   30.2060   41.4990 O.3   139  TYR139     -0.2866
@<TRIPOS>BOND
     1     7     8    1
     2     7     6    1
     3     8     9    1
     4     5     6    1
     5     5     2    1
     6     4     3    2
     7     1     2    1
     8    25    23   am
     9     2     3    1
    10     3    10   am
    11    23    24    2
    12    23    22    1
    13    99   100    1
    14    12    11    1
    15    12    13    2
    16    22    21    1
    17   107   105   ar
    18   107   109   ar
    19   105   104   ar
    20    91    89    1
    21    10    11    1
    22    10    16    1
    23    11    14    1
    24   110   109    1
    25   109   108   ar
    26   100   103    1
    27   100   101    1
    28   104   103    1
    29   104   106   ar
    30    89    90    1
    31    89    88    2
    32   102   101    2
    33    21    18    1
    34    16    15    1
    35    14    15    1
    36    88    87    1
    37   108   106   ar
    38    18    17    1
    39    18    19    1
    40    34    32   ar
    41    34    36   ar
    42    87    86    1
    43    84    83    2
    44    37    36    1
    45    19    26   am
    46    19    20    2
    47    32    31   ar
    48    26    27    1
    49    36    35   ar
    50    86    85    1
    51    85    82    1
    52    29    28    2
    53    83    82    1
    54    31    30    1
    55    31    33   ar
    56    27    28    1
    57    27    30    1
    58    35    33   ar
    59    82    81    1
    60    28    38   am
    61    38    39    1
    62    39    40    1
    63    98    96    1
    64    79    78    2
    65    40    42   am
    66    40    41    2
    67    92    93    1
    68    42    43    1
    69    93    96    1
    70    93    94    1
    71    96    97    1
    72    78    77    1
    73    45    44    2
    74    47    46    1
    75    43    44    1
    76    43    46    1
    77    48    46    1
    78    94    95    2
    79    44    49   am
    80    72    70   ar
    81    72    74   ar
    82    77    80    1
    83    77    76    1
    84    70    69   ar
    85    76    66   am
    86    75    74    1
    87    74    73   ar
    88    53    55    1
    89    53    50    1
    90    53    54    1
    91    49    50    1
    92    69    68    1
    93    69    71   ar
    94    50    51    1
    95    66    65    1
    96    66    67    2
    97    68    65    1
    98    62    61    2
    99    65    64    1
   100    73    71   ar
   101    59    58    2
   102    61    60    1
   103    61    63   am
   104    57    58    1
   105    57    60    1
   106    57    56    1
   107    51    56   am
   108    51    52    2
