@<TRIPOS>MOLECULE
tmp/4yxiA01.pdb
 121 119 0 0 0
SMALL
GASTEIGER

@<TRIPOS>ATOM
      1  N         -9.5360    6.5560   81.4290 N.3    89  GLN89      -0.1245
      2  CA        -9.2470    5.4040   80.5820 C.3    89  GLN89       0.1566
      3  C         -9.5210    4.1250   81.3540 C.2    89  GLN89       0.2260
      4  O         -9.5640    4.1400   82.5890 O.2    89  GLN89      -0.2867
      5  CB        -7.7900    5.4060   80.0910 C.3    89  GLN89       0.0367
      6  CG        -6.7370    5.5350   81.1920 C.3    89  GLN89       0.0905
      7  CD        -5.9550    4.2580   81.4420 C.2    89  GLN89       0.2608
      8  OE1       -6.4940    3.1490   81.3920 O.2    89  GLN89      -0.2717
      9  NE2       -4.6750    4.4140   81.7500 N.am   89  GLN89      -0.0878
     10  N         -8.0980   -0.1790   81.1000 N.3    91  HIS91      -0.1241
     11  CA        -7.2210   -1.1660   80.4950 C.3    91  HIS91       0.1621
     12  C         -7.2900   -2.4300   81.3500 C.2    91  HIS91       0.2264
     13  O         -7.9300   -2.4480   82.4140 O.2    91  HIS91      -0.2867
     14  CB        -5.7830   -0.6460   80.4460 C.3    91  HIS91       0.0745
     15  CG        -5.2290   -0.3760   81.8090 C.ar   91  HIS91       0.0817
     16  ND1       -5.3850    0.8340   82.4470 N.ar   91  HIS91      -0.2268
     17  CD2       -4.5990   -1.1940   82.6920 C.ar   91  HIS91       0.1154
     18  CE1       -4.8570    0.7510   83.6610 C.ar   91  HIS91       0.1986
     19  NE2       -4.3740   -0.4680   83.8330 N.ar   91  HIS91      -0.2212
     20  N         -4.9630   -6.1660   82.6780 N.3    93  HIS93      -0.1241
     21  CA        -3.7580   -6.9740   82.8390 C.3    93  HIS93       0.1621
     22  C         -4.2100   -8.4260   82.7380 C.2    93  HIS93       0.2264
     23  O         -5.2800   -8.7750   83.2420 O.2    93  HIS93      -0.2867
     24  CB        -3.1000   -6.7150   84.2000 C.3    93  HIS93       0.0745
     25  CG        -2.8120   -5.2670   84.4550 C.ar   93  HIS93       0.0817
     26  ND1       -1.5710   -4.7000   84.2630 N.ar   93  HIS93      -0.2268
     27  CD2       -3.6280   -4.2580   84.8430 C.ar   93  HIS93       0.1154
     28  CE1       -1.6350   -3.4080   84.5490 C.ar   93  HIS93       0.1986
     29  NE2       -2.8740   -3.1110   84.8940 N.ar   93  HIS93      -0.2212
     30  N         -8.9050   -2.3470   85.0650 N.3   116  HIS116     -0.1241
     31  CA        -8.6700   -1.1150   85.8050 C.3   116  HIS116      0.1621
     32  C         -9.3500    0.0620   85.1190 C.2   116  HIS116      0.2264
     33  O         -8.9800    0.4220   83.9990 O.2   116  HIS116     -0.2867
     34  CB        -7.1660   -0.8370   85.9070 C.3   116  HIS116      0.0745
     35  CG        -6.4670   -1.8050   86.7890 C.ar  116  HIS116      0.0817
     36  ND1       -5.1040   -2.0190   86.7650 N.ar  116  HIS116     -0.2268
     37  CD2       -6.9740   -2.6260   87.7390 C.ar  116  HIS116      0.1154
     38  CE1       -4.8100   -2.9360   87.6710 C.ar  116  HIS116      0.1986
     39  NE2       -5.9220   -3.3180   88.2770 N.ar  116  HIS116     -0.2212
     40  N         -9.6320    3.8720   85.4330 N.3   118  VAL118     -0.1245
     41  CA        -8.7610    4.8780   86.0350 C.3   118  VAL118      0.1561
     42  C         -9.4540    6.2340   86.0650 C.2   118  VAL118      0.2260
     43  O         -9.9500    6.7000   85.0400 O.2   118  VAL118     -0.2867
     44  CB        -7.4490    4.9770   85.2340 C.3   118  VAL118      0.0252
     45  CG1       -6.5100    5.9920   85.8610 C.3   118  VAL118      0.0019
     46  CG2       -6.7800    3.6050   85.1060 C.3   118  VAL118      0.0019
     47  N         -4.9910   15.3130   85.0430 N.3   127  PHE127     -0.1241
     48  CA        -4.3720   14.0690   85.4650 C.3   127  PHE127      0.1605
     49  C         -2.9340   14.2730   85.9390 C.2   127  PHE127      0.2264
     50  O         -2.5200   13.6890   86.9380 O.2   127  PHE127     -0.2867
     51  CB        -4.4300   13.0500   84.3210 C.3   127  PHE127      0.0534
     52  CG        -3.8720   11.6990   84.6720 C.ar  127  PHE127     -0.0203
     53  CD1       -4.6960   10.6930   85.1410 C.ar  127  PHE127     -0.0042
     54  CD2       -2.5210   11.4290   84.5160 C.ar  127  PHE127     -0.0042
     55  CE1       -4.1830    9.4510   85.4570 C.ar  127  PHE127     -0.0003
     56  CE2       -2.0080   10.1870   84.8330 C.ar  127  PHE127     -0.0003
     57  CZ        -2.8410    9.1960   85.3030 C.ar  127  PHE127     -0.0000
     58  N         -8.7700    4.0550   91.2810 N.3   139  VAL139     -0.1245
     59  CA        -8.8610    3.0030   90.2910 C.3   139  VAL139      0.1561
     60  C         -9.8500    1.9610   90.7910 C.2   139  VAL139      0.2260
     61  O         -9.7280    1.4530   91.9150 O.2   139  VAL139     -0.2867
     62  CB        -7.4900    2.3770   89.9400 C.3   139  VAL139      0.0252
     63  CG1       -7.6600    1.3470   88.8350 C.3   139  VAL139      0.0019
     64  CG2       -6.5050    3.4510   89.4870 C.3   139  VAL139      0.0019
     65  N          0.0690    3.4150   91.4160 N.3   194  LEU194     -0.1231
     66  CA         0.0780    2.8470   90.0700 C.3   194  LEU194      0.1693
     67  C          0.8180    1.5140   90.1170 C.2   194  LEU194      0.2593
     68  O          1.8190    1.3760   90.8280 O.2   194  LEU194     -0.2718
     69  CB         0.7920    3.7770   89.0880 C.3   194  LEU194      0.0284
     70  CG         0.2610    5.2000   88.9430 C.3   194  LEU194      0.0019
     71  CD1        1.1120    5.9680   87.9400 C.3   194  LEU194      0.0001
     72  CD2       -1.1970    5.1980   88.5290 C.3   194  LEU194      0.0001
     73  N          0.3610    0.5450   89.3310 N.am  195  THR195     -0.1939
     74  CA         1.0140   -0.7640   89.3060 C.3   195  THR195      0.2028
     75  C          2.0490   -0.9060   88.1860 C.2   195  THR195      0.2643
     76  O          2.6690   -1.9660   88.0410 O.2   195  THR195     -0.2714
     77  CB         0.0140   -1.9090   89.1580 C.3   195  THR195      0.1808
     78  OG1       -0.5680   -1.8320   87.8590 O.3   195  THR195     -0.2208
     79  CG2       -1.0570   -1.8720   90.2410 C.3   195  THR195      0.0379
     80  N          2.2350    0.1500   87.4000 N.am  196  THR196     -0.1937
     81  CA         3.3180    0.2060   86.4230 C.3   196  THR196      0.2013
     82  C          4.1500    1.4440   86.7120 C.2   196  THR196      0.2484
     83  O          3.6570    2.3960   87.3200 O.2   196  THR196     -0.2729
     84  CB         2.8210    0.3250   84.9590 C.3   196  THR196      0.1807
     85  OG1        2.3160    1.6400   84.7230 O.3   196  THR196     -0.2208
     86  CG2        1.7540   -0.6930   84.6450 C.3   196  THR196      0.0379
     87  N          5.4090    1.4540   86.2540 N.am  197  PRO197     -0.2715
     88  CA         6.1670    2.7070   86.2900 C.3   197  PRO197      0.1521
     89  C          5.3140    3.8420   85.7120 C.2   197  PRO197      0.2440
     90  O          4.6140    3.6370   84.7140 O.2   197  PRO197     -0.2731
     91  CB         7.3900    2.3840   85.4300 C.3   197  PRO197      0.0310
     92  CG         7.6030    0.9210   85.6750 C.3   197  PRO197      0.0237
     93  CD         6.2090    0.3480   85.6960 C.3   197  PRO197      0.0939
     94  N          5.3450    5.0250   86.3390 N.am  198  PRO198     -0.2727
     95  CA         6.2380    5.4650   87.4220 C.3   198  PRO198      0.1402
     96  C          5.8580    5.0590   88.8640 C.2   198  PRO198      0.2269
     97  O          6.5180    5.5310   89.7920 O.2   198  PRO198     -0.2865
     98  CB         6.2380    6.9900   87.2550 C.3   198  PRO198      0.0296
     99  CG         4.8790    7.2850   86.7090 C.3   198  PRO198      0.0237
    100  CD         4.5530    6.1430   85.7930 C.3   198  PRO198      0.0939
    101  N         -3.0290    6.5570   94.5370 N.3   203  VAL203     -0.1245
    102  CA        -4.2650    5.8560   94.1960 C.3   203  VAL203      0.1561
    103  C         -5.0590    5.3980   95.4150 C.2   203  VAL203      0.2260
    104  O         -4.5090    4.7670   96.3170 O.2   203  VAL203     -0.2867
    105  CB        -3.9800    4.6060   93.3260 C.3   203  VAL203      0.0252
    106  CG1       -5.2740    3.9130   92.9350 C.3   203  VAL203      0.0019
    107  CG2       -3.1800    4.9830   92.0770 C.3   203  VAL203      0.0019
    108  N         -7.4670    2.5960   95.8430 N.3   205  TRP205     -0.1241
    109  CA        -7.9100    1.3970   95.1520 C.3   205  TRP205      0.1605
    110  C         -9.2720    0.9760   95.6680 C.2   205  TRP205      0.2264
    111  O         -9.4960    0.9340   96.8790 O.2   205  TRP205     -0.2867
    112  CB        -6.8920    0.2590   95.3480 C.3   205  TRP205      0.0550
    113  CG        -5.7730    0.3770   94.3820 C.ar  205  TRP205      0.0003
    114  CD1       -4.5530    0.9710   94.5730 C.ar  205  TRP205      0.0946
    115  CD2       -5.8060   -0.0380   93.0210 C.ar  205  TRP205      0.0152
    116  NE1       -3.8210    0.9290   93.4060 N.ar  205  TRP205     -0.2442
    117  CE2       -4.5720    0.3170   92.4370 C.ar  205  TRP205      0.0810
    118  CE3       -6.7600   -0.6940   92.2370 C.ar  205  TRP205      0.0012
    119  CZ2       -4.2770    0.0390   91.1000 C.ar  205  TRP205      0.0191
    120  CZ3       -6.4620   -0.9790   90.9210 C.ar  205  TRP205      0.0001
    121  CH2       -5.2350   -0.6090   90.3630 C.ar  205  TRP205      0.0015
@<TRIPOS>BOND
     1     5     2    1
     2     5     6    1
     3    14    11    1
     4    14    15    1
     5    11    10    1
     6    11    12    1
     7     2     3    1
     8     2     1    1
     9     6     7    1
    10    12    13    2
    11     3     4    2
    12     8     7    2
    13     7     9   am
    14    15    16   ar
    15    15    17   ar
    16    16    18   ar
    17    20    21    1
    18    17    19   ar
    19    22    21    1
    20    22    23    2
    21    21    24    1
    22    18    19   ar
    23    33    32    2
    24    24    25    1
    25    26    25   ar
    26    26    28   ar
    27    51    52    1
    28    51    48    1
    29    25    27   ar
    30    54    52   ar
    31    54    56   ar
    32    28    29   ar
    33    86    84    1
    34    52    53   ar
    35    90    89    2
    36    85    84    1
    37    56    57   ar
    38    27    29   ar
    39    84    81    1
    40    43    42    2
    41    47    48    1
    42    30    31    1
    43    46    44    1
    44    32    31    1
    45    53    55   ar
    46    44    45    1
    47    44    41    1
    48    57    55   ar
    49    91    92    1
    50    91    88    1
    51    40    41    1
    52    48    49    1
    53    92    93    1
    54    93    87    1
    55    89    88    1
    56    89    94   am
    57   100    94    1
    58   100    99    1
    59    31    34    1
    60    34    35    1
    61    49    50    2
    62    41    42    1
    63    87    88    1
    64    87    82   am
    65    94    95    1
    66    81    82    1
    67    81    80    1
    68    99    98    1
    69    82    83    2
    70    36    35   ar
    71    36    38   ar
    72    35    37   ar
    73    98    95    1
    74    80    75   am
    75    95    96    1
    76    38    39   ar
    77    37    39   ar
    78    78    77    1
    79    71    70    1
    80    76    75    2
    81    75    74    1
    82    72    70    1
    83    63    62    1
    84    96    97    2
    85    70    69    1
    86    69    66    1
    87    77    74    1
    88    77    79    1
    89    74    73    1
    90    73    67   am
    91    64    62    1
    92    62    59    1
    93    66    67    1
    94    66    65    1
    95    67    68    2
    96    59    60    1
    97    59    58    1
    98   121   120   ar
    99   121   119   ar
   100    60    61    2
   101   120   118   ar
   102   119   117   ar
   103   107   105    1
   104   118   115   ar
   105   117   115   ar
   106   117   116   ar
   107   106   105    1
   108   115   113   ar
   109   105   102    1
   110   116   114   ar
   111   102   101    1
   112   102   103    1
   113   113   114   ar
   114   113   112    1
   115   109   112    1
   116   109   110    1
   117   109   108    1
   118   103   104    2
   119   110   111    2
