@<TRIPOS>MOLECULE
tmp/4yxjA00.pdb
 142 138 0 0 0
SMALL
GASTEIGER

@<TRIPOS>ATOM
      1  N          6.9300  -33.0270  -31.4760 N.3    33  LEU33      -0.1245
      2  CA         8.0170  -32.0850  -31.2860 C.3    33  LEU33       0.1561
      3  C          7.3820  -30.7020  -31.1040 C.2    33  LEU33       0.2260
      4  O          6.8170  -30.1240  -32.0380 O.2    33  LEU33      -0.2867
      5  CB         8.9830  -32.1310  -32.4570 C.3    33  LEU33       0.0270
      6  CG        10.2600  -31.2990  -32.3220 C.3    33  LEU33       0.0019
      7  CD1       11.0740  -31.6900  -31.0750 C.3    33  LEU33       0.0001
      8  CD2       11.0800  -31.4510  -33.6180 C.3    33  LEU33       0.0001
      9  N          3.6630  -34.3640  -39.8580 N.3    69  ASP69      -0.1225
     10  CA         5.0990  -34.2860  -39.5860 C.3    69  ASP69       0.1805
     11  C          5.5290  -32.9450  -38.9840 C.2    69  ASP69       0.2598
     12  O          4.7370  -32.0080  -38.8670 O.2    69  ASP69      -0.2718
     13  CB         5.8940  -34.5190  -40.8780 C.3    69  ASP69       0.1424
     14  CG         5.8760  -35.9580  -41.3150 C.2    69  ASP69       0.3668
     15  OD1        5.6770  -36.8340  -40.4420 O.co2  69  ASP69      -0.2456
     16  OD2        6.0640  -36.2150  -42.5260 O.co2  69  ASP69      -0.2456
     17  N          6.8050  -32.8400  -38.6380 N.am   70  GLY70      -0.1942
     18  CA         7.3290  -31.5690  -38.2040 C.3    70  GLY70       0.2014
     19  C          6.9330  -31.2270  -36.7840 C.2    70  GLY70       0.2638
     20  O          6.7630  -32.1040  -35.9470 O.2    70  GLY70      -0.2714
     21  N          6.7860  -29.9370  -36.5050 N.am   71  ALA71      -0.1977
     22  CA         6.7140  -29.4850  -35.1250 C.3    71  ALA71       0.1597
     23  C          5.5640  -28.5310  -34.9050 C.2    71  ALA71       0.2287
     24  O          5.0800  -27.8860  -35.8280 O.2    71  ALA71      -0.2864
     25  CB         8.0350  -28.8200  -34.7140 C.3    71  ALA71       0.0319
     26  N          5.7860  -27.2740  -38.8360 N.3    86  VAL86      -0.1231
     27  CA         6.9760  -26.4970  -39.1970 C.3    86  VAL86       0.1692
     28  C          8.2680  -27.3150  -39.0730 C.2    86  VAL86       0.2592
     29  O          8.3380  -28.3220  -38.3600 O.2    86  VAL86      -0.2718
     30  CB         7.1410  -25.2090  -38.3490 C.3    86  VAL86       0.0266
     31  CG1        5.8890  -24.3580  -38.4040 C.3    86  VAL86       0.0020
     32  CG2        7.5300  -25.5430  -36.9240 C.3    86  VAL86       0.0020
     33  N          9.2710  -26.8600  -39.8080 N.am   87  HIS87      -0.1962
     34  CA        10.6050  -27.4230  -39.8270 C.3    87  HIS87       0.1787
     35  C         11.4920  -26.5540  -38.9510 C.2    87  HIS87       0.2620
     36  O         11.6890  -25.3770  -39.2590 O.2    87  HIS87      -0.2715
     37  CB        11.1350  -27.4530  -41.2540 C.3    87  HIS87       0.0785
     38  CG        12.5100  -28.0310  -41.3810 C.ar   87  HIS87       0.0821
     39  ND1       13.2920  -27.8440  -42.4980 N.ar   87  HIS87      -0.2267
     40  CD2       13.2300  -28.8080  -40.5360 C.ar   87  HIS87       0.1154
     41  CE1       14.4390  -28.4830  -42.3370 C.ar   87  HIS87       0.1986
     42  NE2       14.4220  -29.0780  -41.1600 N.ar   87  HIS87      -0.2212
     43  N         12.0030  -27.1140  -37.8580 N.am   88  LEU88      -0.1977
     44  CA        12.7900  -26.3470  -36.8880 C.3    88  LEU88       0.1596
     45  C         14.2690  -26.4040  -37.2610 C.2    88  LEU88       0.2287
     46  O         14.8160  -27.4800  -37.4870 O.2    88  LEU88      -0.2864
     47  CB        12.5780  -26.8800  -35.4720 C.3    88  LEU88       0.0297
     48  CG        11.1870  -26.7360  -34.8450 C.3    88  LEU88       0.0022
     49  CD1       11.1460  -27.4380  -33.5020 C.3    88  LEU88       0.0001
     50  CD2       10.7810  -25.2740  -34.6820 C.3    88  LEU88       0.0001
     51  N         17.5890  -25.3750  -35.7560 N.3    90  PRO90      -0.2116
     52  CA        18.5940  -24.8250  -34.8470 C.3    90  PRO90       0.1372
     53  C         19.9740  -25.0260  -35.4650 C.2    90  PRO90       0.2244
     54  O         20.1020  -25.8280  -36.3910 O.2    90  PRO90      -0.2868
     55  CB        18.4020  -25.6550  -33.5730 C.3    90  PRO90       0.0268
     56  CG        17.9590  -26.9840  -34.0800 C.3    90  PRO90       0.0207
     57  CD        17.2080  -26.7510  -35.3880 C.3    90  PRO90       0.0892
     58  N         19.9780  -38.9170  -30.1090 N.3    99  THR99      -0.1203
     59  CA        19.9980  -39.8210  -31.2510 C.3    99  THR99       0.1994
     60  C         18.7960  -39.5570  -32.1260 C.2    99  THR99       0.2618
     61  O         17.7040  -39.3170  -31.6210 O.2    99  THR99      -0.2717
     62  CB        19.9820  -41.2940  -30.7890 C.3    99  THR99       0.1784
     63  OG1       21.2710  -41.6570  -30.2660 O.3    99  THR99      -0.2211
     64  CG2       19.6160  -42.2170  -31.9280 C.3    99  THR99       0.0376
     65  N         18.9830  -39.5870  -33.4350 N.am  100  GLY100     -0.1942
     66  CA        17.8690  -39.3580  -34.3270 C.3   100  GLY100      0.2014
     67  C         17.5860  -37.8710  -34.4440 C.2   100  GLY100      0.2640
     68  O         17.8550  -37.0930  -33.5240 O.2   100  GLY100     -0.2714
     69  N         17.0260  -37.4730  -35.5740 N.am  101  THR101     -0.1936
     70  CA        16.8010  -36.0700  -35.8500 C.3   101  THR101      0.2028
     71  C         15.8650  -35.3600  -34.8570 C.2   101  THR101      0.2642
     72  O         16.1120  -34.2110  -34.4970 O.2   101  THR101     -0.2714
     73  CB        16.2330  -35.9030  -37.2490 C.3   101  THR101      0.1808
     74  OG1       14.9450  -36.5250  -37.2960 O.3   101  THR101     -0.2208
     75  CG2       17.1460  -36.5700  -38.2490 C.3   101  THR101      0.0379
     76  N         14.7960  -36.0130  -34.4150 N.am  102  ARG102     -0.1963
     77  CA        13.8520  -35.3370  -33.5360 C.3   102  ARG102      0.1729
     78  C         14.5180  -34.8500  -32.2450 C.2   102  ARG102      0.2616
     79  O         14.4340  -33.6640  -31.8950 O.2   102  ARG102     -0.2715
     80  CB        12.6790  -36.2430  -33.1840 C.3   102  ARG102      0.0348
     81  CG        11.6060  -35.5440  -32.3520 C.3   102  ARG102      0.0492
     82  CD        10.7150  -36.5410  -31.6300 C.3   102  ARG102      0.2205
     83  NE        10.3220  -37.6110  -32.5410 N.pl3 102  ARG102     -0.0865
     84  CZ         9.3270  -37.4980  -33.4130 C.cat 102  ARG102      0.5346
     85  NH1        9.0310  -38.5060  -34.2210 N.pl3 102  ARG102      0.1354
     86  NH2        8.6210  -36.3690  -33.4660 N.pl3 102  ARG102      0.1354
     87  N         15.1790  -35.7600  -31.5340 N.am  103  HIS103     -0.1973
     88  CA        15.7090  -35.4110  -30.2270 C.3   103  HIS103      0.1656
     89  C         16.9700  -34.5870  -30.3860 C.2   103  HIS103      0.2291
     90  O         17.2180  -33.6780  -29.5920 O.2   103  HIS103     -0.2864
     91  CB        15.9480  -36.6620  -29.3820 C.3   103  HIS103      0.0771
     92  CG        14.6760  -37.3350  -28.9650 C.ar  103  HIS103      0.0820
     93  ND1       14.0820  -37.1170  -27.7390 N.ar  103  HIS103     -0.2267
     94  CD2       13.8550  -38.1750  -29.6370 C.ar  103  HIS103      0.1154
     95  CE1       12.9680  -37.8180  -27.6610 C.ar  103  HIS103      0.1986
     96  NE2       12.8020  -38.4620  -28.8040 N.ar  103  HIS103     -0.2212
     97  N         17.3410  -32.4130  -32.7700 N.3   105  THR105     -0.1218
     98  CA        16.7720  -31.1020  -33.0560 C.3   105  THR105      0.1862
     99  C         16.3270  -30.4220  -31.7520 C.2   105  THR105      0.2287
    100  O         16.5960  -29.2300  -31.5270 O.2   105  THR105     -0.2866
    101  CB        15.5680  -31.2000  -34.0420 C.3   105  THR105      0.1770
    102  OG1       16.0230  -31.6550  -35.3230 O.3   105  THR105     -0.2211
    103  CG2       14.8870  -29.8720  -34.2220 C.3   105  THR105      0.0375
    104  N          8.9430  -39.6240  -29.2030 N.3   121  SER121     -0.1202
    105  CA         9.1480  -40.5750  -30.2960 C.3   121  SER121      0.2020
    106  C          7.9400  -41.4800  -30.4940 C.2   121  SER121      0.2619
    107  O          7.1390  -41.6640  -29.5800 O.2   121  SER121     -0.2717
    108  CB        10.3800  -41.4350  -30.0360 C.3   121  SER121      0.2103
    109  OG        11.5560  -40.6860  -30.2310 O.3   121  SER121     -0.2182
    110  N          7.8200  -42.0690  -31.6790 N.am  122  ARG122     -0.1965
    111  CA         6.6660  -42.9160  -31.9740 C.3   122  ARG122      0.1729
    112  C          6.6850  -44.2860  -31.2600 C.2   122  ARG122      0.2616
    113  O          5.6310  -44.7460  -30.8230 O.2   122  ARG122     -0.2715
    114  CB         6.5320  -43.1170  -33.4850 C.3   122  ARG122      0.0348
    115  CG         6.4350  -41.8140  -34.2930 C.3   122  ARG122      0.0492
    116  CD         6.3450  -42.0950  -35.7930 C.3   122  ARG122      0.2205
    117  NE         7.3040  -41.3120  -36.5710 N.pl3 122  ARG122     -0.0865
    118  CZ         8.6180  -41.5600  -36.6250 C.cat 122  ARG122      0.5346
    119  NH1        9.4140  -40.7880  -37.3680 N.pl3 122  ARG122      0.1354
    120  NH2        9.1450  -42.5730  -35.9310 N.pl3 122  ARG122      0.1354
    121  N          7.8370  -44.9470  -31.1230 N.am  123  ARG123     -0.1963
    122  CA         7.8150  -46.2580  -30.4510 C.3   123  ARG123      0.1729
    123  C          8.3610  -46.2180  -29.0210 C.2   123  ARG123      0.2616
    124  O          8.8880  -47.2190  -28.5310 O.2   123  ARG123     -0.2715
    125  CB         8.5680  -47.3450  -31.2590 C.3   123  ARG123      0.0348
    126  CG         9.6040  -46.8520  -32.2480 C.3   123  ARG123      0.0492
    127  CD        10.3100  -47.9660  -33.0250 C.3   123  ARG123      0.2205
    128  NE        11.2640  -47.4080  -33.9860 N.pl3 123  ARG123     -0.0865
    129  CZ        12.4770  -46.9650  -33.6510 C.cat 123  ARG123      0.5346
    130  NH1       13.2910  -46.4490  -34.5650 N.pl3 123  ARG123      0.1354
    131  NH2       12.8730  -47.0130  -32.3870 N.pl3 123  ARG123      0.1354
    132  N          8.1990  -45.0790  -28.3450 N.am  124  ARG124     -0.1977
    133  CA         8.6280  -44.9480  -26.9550 C.3   124  ARG124      0.1597
    134  C          7.6400  -44.1150  -26.1330 C.2   124  ARG124      0.2287
    135  O          7.2160  -43.0300  -26.5440 O.2   124  ARG124     -0.2864
    136  CB        10.0240  -44.3270  -26.8740 C.3   124  ARG124      0.0334
    137  CG        11.1680  -45.1990  -27.3700 C.3   124  ARG124      0.0492
    138  CD        12.4790  -44.6090  -26.8890 C.3   124  ARG124      0.2205
    139  NE        13.6520  -45.4440  -27.1510 N.pl3 124  ARG124     -0.0865
    140  CZ        14.4580  -45.2800  -28.1970 C.cat 124  ARG124      0.5346
    141  NH1       15.5230  -46.0610  -28.3650 N.pl3 124  ARG124      0.1354
    142  NH2       14.1960  -44.3250  -29.0790 N.pl3 124  ARG124      0.1354
@<TRIPOS>BOND
     1    16    14   ar
     2    39    41   ar
     3    39    38   ar
     4    41    42   ar
     5    38    37    1
     6    38    40   ar
     7    14    13    1
     8    14    15   ar
     9    37    34    1
    10    42    40   ar
    11    13    10    1
    12     9    10    1
    13    34    33    1
    14    34    35    1
    15    33    28   am
    16    10    11    1
    17    36    35    2
    18    27    28    1
    19    27    26    1
    20    27    30    1
    21    28    29    2
    22    11    12    2
    23    11    17   am
    24    35    43   am
    25    17    18    1
    26    31    30    1
    27    30    32    1
    28    75    73    1
    29    18    19    1
    30    43    44    1
    31    46    45    2
    32   119   118    1
    33    74    73    1
    34    45    44    1
    35    73    70    1
    36    44    47    1
    37    19    21   am
    38    19    20    2
    39   118   117    2
    40   118   120    1
    41   117   116    1
    42    21    22    1
    43    54    53    2
    44    70    69    1
    45    70    71    1
    46    24    23    2
    47   116   115    1
    48    51    57    1
    49    51    52    1
    50    69    67   am
    51    47    48    1
    52    53    52    1
    53    57    56    1
    54   102   101    1
    55    22    23    1
    56    22    25    1
    57    71    72    2
    58    71    76   am
    59    52    55    1
    60    48    50    1
    61    48    49    1
    62   130   129    1
    63    67    66    1
    64    67    68    2
    65    76    77    1
    66    66    65    1
    67   115   114    1
    68   103   101    1
    69    85    84    1
    70    56    55    1
    71   101    98    1
    72   128   129    2
    73   128   127    1
    74   129   131    1
    75     8     6    1
    76    77    80    1
    77    77    78    1
    78   114   111    1
    79    86    84    1
    80    65    60   am
    81    84    83    2
    82    80    81    1
    83    98    97    1
    84    98    99    1
    85   127   126    1
    86    83    82    1
    87     5     6    1
    88     5     2    1
    89    81    82    1
    90     6     7    1
    91   126   125    1
    92    78    79    2
    93    78    87   am
    94    60    61    2
    95    60    59    1
    96     4     3    2
    97   111   110    1
    98   111   112    1
    99    64    62    1
   100    99   100    2
   101   110   106   am
   102    87    88    1
   103     1     2    1
   104     2     3    1
   105   112   121   am
   106   112   113    2
   107   125   122    1
   108    59    62    1
   109    59    58    1
   110   121   122    1
   111    62    63    1
   112   106   105    1
   113   106   107    2
   114   122   123    1
   115    89    88    1
   116    89    90    2
   117   105   108    1
   118   105   104    1
   119   109   108    1
   120    88    91    1
   121    94    92   ar
   122    94    96   ar
   123    91    92    1
   124   142   140    1
   125   123   124    2
   126   123   132   am
   127    92    93   ar
   128    96    95   ar
   129   141   140    1
   130   132   133    1
   131   140   139    2
   132    93    95   ar
   133   137   138    1
   134   137   136    1
   135   139   138    1
   136   133   136    1
   137   133   134    1
   138   135   134    2
