@<TRIPOS>MOLECULE
tmp/4yxmB00.pdb
 97 92 0 0 0
SMALL
GASTEIGER

@<TRIPOS>ATOM
      1  N         18.6610  -42.4960  -47.7670 N.3    33  LEU33      -0.1245
      2  CA        19.2760  -41.1890  -47.9000 C.3    33  LEU33       0.1561
      3  C         20.7370  -41.4980  -48.1040 C.2    33  LEU33       0.2260
      4  O         21.3940  -42.0000  -47.1980 O.2    33  LEU33      -0.2867
      5  CB        19.0520  -40.3040  -46.6720 C.3    33  LEU33       0.0270
      6  CG        19.6820  -38.9030  -46.6640 C.3    33  LEU33       0.0019
      7  CD1       19.2540  -38.0690  -47.8700 C.3    33  LEU33       0.0001
      8  CD2       19.3490  -38.1560  -45.3710 C.3    33  LEU33       0.0001
      9  N         18.5390  -46.3000  -39.1350 N.3    69  ASN69      -0.1225
     10  CA        18.0400  -44.9460  -39.2810 C.3    69  ASN69       0.1785
     11  C         19.0770  -44.0580  -39.9600 C.2    69  ASN69       0.2598
     12  O         20.2410  -44.4290  -40.0460 O.2    69  ASN69      -0.2718
     13  CB        17.6610  -44.3730  -37.9170 C.3    69  ASN69       0.1169
     14  CG        16.3580  -43.6120  -37.9540 C.2    69  ASN69       0.2627
     15  OD1       15.4650  -43.9310  -38.7350 O.2    69  ASN69      -0.2716
     16  ND2       16.2400  -42.6000  -37.1070 N.am   69  ASN69      -0.0877
     17  N         18.6660  -42.8860  -40.4270 N.am   70  GLY70      -0.1942
     18  CA        19.6290  -41.9290  -40.9520 C.3    70  GLY70       0.2014
     19  C         20.1850  -42.2880  -42.3300 C.2    70  GLY70       0.2638
     20  O         19.5720  -43.0430  -43.0720 O.2    70  GLY70      -0.2714
     21  N         21.3630  -41.7630  -42.6480 N.am   71  ALA71      -0.1977
     22  CA        21.8870  -41.7810  -44.0040 C.3    71  ALA71       0.1597
     23  C         23.0840  -42.6980  -44.1940 C.2    71  ALA71       0.2287
     24  O         23.7180  -43.1340  -43.2270 O.2    71  ALA71      -0.2864
     25  CB        22.2590  -40.3870  -44.4240 C.3    71  ALA71       0.0319
     26  N         24.3160  -42.4430  -40.4030 N.3    86  VAL86      -0.1231
     27  CA        24.8420  -41.1110  -40.0880 C.3    86  VAL86       0.1692
     28  C         23.7750  -40.0300  -40.0840 C.2    86  VAL86       0.2592
     29  O         22.6850  -40.1970  -40.6270 O.2    86  VAL86      -0.2718
     30  CB        25.9560  -40.6490  -41.0560 C.3    86  VAL86       0.0266
     31  CG1       27.1150  -41.6040  -41.0200 C.3    86  VAL86       0.0020
     32  CG2       25.4170  -40.4680  -42.4680 C.3    86  VAL86       0.0020
     33  N         24.1170  -38.9180  -39.4530 N.am   87  HIS87      -0.1962
     34  CA        23.2820  -37.7370  -39.4430 C.3    87  HIS87       0.1787
     35  C         23.9350  -36.7050  -40.3310 C.2    87  HIS87       0.2620
     36  O         25.0460  -36.2570  -40.0450 O.2    87  HIS87      -0.2715
     37  CB        23.1120  -37.1880  -38.0190 C.3    87  HIS87       0.0785
     38  CG        22.1740  -36.0230  -37.9320 C.ar   87  HIS87       0.0821
     39  ND1       22.1140  -35.1910  -36.8300 N.ar   87  HIS87      -0.2267
     40  CD2       21.2590  -35.5450  -38.8100 C.ar   87  HIS87       0.1154
     41  CE1       21.1960  -34.2650  -37.0320 C.ar   87  HIS87       0.1986
     42  NE2       20.6660  -34.4510  -38.2300 N.ar   87  HIS87      -0.2212
     43  N         23.2530  -36.3370  -41.4100 N.am   88  LEU88      -0.1977
     44  CA        23.7750  -35.3600  -42.3570 C.3    88  LEU88       0.1596
     45  C         23.3100  -33.9650  -41.9630 C.2    88  LEU88       0.2287
     46  O         22.1210  -33.7330  -41.7560 O.2    88  LEU88      -0.2864
     47  CB        23.3350  -35.6960  -43.7870 C.3    88  LEU88       0.0297
     48  CG        23.8110  -37.0390  -44.3400 C.3    88  LEU88       0.0022
     49  CD1       23.2020  -37.2910  -45.7100 C.3    88  LEU88       0.0001
     50  CD2       25.3340  -37.0960  -44.4090 C.3    88  LEU88       0.0001
     51  N         23.6950  -30.4710  -43.4450 N.3    90  PRO90      -0.2116
     52  CA        24.0160  -29.3790  -44.3690 C.3    90  PRO90       0.1372
     53  C         23.6120  -28.0450  -43.7810 C.2    90  PRO90       0.2244
     54  O         22.8370  -28.0350  -42.8310 O.2    90  PRO90      -0.2868
     55  CB        23.1670  -29.6950  -45.5980 C.3    90  PRO90       0.0268
     56  CG        21.9750  -30.3970  -45.0310 C.3    90  PRO90       0.0207
     57  CD        22.5290  -31.2480  -43.9030 C.3    90  PRO90       0.0892
     58  N          9.6600  -32.1430  -46.2170 N.3   100  GLY100     -0.1210
     59  CA        10.1100  -33.2420  -45.3780 C.3   100  GLY100      0.1956
     60  C         11.5820  -33.1040  -45.0730 C.2   100  GLY100      0.2613
     61  O         12.3250  -32.5610  -45.8810 O.2   100  GLY100     -0.2717
     62  N         12.0100  -33.5770  -43.9080 N.am  101  THR101     -0.1938
     63  CA        13.3970  -33.4140  -43.5090 C.3   101  THR101      0.2028
     64  C         14.3270  -34.1430  -44.4740 C.2   101  THR101      0.2642
     65  O         15.4130  -33.6640  -44.7770 O.2   101  THR101     -0.2714
     66  CB        13.6530  -33.9460  -42.0740 C.3   101  THR101      0.1808
     67  OG1       13.2640  -35.3210  -42.0110 O.3   101  THR101     -0.2208
     68  CG2       12.8520  -33.1610  -41.0390 C.3   101  THR101      0.0379
     69  N         13.9050  -35.3100  -44.9340 N.am  102  ARG102     -0.1977
     70  CA        14.7550  -36.1410  -45.7790 C.3   102  ARG102      0.1597
     71  C         15.1520  -35.4390  -47.0830 C.2   102  ARG102      0.2287
     72  O         16.3300  -35.3110  -47.4010 O.2   102  ARG102     -0.2864
     73  CB        14.0560  -37.4560  -46.0960 C.3   102  ARG102      0.0334
     74  CG        14.9660  -38.4840  -46.7250 C.3   102  ARG102      0.0492
     75  CD        14.1670  -39.6570  -47.2620 C.3   102  ARG102      0.2205
     76  NE        13.3930  -40.3350  -46.2280 N.pl3 102  ARG102     -0.0865
     77  CZ        13.8860  -41.2850  -45.4440 C.cat 102  ARG102      0.5346
     78  NH1       13.1140  -41.8580  -44.5370 N.pl3 102  ARG102      0.1354
     79  NH2       15.1560  -41.6540  -45.5660 N.pl3 102  ARG102      0.1354
     80  N         16.9760  -32.0790  -46.6440 N.3   105  THR105     -0.1218
     81  CA        18.3750  -32.3560  -46.3610 C.3   105  THR105      0.1862
     82  C         19.1270  -32.6480  -47.6590 C.2   105  THR105      0.2287
     83  O         20.1820  -32.0700  -47.9100 O.2   105  THR105     -0.2866
     84  CB        18.5420  -33.5600  -45.4010 C.3   105  THR105      0.1770
     85  OG1       17.9350  -33.2630  -44.1470 O.3   105  THR105     -0.2211
     86  CG2       20.0030  -33.8780  -45.1780 C.3   105  THR105      0.0375
     87  N          9.6440  -43.2100  -47.4840 N.3   122  ARG122     -0.1245
     88  CA         9.1940  -44.5430  -47.1290 C.3   122  ARG122      0.1563
     89  C          7.9350  -45.0070  -47.8610 C.2   122  ARG122      0.2260
     90  O          7.8200  -46.1960  -48.1610 O.2   122  ARG122     -0.2867
     91  CB         8.9960  -44.6360  -45.6190 C.3   122  ARG122      0.0307
     92  CG        10.2810  -45.0330  -44.9070 C.3   122  ARG122      0.0489
     93  CD        10.1110  -45.1040  -43.4020 C.3   122  ARG122      0.2205
     94  NE        10.8360  -44.0290  -42.7230 N.pl3 122  ARG122     -0.0865
     95  CZ        11.4100  -44.1570  -41.5310 C.cat 122  ARG122      0.5346
     96  NH1       12.0470  -43.1330  -40.9870 N.pl3 122  ARG122      0.1354
     97  NH2       11.3490  -45.3160  -40.8860 N.pl3 122  ARG122      0.1354
@<TRIPOS>BOND
     1    90    89    2
     2     3     2    1
     3     3     4    2
     4    83    82    2
     5     2     1    1
     6     2     5    1
     7     7     6    1
     8    89    88    1
     9    82    81    1
    10    87    88    1
    11    72    71    2
    12    75    74    1
    13    75    76    1
    14    88    91    1
    15    71    70    1
    16    74    73    1
    17     5     6    1
    18     6     8    1
    19    80    81    1
    20    81    84    1
    21    76    77    2
    22    58    59    1
    23    73    70    1
    24    61    60    2
    25    70    69    1
    26    49    48    1
    27    91    92    1
    28    55    56    1
    29    55    52    1
    30    79    77    1
    31    77    78    1
    32    84    86    1
    33    84    85    1
    34    59    60    1
    35    60    62   am
    36    56    57    1
    37    69    64   am
    38    92    93    1
    39    65    64    2
    40    64    63    1
    41    25    22    1
    42    50    48    1
    43    52    53    1
    44    52    51    1
    45    48    47    1
    46    23    22    1
    47    23    24    2
    48    22    21    1
    49    62    63    1
    50    57    51    1
    51    47    44    1
    52    53    54    2
    53    63    66    1
    54    93    94    1
    55    20    19    2
    56    94    95    2
    57    21    19   am
    58    32    30    1
    59    44    45    1
    60    44    43    1
    61    19    18    1
    62    66    67    1
    63    66    68    1
    64    45    46    2
    65    95    96    1
    66    95    97    1
    67    43    35   am
    68    30    31    1
    69    30    27    1
    70    18    17    1
    71    29    28    2
    72    17    11   am
    73    26    27    1
    74    35    36    2
    75    35    34    1
    76    27    28    1
    77    28    33   am
    78    12    11    2
    79    11    10    1
    80    33    34    1
    81    34    37    1
    82    10     9    1
    83    10    13    1
    84    40    42   ar
    85    40    38   ar
    86    15    14    2
    87    42    41   ar
    88    37    38    1
    89    14    13    1
    90    14    16   am
    91    38    39   ar
    92    41    39   ar
