@<TRIPOS>MOLECULE
tmp/4yxrA00.pdb
 106 99 0 0 0
SMALL
GASTEIGER

@<TRIPOS>ATOM
      1  N          8.6690   15.0520    8.2000 N.3    35  LEU35      -0.1245
      2  CA         8.4870   13.6200    8.4480 C.3    35  LEU35       0.1561
      3  C          9.6450   12.7710    7.9110 C.2    35  LEU35       0.2260
      4  O          9.6950   11.5580    8.1330 O.2    35  LEU35      -0.2867
      5  CB         7.1900   13.1520    7.7860 C.3    35  LEU35       0.0270
      6  CG         5.9130   13.9430    8.0980 C.3    35  LEU35       0.0019
      7  CD1        4.7880   13.4960    7.1780 C.3    35  LEU35       0.0001
      8  CD2        5.5360   13.7510    9.5510 C.3    35  LEU35       0.0001
      9  N         10.4070   15.7430    3.2430 N.3    43  VAL43      -0.1245
     10  CA         8.9850   15.4460    3.1430 C.3    43  VAL43       0.1561
     11  C          8.3720   16.0700    4.3920 C.2    43  VAL43       0.2260
     12  O          8.8700   15.8550    5.5000 O.2    43  VAL43      -0.2867
     13  CB         8.6960   13.9310    3.1340 C.3    43  VAL43       0.0252
     14  CG1        7.1920   13.6850    3.2850 C.3    43  VAL43       0.0019
     15  CG2        9.2030   13.3070    1.8360 C.3    43  VAL43       0.0019
     16  N          1.3400   14.6820    2.6270 N.3    56  ALA56      -0.1245
     17  CA         2.7820   14.6040    2.8020 C.3    56  ALA56       0.1562
     18  C          3.3330   15.3080    1.5720 C.2    56  ALA56       0.2260
     19  O          3.0850   14.8830    0.4380 O.2    56  ALA56      -0.2867
     20  CB         3.2410   13.1570    2.8270 C.3    56  ALA56       0.0290
     21  N          6.5270   16.3960   -0.5670 N.3    58  LYS58      -0.1245
     22  CA         7.9410   16.1660   -0.8360 C.3    58  LYS58       0.1561
     23  C          8.4980   17.3870   -1.5510 C.2    58  LYS58       0.2260
     24  O          8.0120   17.7810   -2.6140 O.2    58  LYS58      -0.2867
     25  CB         8.1250   14.9170   -1.7020 C.3    58  LYS58       0.0271
     26  CG         9.5720   14.4970   -1.9130 C.3    58  LYS58       0.0035
     27  CD         9.6280   13.1170   -2.5660 C.3    58  LYS58       0.0206
     28  CE        11.0540   12.6600   -2.8130 C.3    58  LYS58       0.1093
     29  NZ        11.0770   11.2300   -3.2580 N.3    58  LYS58      -0.1314
     30  N          1.3730    4.8880   -2.8430 N.3    90  VAL90      -0.1245
     31  CA         0.8990    6.1720   -2.3230 C.3    90  VAL90       0.1561
     32  C          0.3850    7.0450   -3.4740 C.2    90  VAL90       0.2260
     33  O          0.9700    7.0610   -4.5590 O.2    90  VAL90      -0.2867
     34  CB         1.9990    6.9190   -1.5090 C.3    90  VAL90       0.0252
     35  CG1        3.0290    7.5650   -2.4320 C.3    90  VAL90       0.0019
     36  CG2        1.3650    7.9650   -0.5930 C.3    90  VAL90       0.0019
     37  N          1.4440   14.1830   -1.7300 N.3   106  MET106     -0.1230
     38  CA         0.8610   12.8530   -1.7070 C.3   106  MET106      0.1702
     39  C          0.0010   12.6060   -0.4760 C.2   106  MET106      0.2592
     40  O          0.0510   13.3620    0.4950 O.2   106  MET106     -0.2718
     41  CB         1.9900   11.8100   -1.7560 C.3   106  MET106      0.0401
     42  CG         2.8850   11.9430   -2.9900 C.3   106  MET106      0.0596
     43  SD         4.5110   11.2310   -2.7610 S.3   106  MET106     -0.1393
     44  CE         5.3410   12.5790   -1.9210 C.3   106  MET106      0.0692
     45  N         -0.7860   11.5360   -0.5330 N.am  107  GLU107     -0.1966
     46  CA        -1.6500   11.1500    0.5730 C.3   107  GLU107      0.1733
     47  C         -0.7860   10.8650    1.8010 C.2   107  GLU107      0.2616
     48  O          0.2220   10.1620    1.7120 O.2   107  GLU107     -0.2715
     49  CB        -2.4460    9.9000    0.1980 C.3   107  GLU107      0.0429
     50  CG        -3.3910    9.4050    1.2830 C.3   107  GLU107      0.1163
     51  CD        -4.0470    8.0870    0.9090 C.2   107  GLU107      0.3649
     52  OE1       -3.7560    7.0620    1.5690 O.co2 107  GLU107     -0.2457
     53  OE2       -4.8340    8.0680   -0.0560 O.co2 107  GLU107     -0.2457
     54  N         -1.1820   11.4240    2.9380 N.am  108  TYR108     -0.1960
     55  CA        -0.4620   11.2390    4.1940 C.3   108  TYR108      0.1771
     56  C         -0.7370    9.8530    4.7870 C.2   108  TYR108      0.2619
     57  O         -1.8920    9.4500    4.9380 O.2   108  TYR108     -0.2715
     58  CB        -0.8690   12.3400    5.1840 C.3   108  TYR108      0.0574
     59  CG        -0.2410   12.2210    6.5490 C.ar  108  TYR108     -0.0198
     60  CD1        1.1110   11.9150    6.6920 C.ar  108  TYR108     -0.0009
     61  CD2       -1.0090   12.3750    7.7040 C.ar  108  TYR108     -0.0009
     62  CE1        1.6810   11.7540    7.9470 C.ar  108  TYR108      0.0417
     63  CE2       -0.4430   12.2190    8.9660 C.ar  108  TYR108      0.0417
     64  CZ         0.9000   11.9060    9.0760 C.ar  108  TYR108      0.1957
     65  OH         1.4640   11.7290   10.3120 O.3   108  TYR108     -0.2866
     66  N          0.3300    9.1090    5.0760 N.am  109  VAL109     -0.1977
     67  CA         0.2180    7.7700    5.6630 C.3   109  VAL109      0.1596
     68  C          0.7450    7.9070    7.0970 C.2   109  VAL109      0.2287
     69  O          1.9530    7.8390    7.3350 O.2   109  VAL109     -0.2864
     70  CB         1.0420    6.7310    4.8560 C.3   109  VAL109      0.0276
     71  CG1        0.7630    5.3260    5.3560 C.3   109  VAL109      0.0022
     72  CG2        0.7170    6.8320    3.3690 C.3   109  VAL109      0.0022
     73  N          5.3970    2.6200    4.1150 N.3   159  LEU159     -0.1245
     74  CA         4.6060    3.2010    5.1960 C.3   159  LEU159      0.1561
     75  C          3.4020    2.3410    5.5490 C.2   159  LEU159      0.2260
     76  O          2.8340    1.6600    4.6910 O.2   159  LEU159     -0.2867
     77  CB         4.1390    4.6000    4.8110 C.3   159  LEU159      0.0270
     78  CG         5.2110    5.6760    4.6750 C.3   159  LEU159      0.0019
     79  CD1        4.6160    6.7950    3.8890 C.3   159  LEU159      0.0001
     80  CD2        5.6860    6.1800    6.0300 C.3   159  LEU159      0.0001
     81  N          6.2340    4.1850   -1.0420 N.3   169  THR169     -0.1203
     82  CA         6.5630    5.5710   -1.3050 C.3   169  THR169      0.1994
     83  C          7.9390    5.6040   -1.9600 C.2   169  THR169      0.2617
     84  O          8.6330    4.5940   -2.0190 O.2   169  THR169     -0.2717
     85  CB         6.5840    6.4030    0.0000 C.3   169  THR169      0.1784
     86  OG1        7.6710    5.9800    0.8270 O.3   169  THR169     -0.2211
     87  CG2        5.2840    6.2060    0.7670 C.3   169  THR169      0.0376
     88  N          8.3230    6.7710   -2.4400 N.am  170  ASP170     -0.1973
     89  CA         9.6100    6.9760   -3.0880 C.3   170  ASP170      0.1709
     90  C          9.8150    6.2570   -4.4080 C.2   170  ASP170      0.2293
     91  O         10.2910    5.1080   -4.4690 O.2   170  ASP170     -0.2864
     92  CB        10.7780    6.6870   -2.1440 C.3   170  ASP170      0.1436
     93  CG        12.0440    7.4300   -2.5500 C.2   170  ASP170      0.3671
     94  OD1       12.0980    7.9430   -3.6900 O.co2 170  ASP170     -0.2456
     95  OD2       12.9730    7.5250   -1.7220 O.co2 170  ASP170     -0.2456
     96  N          6.2850    9.0110   13.7480 N.3   312  PHE312     -0.1241
     97  CA         7.4480    9.4630   12.9860 C.3   312  PHE312      0.1605
     98  C          8.4870   10.1120   13.8930 C.2   312  PHE312      0.2264
     99  O          8.1520   10.6720   14.9390 O.2   312  PHE312     -0.2867
    100  CB         7.0390   10.4820   11.9130 C.3   312  PHE312      0.0534
    101  CG         6.1860    9.9040   10.8190 C.ar  312  PHE312     -0.0203
    102  CD1        6.7710    9.3600    9.6820 C.ar  312  PHE312     -0.0042
    103  CD2        4.8000    9.8900   10.9320 C.ar  312  PHE312     -0.0042
    104  CE1        5.9930    8.8070    8.6760 C.ar  312  PHE312     -0.0003
    105  CE2        4.0120    9.3380    9.9280 C.ar  312  PHE312     -0.0003
    106  CZ         4.6100    8.7960    8.8000 C.ar  312  PHE312     -0.0000
@<TRIPOS>BOND
     1    33    32    2
     2    91    90    2
     3    90    89    1
     4    94    93   ar
     5    32    31    1
     6    29    28    1
     7    89    88    1
     8    89    92    1
     9    42    43    1
    10    42    41    1
    11    30    31    1
    12    28    27    1
    13    43    44    1
    14    24    23    2
    15    27    26    1
    16    93    92    1
    17    93    95   ar
    18    88    83   am
    19    35    34    1
    20    31    34    1
    21    84    83    2
    22    83    82    1
    23    26    25    1
    24    41    38    1
    25    37    38    1
    26    38    39    1
    27    25    22    1
    28    23    22    1
    29    34    36    1
    30    82    81    1
    31    82    85    1
    32    22    21    1
    33    45    39   am
    34    45    46    1
    35    39    40    2
    36    53    51   ar
    37    85    87    1
    38    85    86    1
    39    49    46    1
    40    49    50    1
    41    19    18    2
    42    46    47    1
    43    51    50    1
    44    51    52   ar
    45    18    17    1
    46    48    47    2
    47    47    54   am
    48    15    13    1
    49    16    17    1
    50    17    20    1
    51    54    55    1
    52    13    10    1
    53    13    14    1
    54    10     9    1
    55    10    11    1
    56    72    70    1
    57    79    78    1
    58    73    74    1
    59    55    56    1
    60    55    58    1
    61    11    12    2
    62    78    77    1
    63    78    80    1
    64    76    75    2
    65    56    57    2
    66    56    66   am
    67    77    74    1
    68    70    71    1
    69    70    67    1
    70    66    67    1
    71    58    59    1
    72    74    75    1
    73    67    68    1
    74    59    60   ar
    75    59    61   ar
    76    60    62   ar
    77    68    69    2
    78     7     6    1
    79    61    63   ar
    80     5     6    1
    81     5     2    1
    82     3     4    2
    83     3     2    1
    84    62    64   ar
    85     6     8    1
    86     1     2    1
    87   104   106   ar
    88   104   102   ar
    89   106   105   ar
    90    63    64   ar
    91    64    65    1
    92   102   101   ar
    93   105   103   ar
    94   101   103   ar
    95   101   100    1
    96   100    97    1
    97    97    96    1
    98    97    98    1
    99    98    99    2
