@<TRIPOS>MOLECULE
tmp/4yxsA01.pdb
 134 126 0 0 0
SMALL
GASTEIGER

@<TRIPOS>ATOM
      1  N         28.1840  -14.8550    8.2210 N.3    36  LEU36      -0.1231
      2  CA        28.4560  -13.4350    8.4230 C.3    36  LEU36       0.1693
      3  C         27.2210  -12.5480    8.1330 C.2    36  LEU36       0.2593
      4  O         27.1250  -11.4310    8.6570 O.2    36  LEU36      -0.2718
      5  CB        29.6180  -13.0200    7.4970 C.3    36  LEU36       0.0284
      6  CG        30.9930  -13.6940    7.7360 C.3    36  LEU36       0.0019
      7  CD1       31.9580  -13.3430    6.6240 C.3    36  LEU36       0.0001
      8  CD2       31.5930  -13.2820    9.0930 C.3    36  LEU36       0.0001
      9  N         26.3270  -13.0570    7.2830 N.am   37  GLY37      -0.1942
     10  CA        25.1060  -12.4070    6.8180 C.3    37  GLY37       0.2014
     11  C         24.3190  -13.3070    5.8810 C.2    37  GLY37       0.2639
     12  O         24.8740  -14.2620    5.3280 O.2    37  GLY37      -0.2714
     13  N         23.0090  -13.0300    5.7170 N.am   38  THR38      -0.1950
     14  CA        22.1060  -13.8500    4.8890 C.3    38  THR38       0.1897
     15  C         21.4390  -13.0940    3.7410 C.2    38  THR38       0.2313
     16  O         21.6770  -11.8890    3.5640 O.2    38  THR38      -0.2863
     17  CB        21.0710  -14.6140    5.7490 C.3    38  THR38       0.1794
     18  OG1       20.3780  -13.6880    6.5800 O.3    38  THR38      -0.2208
     19  CG2       21.6900  -15.7420    6.5760 C.3    38  THR38       0.0378
     20  N         26.2920  -15.6540    3.2490 N.3    44  VAL44      -0.1245
     21  CA        27.6920  -15.2770    3.1200 C.3    44  VAL44       0.1561
     22  C         28.3560  -15.8770    4.3720 C.2    44  VAL44       0.2260
     23  O         27.9740  -15.5530    5.5030 O.2    44  VAL44      -0.2867
     24  CB        27.9700  -13.7670    2.9590 C.3    44  VAL44       0.0252
     25  CG1       29.4740  -13.4860    3.0420 C.3    44  VAL44       0.0019
     26  CG2       27.3960  -13.2370    1.6400 C.3    44  VAL44       0.0019
     27  N         35.2730  -14.6980    2.7010 N.3    57  ALA57      -0.1245
     28  CA        33.8270  -14.6000    2.8570 C.3    57  ALA57       0.1562
     29  C         33.2380  -15.2230    1.5990 C.2    57  ALA57       0.2260
     30  O         33.4490  -14.7230    0.4910 O.2    57  ALA57      -0.2867
     31  CB        33.4000  -13.1540    2.9870 C.3    57  ALA57       0.0290
     32  N         35.1170   -4.8430   -2.7980 N.3    91  VAL91      -0.1245
     33  CA        35.5880   -6.1320   -2.2740 C.3    91  VAL91       0.1561
     34  C         36.1370   -7.0030   -3.4460 C.2    91  VAL91       0.2260
     35  O         35.5550   -6.9990   -4.5430 O.2    91  VAL91      -0.2867
     36  CB        34.5000   -6.8410   -1.4140 C.3    91  VAL91       0.0252
     37  CG1       33.4180   -7.5170   -2.2780 C.3    91  VAL91       0.0019
     38  CG2       35.1250   -7.8430   -0.4620 C.3    91  VAL91       0.0019
     39  N         35.1150  -14.2500   -1.6570 N.3   107  MET107     -0.1230
     40  CA        35.5970  -12.8830   -1.6340 C.3   107  MET107      0.1702
     41  C         36.5190  -12.6180   -0.4590 C.2   107  MET107      0.2592
     42  O         36.5390  -13.3860    0.4910 O.2   107  MET107     -0.2718
     43  CB        34.4030  -11.9000   -1.5840 C.3   107  MET107      0.0401
     44  CG        33.4280  -12.0350   -2.7650 C.3   107  MET107      0.0596
     45  SD        31.9250  -11.1030   -2.3850 S.3   107  MET107     -0.1393
     46  CE        31.0570  -12.2720   -1.3320 C.3   107  MET107      0.0692
     47  N         37.2570  -11.4960   -0.5200 N.am  108  GLU108     -0.1966
     48  CA        38.1270  -11.0670    0.5720 C.3   108  GLU108      0.1733
     49  C         37.2460  -10.8940    1.8200 C.2   108  GLU108      0.2616
     50  O         36.1380  -10.3440    1.7310 O.2   108  GLU108     -0.2715
     51  CB        38.8080   -9.7350    0.1980 C.3   108  GLU108      0.0429
     52  CG        39.8440   -9.2680    1.2080 C.3   108  GLU108      0.1163
     53  CD        40.6520   -8.0630    0.7700 C.2   108  GLU108      0.3649
     54  OE1       40.6440   -7.0500    1.5060 O.co2 108  GLU108     -0.2457
     55  OE2       41.2310   -8.1030   -0.3410 O.co2 108  GLU108     -0.2457
     56  N         37.7070  -11.4310    2.9600 N.am  109  TYR109     -0.1960
     57  CA        36.9950  -11.3020    4.2240 C.3   109  TYR109      0.1771
     58  C         37.2740   -9.9070    4.8290 C.2   109  TYR109      0.2619
     59  O         38.4320   -9.5050    4.9730 O.2   109  TYR109     -0.2715
     60  CB        37.3530  -12.4450    5.1950 C.3   109  TYR109      0.0574
     61  CG        36.7790  -12.2650    6.5870 C.ar  109  TYR109     -0.0198
     62  CD1       35.4250  -11.9910    6.7750 C.ar  109  TYR109     -0.0009
     63  CD2       37.5850  -12.3810    7.7170 C.ar  109  TYR109     -0.0009
     64  CE1       34.8990  -11.7890    8.0480 C.ar  109  TYR109      0.0417
     65  CE2       37.0600  -12.2080    9.0010 C.ar  109  TYR109      0.0417
     66  CZ        35.7110  -11.9250    9.1580 C.ar  109  TYR109      0.1957
     67  OH        35.1570  -11.7650   10.3990 O.3   109  TYR109     -0.2866
     68  N         36.1910   -9.1590    5.1430 N.am  110  VAL110     -0.1977
     69  CA        36.2730   -7.8130    5.7170 C.3   110  VAL110      0.1596
     70  C         35.8500   -7.9270    7.1860 C.2   110  VAL110      0.2287
     71  O         34.6560   -7.9610    7.4670 O.2   110  VAL110     -0.2864
     72  CB        35.4490   -6.7860    4.9000 C.3   110  VAL110      0.0276
     73  CG1       35.7160   -5.3680    5.3860 C.3   110  VAL110      0.0022
     74  CG2       35.7540   -6.8950    3.4020 C.3   110  VAL110      0.0022
     75  N         29.7380   -4.5760    9.1040 N.3   114  GLU114     -0.1245
     76  CA        28.9780   -3.6360    8.2830 C.3   114  GLU114      0.1567
     77  C         28.9570   -2.2510    8.8850 C.2   114  GLU114      0.2260
     78  O         28.8160   -2.1090   10.1060 O.2   114  GLU114     -0.2867
     79  CB        27.5190   -4.0960    8.1300 C.3   114  GLU114      0.0388
     80  CG        27.3450   -5.4420    7.4660 C.3   114  GLU114      0.1160
     81  CD        25.9470   -6.0150    7.5790 C.2   114  GLU114      0.3649
     82  OE1       25.0190   -5.2750    7.9800 O.co2 114  GLU114     -0.2457
     83  OE2       25.7820   -7.2140    7.2660 O.co2 114  GLU114     -0.2457
     84  N         24.2470   -1.3780    5.0440 N.3   157  GLU157     -0.1231
     85  CA        24.2720   -2.8390    5.1200 C.3   157  GLU157      0.1699
     86  C         25.3290   -3.4190    4.1580 C.2   157  GLU157      0.2592
     87  O         25.9780   -4.4210    4.4930 O.2   157  GLU157     -0.2718
     88  CB        22.8820   -3.4160    4.7370 C.3   157  GLU157      0.0402
     89  CG        21.7880   -3.1600    5.7680 C.3   157  GLU157      0.1161
     90  CD        20.9660   -1.8990    5.5830 C.2   157  GLU157      0.3649
     91  OE1       21.5510   -0.8400    5.2690 O.co2 157  GLU157     -0.2457
     92  OE2       19.7490   -1.9470    5.8590 O.co2 157  GLU157     -0.2457
     93  N         25.5070   -2.7790    2.9790 N.am  158  ASN158     -0.1974
     94  CA        26.4390   -3.2640    1.9330 C.3   158  ASN158      0.1688
     95  C         27.8340   -2.6700    1.9800 C.2   158  ASN158      0.2292
     96  O         28.6710   -2.9800    1.1210 O.2   158  ASN158     -0.2864
     97  CB        25.8120   -3.0840    0.5360 C.3   158  ASN158      0.1181
     98  CG        24.6480   -4.0110    0.2920 C.2   158  ASN158      0.2629
     99  OD1       24.4750   -4.9910    0.9930 O.2   158  ASN158     -0.2716
    100  ND2       23.7840   -3.6970   -0.6760 N.am  158  ASN158     -0.0877
    101  N         31.1960   -2.5070    4.0070 N.3   160  LEU160     -0.1245
    102  CA        31.9720   -3.1310    5.0710 C.3   160  LEU160      0.1561
    103  C         33.1630   -2.2600    5.4820 C.2   160  LEU160      0.2260
    104  O         33.6630   -1.4740    4.6750 O.2   160  LEU160     -0.2867
    105  CB        32.3990   -4.5530    4.6750 C.3   160  LEU160      0.0270
    106  CG        31.2960   -5.4830    4.1430 C.3   160  LEU160      0.0019
    107  CD1       31.8950   -6.6130    3.4180 C.3   160  LEU160      0.0001
    108  CD2       30.4070   -6.0000    5.2370 C.3   160  LEU160      0.0001
    109  N         30.2320   -4.2880   -0.8720 N.3   170  THR170     -0.1203
    110  CA        29.8740   -5.6880   -1.1000 C.3   170  THR170      0.1994
    111  C         28.4790   -5.7760   -1.7480 C.2   170  THR170      0.2617
    112  O         27.7390   -4.7850   -1.7500 O.2   170  THR170     -0.2717
    113  CB        30.0260   -6.5060    0.2140 C.3   170  THR170      0.1784
    114  OG1       30.1040   -7.8910   -0.1070 O.3   170  THR170     -0.2211
    115  CG2       28.8850   -6.2850    1.1980 C.3   170  THR170      0.0376
    116  N         28.1100   -6.9710   -2.2350 N.am  171  ASP171     -0.1973
    117  CA        26.8110   -7.2900   -2.8360 C.3   171  ASP171      0.1709
    118  C         26.5730   -6.5800   -4.1650 C.2   171  ASP171      0.2293
    119  O         26.1190   -5.4260   -4.1980 O.2   171  ASP171     -0.2864
    120  CB        25.6290   -7.0990   -1.8430 C.3   171  ASP171      0.1436
    121  CG        24.3120   -7.7540   -2.2530 C.2   171  ASP171      0.3671
    122  OD1       24.1360   -8.0480   -3.4570 O.co2 171  ASP171     -0.2456
    123  OD2       23.4970   -8.0450   -1.3580 O.co2 171  ASP171     -0.2456
    124  N         30.1740   -8.8780   13.6110 N.3   313  PHE313     -0.1241
    125  CA        29.0050   -9.3360   12.8680 C.3   313  PHE313      0.1605
    126  C         28.0400  -10.0030   13.8110 C.2   313  PHE313      0.2264
    127  O         28.4630  -10.6820   14.7590 O.2   313  PHE313     -0.2867
    128  CB        29.4180  -10.3650   11.7950 C.3   313  PHE313      0.0534
    129  CG        30.2840   -9.8190   10.6830 C.ar  313  PHE313     -0.0203
    130  CD1       29.7160   -9.3470    9.5080 C.ar  313  PHE313     -0.0042
    131  CD2       31.6700   -9.7670   10.8180 C.ar  313  PHE313     -0.0042
    132  CE1       30.5150   -8.8160    8.4910 C.ar  313  PHE313     -0.0003
    133  CE2       32.4720   -9.2570    9.7880 C.ar  313  PHE313     -0.0003
    134  CZ        31.8860   -8.7850    8.6330 C.ar  313  PHE313     -0.0000
@<TRIPOS>BOND
     1    35    34    2
     2   119   118    2
     3   118   117    1
     4   122   121   ar
     5    34    33    1
     6   117   116    1
     7   117   120    1
     8    32    33    1
     9    44    45    1
    10    44    43    1
    11    45    46    1
    12    37    36    1
    13    33    36    1
    14   121   120    1
    15   121   123   ar
    16   116   111   am
    17   112   111    2
    18   111   110    1
    19    39    40    1
    20    40    43    1
    21    40    41    1
    22    36    38    1
    23   110   109    1
    24   110   113    1
    25   100    98   am
    26    47    41   am
    27    47    48    1
    28    41    42    2
    29    55    53   ar
    30   114   113    1
    31    51    48    1
    32    51    52    1
    33   113   115    1
    34    98    97    1
    35    98    99    2
    36    30    29    2
    37    97    94    1
    38    48    49    1
    39    53    52    1
    40    53    54   ar
    41    96    95    2
    42    29    28    1
    43    26    24    1
    44    50    49    2
    45    49    56   am
    46    94    95    1
    47    94    93    1
    48    27    28    1
    49    28    31    1
    50    24    25    1
    51    24    21    1
    52    56    57    1
    53    93    86   am
    54    21    20    1
    55    21    22    1
    56    74    72    1
    57   107   106    1
    58    16    15    2
    59    15    14    1
    60   101   102    1
    61   106   105    1
    62   106   108    1
    63    86    87    2
    64    86    85    1
    65    57    58    1
    66    57    60    1
    67    22    23    2
    68   104   103    2
    69   105   102    1
    70    88    85    1
    71    88    89    1
    72    58    59    2
    73    58    68   am
    74    14    13    1
    75    14    17    1
    76    72    73    1
    77    72    69    1
    78    84    85    1
    79   102   103    1
    80    68    69    1
    81    60    61    1
    82    91    90   ar
    83    12    11    2
    84    90    89    1
    85    90    92   ar
    86    13    11   am
    87    69    70    1
    88    17    19    1
    89    17    18    1
    90    11    10    1
    91    61    62   ar
    92    61    63   ar
    93     7     6    1
    94    62    64   ar
    95    10     9    1
    96    70    71    2
    97    83    81   ar
    98     9     3   am
    99    80    81    1
   100    80    79    1
   101     5     6    1
   102     5     2    1
   103    81    82   ar
   104    63    65   ar
   105     6     8    1
   106    64    66   ar
   107    79    76    1
   108     3     2    1
   109     3     4    2
   110     1     2    1
   111    76    77    1
   112    76    75    1
   113   132   134   ar
   114   132   130   ar
   115   134   133   ar
   116    77    78    2
   117    65    66   ar
   118    66    67    1
   119   130   129   ar
   120   133   131   ar
   121   129   131   ar
   122   129   128    1
   123   128   125    1
   124   125   124    1
   125   125   126    1
   126   126   127    2
