@<TRIPOS>MOLECULE
tmp/4yxuA02.pdb
 128 125 0 0 0
SMALL
GASTEIGER

@<TRIPOS>ATOM
      1  N         -9.2130    9.1110   81.2890 N.3    90  GLN90      -0.1245
      2  CA        -8.9120    7.9510   80.4500 C.3    90  GLN90       0.1566
      3  C         -9.1660    6.6620   81.2110 C.2    90  GLN90       0.2260
      4  O         -9.2070    6.6640   82.4410 O.2    90  GLN90      -0.2867
      5  CB        -7.4600    7.9740   79.9460 C.3    90  GLN90       0.0367
      6  CG        -6.4210    8.0780   81.0530 C.3    90  GLN90       0.0905
      7  CD        -5.6120    6.8060   81.2650 C.2    90  GLN90       0.2608
      8  OE1       -6.1360    5.6960   81.2300 O.2    90  GLN90      -0.2717
      9  NE2       -4.3240    6.9750   81.5300 N.am   90  GLN90      -0.0878
     10  N         -7.7420    2.3580   80.9380 N.3    92  HIS92      -0.1241
     11  CA        -6.8620    1.3770   80.3290 C.3    92  HIS92       0.1621
     12  C         -6.9300    0.1110   81.1740 C.2    92  HIS92       0.2264
     13  O         -7.5650    0.0940   82.2440 O.2    92  HIS92      -0.2867
     14  CB        -5.4240    1.8920   80.2950 C.3    92  HIS92       0.0745
     15  CG        -4.8730    2.1550   81.6570 C.ar   92  HIS92       0.0817
     16  ND1       -5.0250    3.3640   82.3000 N.ar   92  HIS92      -0.2268
     17  CD2       -4.2490    1.3360   82.5380 C.ar   92  HIS92       0.1154
     18  CE1       -4.4800    3.2910   83.5030 C.ar   92  HIS92       0.1986
     19  NE2       -4.0040    2.0710   83.6720 N.ar   92  HIS92      -0.2212
     20  N         -4.6190   -3.6170   82.5100 N.3    94  HIS94      -0.1241
     21  CA        -3.4080   -4.4180   82.6560 C.3    94  HIS94       0.1621
     22  C         -3.8610   -5.8690   82.5670 C.2    94  HIS94       0.2264
     23  O         -4.9330   -6.2120   83.0720 O.2    94  HIS94      -0.2867
     24  CB        -2.7500   -4.1690   84.0160 C.3    94  HIS94       0.0745
     25  CG        -2.4630   -2.7250   84.2840 C.ar   94  HIS94       0.0817
     26  ND1       -1.2210   -2.1590   84.0970 N.ar   94  HIS94      -0.2268
     27  CD2       -3.2770   -1.7180   84.6790 C.ar   94  HIS94       0.1154
     28  CE1       -1.2780   -0.8710   84.3920 C.ar   94  HIS94       0.1986
     29  NE2       -2.5170   -0.5740   84.7360 N.ar   94  HIS94      -0.2212
     30  N         -8.5460    0.1870   84.9050 N.3   117  HIS117     -0.1241
     31  CA        -8.3020    1.4230   85.6470 C.3   117  HIS117      0.1621
     32  C         -8.9850    2.5960   84.9650 C.2   117  HIS117      0.2264
     33  O         -8.6270    2.9550   83.8320 O.2   117  HIS117     -0.2867
     34  CB        -6.8020    1.6930   85.7400 C.3   117  HIS117      0.0745
     35  CG        -6.0990    0.7310   86.6290 C.ar  117  HIS117      0.0817
     36  ND1       -4.7390    0.5070   86.5960 N.ar  117  HIS117     -0.2268
     37  CD2       -6.6000   -0.0850   87.5850 C.ar  117  HIS117      0.1154
     38  CE1       -4.4350   -0.4040   87.5040 C.ar  117  HIS117      0.1986
     39  NE2       -5.5440   -0.7760   88.1180 N.ar  117  HIS117     -0.2212
     40  N         -9.2650    6.4260   85.2750 N.3   119  VAL119     -0.1245
     41  CA        -8.3980    7.4320   85.8760 C.3   119  VAL119      0.1561
     42  C         -9.0870    8.7900   85.9150 C.2   119  VAL119      0.2260
     43  O         -9.5970    9.2500   84.8920 O.2   119  VAL119     -0.2867
     44  CB        -7.0820    7.5360   85.0670 C.3   119  VAL119      0.0252
     45  CG1       -6.1310    8.5690   85.6790 C.3   119  VAL119      0.0019
     46  CG2       -6.4120    6.1690   84.9470 C.3   119  VAL119      0.0019
     47  N         -4.7150   18.0960   84.8540 N.3   128  PHE128     -0.1241
     48  CA        -4.1410   16.8230   85.2520 C.3   128  PHE128      0.1605
     49  C         -2.6900   16.9820   85.7020 C.2   128  PHE128      0.2264
     50  O         -2.2680   16.3690   86.6800 O.2   128  PHE128     -0.2867
     51  CB        -4.2340   15.8340   84.0880 C.3   128  PHE128      0.0534
     52  CG        -3.6790   14.4730   84.3970 C.ar  128  PHE128     -0.0203
     53  CD1       -4.4960   13.4770   84.8990 C.ar  128  PHE128     -0.0042
     54  CD2       -2.3440   14.1820   84.1730 C.ar  128  PHE128     -0.0042
     55  CE1       -3.9910   12.2190   85.1810 C.ar  128  PHE128     -0.0003
     56  CE2       -1.8370   12.9310   84.4580 C.ar  128  PHE128     -0.0003
     57  CZ        -2.6640   11.9480   84.9600 C.ar  128  PHE128     -0.0000
     58  N         -1.1980   15.8680   89.5240 N.3   132  VAL132     -0.1245
     59  CA        -0.1710   14.8800   89.8630 C.3   132  VAL132      0.1561
     60  C          1.0130   15.4620   90.6420 C.2   132  VAL132      0.2260
     61  O          2.0630   14.8290   90.7700 O.2   132  VAL132     -0.2867
     62  CB         0.3200   14.0840   88.6330 C.3   132  VAL132      0.0252
     63  CG1       -0.8520   13.3810   87.9760 C.3   132  VAL132      0.0019
     64  CG2        1.0500   14.9810   87.6360 C.3   132  VAL132      0.0019
     65  N         -8.3420    6.6060   91.1280 N.3   140  VAL140     -0.1245
     66  CA        -8.4470    5.5560   90.1300 C.3   140  VAL140      0.1561
     67  C         -9.4300    4.5030   90.6250 C.2   140  VAL140      0.2260
     68  O         -9.3100    3.9880   91.7420 O.2   140  VAL140     -0.2867
     69  CB        -7.0830    4.9250   89.7620 C.3   140  VAL140      0.0252
     70  CG1       -7.2660    3.8880   88.6670 C.3   140  VAL140      0.0019
     71  CG2       -6.1000    5.9950   89.2970 C.3   140  VAL140      0.0019
     72  N          0.4700    5.9330   91.2720 N.3   195  LEU195     -0.1231
     73  CA         0.4560    5.3680   89.9270 C.3   195  LEU195      0.1693
     74  C          1.2040    4.0350   89.9590 C.2   195  LEU195      0.2593
     75  O          2.2050    3.8860   90.6740 O.2   195  LEU195     -0.2718
     76  CB         1.1600    6.3040   88.9430 C.3   195  LEU195      0.0284
     77  CG         0.6140    7.7220   88.8090 C.3   195  LEU195      0.0019
     78  CD1        1.5150    8.5290   87.8710 C.3   195  LEU195      0.0001
     79  CD2       -0.8210    7.7090   88.3090 C.3   195  LEU195      0.0001
     80  N          0.7600    3.0750   89.1590 N.am  196  THR196     -0.1939
     81  CA         1.4010    1.7620   89.1430 C.3   196  THR196      0.2028
     82  C          2.4360    1.6170   88.0290 C.2   196  THR196      0.2643
     83  O          3.0380    0.5570   87.8840 O.2   196  THR196     -0.2714
     84  CB         0.3860    0.6210   89.0040 C.3   196  THR196      0.1808
     85  OG1       -0.1910    0.6880   87.6970 O.3   196  THR196     -0.2208
     86  CG2       -0.6920    0.6890   90.0820 C.3   196  THR196      0.0379
     87  N          2.6450    2.6750   87.2500 N.am  197  THR197     -0.1937
     88  CA         3.7430    2.7150   86.2860 C.3   197  THR197      0.2013
     89  C          4.5650    3.9570   86.5760 C.2   197  THR197      0.2484
     90  O          4.0640    4.9000   87.1960 O.2   197  THR197     -0.2729
     91  CB         3.2760    2.7980   84.8040 C.3   197  THR197      0.1807
     92  OG1        2.8230    4.1230   84.5070 O.3   197  THR197     -0.2208
     93  CG2        2.1750    1.8070   84.4980 C.3   197  THR197      0.0379
     94  N          5.8260    3.9760   86.1250 N.am  198  PRO198     -0.2715
     95  CA         6.5670    5.2410   86.1540 C.3   198  PRO198      0.1521
     96  C          5.6910    6.3500   85.5640 C.2   198  PRO198      0.2440
     97  O          4.9950    6.1120   84.5690 O.2   198  PRO198     -0.2731
     98  CB         7.7890    4.9350   85.2840 C.3   198  PRO198      0.0310
     99  CG         8.0230    3.4760   85.5260 C.3   198  PRO198      0.0237
    100  CD         6.6380    2.8760   85.5750 C.3   198  PRO198      0.0939
    101  N          5.7090    7.5480   86.1630 N.am  199  PRO199     -0.2727
    102  CA         6.5890    7.9950   87.2530 C.3   199  PRO199      0.1402
    103  C          6.2240    7.5900   88.7020 C.2   199  PRO199      0.2269
    104  O          6.8820    8.0900   89.6200 O.2   199  PRO199     -0.2865
    105  CB         6.5690    9.5200   87.0950 C.3   199  PRO199      0.0296
    106  CG         5.2300    9.8060   86.5230 C.3   199  PRO199      0.0237
    107  CD         4.9130    8.6590   85.6090 C.3   199  PRO199      0.0939
    108  N         -2.6200    9.1170   94.3560 N.3   204  VAL204     -0.1245
    109  CA        -3.8490    8.4110   94.0140 C.3   204  VAL204      0.1561
    110  C         -4.6370    7.9390   95.2290 C.2   204  VAL204      0.2260
    111  O         -4.0820    7.2930   96.1190 O.2   204  VAL204     -0.2867
    112  CB        -3.5490    7.1700   93.1430 C.3   204  VAL204      0.0252
    113  CG1       -4.8330    6.4670   92.7330 C.3   204  VAL204      0.0019
    114  CG2       -2.7390    7.5510   91.9070 C.3   204  VAL204      0.0019
    115  N         -7.0760    5.1430   95.6920 N.3   206  TRP206     -0.1241
    116  CA        -7.5150    3.9360   94.9960 C.3   206  TRP206      0.1605
    117  C         -8.8670    3.5010   95.5080 C.2   206  TRP206      0.2264
    118  O         -9.0810    3.4540   96.7250 O.2   206  TRP206     -0.2867
    119  CB        -6.4980    2.8010   95.1870 C.3   206  TRP206      0.0550
    120  CG        -5.3880    2.9180   94.2190 C.ar  206  TRP206      0.0003
    121  CD1       -4.1680    3.5040   94.4140 C.ar  206  TRP206      0.0946
    122  CD2       -5.4230    2.5060   92.8530 C.ar  206  TRP206      0.0152
    123  NE1       -3.4360    3.4620   93.2510 N.ar  206  TRP206     -0.2442
    124  CE2       -4.1840    2.8440   92.2830 C.ar  206  TRP206      0.0810
    125  CE3       -6.3740    1.8470   92.0630 C.ar  206  TRP206      0.0012
    126  CZ2       -3.8860    2.5760   90.9500 C.ar  206  TRP206      0.0191
    127  CZ3       -6.0700    1.5680   90.7560 C.ar  206  TRP206      0.0001
    128  CH2       -4.8360    1.9330   90.2100 C.ar  206  TRP206      0.0015
@<TRIPOS>BOND
     1     5     2    1
     2     5     6    1
     3    14    11    1
     4    14    15    1
     5    11    10    1
     6    11    12    1
     7     2     3    1
     8     2     1    1
     9     6     7    1
    10    12    13    2
    11     3     4    2
    12     8     7    2
    13     7     9   am
    14    15    16   ar
    15    15    17   ar
    16    16    18   ar
    17    20    21    1
    18    17    19   ar
    19    22    21    1
    20    22    23    2
    21    21    24    1
    22    18    19   ar
    23    33    32    2
    24    24    25    1
    25    51    52    1
    26    51    48    1
    27    26    25   ar
    28    26    28   ar
    29    54    52   ar
    30    54    56   ar
    31    25    27   ar
    32    28    29   ar
    33    52    53   ar
    34    56    57   ar
    35    93    91    1
    36    92    91    1
    37    97    96    2
    38    27    29   ar
    39    91    88    1
    40    47    48    1
    41    43    42    2
    42    53    55   ar
    43    30    31    1
    44    46    44    1
    45    57    55   ar
    46    32    31    1
    47    44    45    1
    48    44    41    1
    49    48    49    1
    50    40    41    1
    51    98    99    1
    52    98    95    1
    53    99   100    1
    54    96    95    1
    55    96   101   am
    56   100    94    1
    57   107   101    1
    58   107   106    1
    59    31    34    1
    60    49    50    2
    61    34    35    1
    62    41    42    1
    63    94    95    1
    64    94    89   am
    65   101   102    1
    66    88    89    1
    67    88    87    1
    68   106   105    1
    69    89    90    2
    70    36    35   ar
    71    36    38   ar
    72    35    37   ar
    73   105   102    1
    74    87    82   am
    75   102   103    1
    76    38    39   ar
    77    37    39   ar
    78    64    62    1
    79    85    84    1
    80    78    77    1
    81    83    82    2
    82    63    62    1
    83    82    81    1
    84    79    77    1
    85    62    59    1
    86    70    69    1
    87   103   104    2
    88    77    76    1
    89    76    73    1
    90    84    81    1
    91    84    86    1
    92    81    80    1
    93    80    74   am
    94    71    69    1
    95    58    59    1
    96    69    66    1
    97    59    60    1
    98    73    74    1
    99    73    72    1
   100    74    75    2
   101    66    67    1
   102    66    65    1
   103   128   127   ar
   104   128   126   ar
   105    67    68    2
   106    60    61    2
   107   127   125   ar
   108   126   124   ar
   109   114   112    1
   110   125   122   ar
   111   124   122   ar
   112   124   123   ar
   113   113   112    1
   114   122   120   ar
   115   112   109    1
   116   123   121   ar
   117   109   108    1
   118   109   110    1
   119   120   121   ar
   120   120   119    1
   121   116   119    1
   122   116   117    1
   123   116   115    1
   124   110   111    2
   125   117   118    2
