@<TRIPOS>MOLECULE
tmp/4yy6A00.pdb
 153 151 0 0 0
SMALL
GASTEIGER

@<TRIPOS>ATOM
      1  N        -25.1060  -23.1260    7.1900 N.3    21  HIS21      -0.1241
      2  CA       -26.4750  -22.9800    6.5860 C.3    21  HIS21       0.1621
      3  C        -26.4230  -22.5120    5.1280 C.2    21  HIS21       0.2264
      4  O        -27.4360  -22.5220    4.4580 O.2    21  HIS21      -0.2867
      5  CB       -27.2960  -21.9790    7.3700 C.3    21  HIS21       0.0745
      6  CG       -27.6930  -22.4490    8.7190 C.ar   21  HIS21       0.0817
      7  ND1      -28.8740  -23.1240    8.9250 N.ar   21  HIS21      -0.2268
      8  CD2      -27.0920  -22.2850    9.9120 C.ar   21  HIS21       0.1154
      9  CE1      -28.9830  -23.3610   10.2310 C.ar   21  HIS21       0.1986
     10  NE2      -27.8900  -22.9100   10.8390 N.ar   21  HIS21      -0.2212
     11  N        -25.8960  -19.3710    3.9820 N.3    23  PHE23      -0.1227
     12  CA       -26.4270  -18.0100    3.7310 C.3    23  PHE23       0.1736
     13  C        -25.5230  -17.2070    2.7960 C.2    23  PHE23       0.2595
     14  O        -26.0490  -16.2850    2.1340 O.2    23  PHE23      -0.2718
     15  CB       -26.6470  -17.2980    5.0860 C.3    23  PHE23       0.0547
     16  CG       -27.6380  -18.0130    5.9910 C.ar   23  PHE23      -0.0202
     17  CD1      -28.7490  -18.7270    5.5290 C.ar   23  PHE23      -0.0042
     18  CD2      -27.3350  -17.9620    7.3170 C.ar   23  PHE23      -0.0042
     19  CE1      -29.6290  -19.3780    6.4140 C.ar   23  PHE23      -0.0003
     20  CE2      -28.2150  -18.5570    8.1940 C.ar   23  PHE23      -0.0003
     21  CZ       -29.3220  -19.2920    7.7310 C.ar   23  PHE23      -0.0000
     22  N        -24.2240  -17.5380    2.7990 N.am   24  PHE24      -0.1976
     23  CA       -23.2560  -16.7320    1.9620 C.3    24  PHE24       0.1639
     24  C        -22.8830  -17.5810    0.7250 C.2    24  PHE24       0.2290
     25  O        -21.9190  -17.2000    0.0430 O.2    24  PHE24      -0.2864
     26  CB       -21.9830  -16.4370    2.7900 C.3    24  PHE24       0.0560
     27  CG       -22.1610  -15.4150    3.8470 C.ar   24  PHE24      -0.0200
     28  CD1      -22.1900  -14.0910    3.5320 C.ar   24  PHE24      -0.0042
     29  CD2      -22.3000  -15.8000    5.2110 C.ar   24  PHE24      -0.0042
     30  CE1      -22.2930  -13.1000    4.5000 C.ar   24  PHE24      -0.0003
     31  CE2      -22.4470  -14.8080    6.2110 C.ar   24  PHE24      -0.0003
     32  CZ       -22.4200  -13.4770    5.8190 C.ar   24  PHE24      -0.0000
     33  N        -27.1490  -12.8680   -3.3860 N.3    28  VAL28      -0.1245
     34  CA       -28.4790  -12.4250   -2.9400 C.3    28  VAL28       0.1561
     35  C        -29.2390  -11.8900   -4.1580 C.2    28  VAL28       0.2260
     36  O        -28.5830  -11.3940   -5.1300 O.2    28  VAL28      -0.2867
     37  CB       -28.2440  -11.3050   -1.8820 C.3    28  VAL28       0.0252
     38  CG1      -29.5870  -10.8430   -1.3780 C.3    28  VAL28       0.0019
     39  CG2      -27.4270  -11.8980   -0.6680 C.3    28  VAL28       0.0019
     40  N        -35.5070  -10.5290   -5.0000 N.3    31  ALA31      -0.1231
     41  CA       -36.6470  -11.3260   -4.5920 C.3    31  ALA31       0.1694
     42  C        -36.4430  -11.8560   -3.2010 C.2    31  ALA31       0.2592
     43  O        -37.4270  -11.8750   -2.4320 O.2    31  ALA31      -0.2718
     44  CB       -36.9010  -12.4550   -5.5790 C.3    31  ALA31       0.0304
     45  N        -35.2420  -12.3220   -2.8840 N.am   32  ILE32      -0.1966
     46  CA       -34.9520  -12.8300   -1.5450 C.3    32  ILE32       0.1727
     47  C        -34.9080  -11.6710   -0.5460 C.2    32  ILE32       0.2616
     48  O        -35.1850  -11.8960    0.6060 O.2    32  ILE32      -0.2715
     49  CB       -33.5620  -13.6160   -1.5680 C.3    32  ILE32       0.0290
     50  CG1      -33.7040  -14.8610   -2.4620 C.3    32  ILE32       0.0022
     51  CG2      -33.0680  -13.9650   -0.1560 C.3    32  ILE32       0.0023
     52  CD1      -32.3390  -15.5030   -2.8150 C.3    32  ILE32       0.0001
     53  N        -34.3670  -10.5230   -0.9330 N.am   33  ALA33      -0.1964
     54  CA       -33.9360   -9.4920   -0.0140 C.3    33  ALA33       0.1713
     55  C        -34.4460   -8.1910   -0.6540 C.2    33  ALA33       0.2458
     56  O        -33.7220   -7.5160   -1.4250 O.2    33  ALA33      -0.2730
     57  CB       -32.4530   -9.4670    0.1430 C.3    33  ALA33       0.0333
     58  N        -35.6830   -7.7660   -0.3540 N.am   34  PRO34      -0.2727
     59  CA       -36.2640   -6.5840   -0.9580 C.3    34  PRO34       0.1402
     60  C        -35.3330   -5.4170   -0.8650 C.2    34  PRO34       0.2269
     61  O        -34.7020   -5.1240    0.1500 O.2    34  PRO34      -0.2865
     62  CB       -37.5910   -6.3640   -0.1710 C.3    34  PRO34       0.0296
     63  CG       -37.9810   -7.8110    0.1680 C.3    34  PRO34       0.0237
     64  CD       -36.6580   -8.4900    0.5290 C.3    34  PRO34       0.0939
     65  N        -32.3850   -5.0300   -2.1760 N.3    36  TYR36      -0.1241
     66  CA       -30.9540   -5.2130   -1.9520 C.3    36  TYR36       0.1605
     67  C        -30.0750   -4.4550   -2.9340 C.2    36  TYR36       0.2264
     68  O        -29.0790   -3.7920   -2.5410 O.2    36  TYR36      -0.2867
     69  CB       -30.7090   -6.7450   -2.0280 C.3    36  TYR36       0.0534
     70  CG       -29.3050   -7.1650   -1.6150 C.ar   36  TYR36      -0.0201
     71  CD1      -29.0630   -7.4550   -0.2360 C.ar   36  TYR36      -0.0009
     72  CD2      -28.2210   -7.2640   -2.5030 C.ar   36  TYR36      -0.0009
     73  CE1      -27.8200   -7.7910    0.2260 C.ar   36  TYR36       0.0417
     74  CE2      -26.9660   -7.6350   -2.0670 C.ar   36  TYR36       0.0417
     75  CZ       -26.7390   -7.8770   -0.6810 C.ar   36  TYR36       0.1957
     76  OH       -25.5350   -8.1930   -0.1590 O.3    36  TYR36      -0.2866
     77  N        -29.3470   -0.8290   -2.1220 N.3    39  ILE39      -0.1245
     78  CA       -28.5320   -0.6090   -0.9060 C.3    39  ILE39       0.1561
     79  C        -27.0780   -1.0220   -1.1140 C.2    39  ILE39       0.2260
     80  O        -26.1400   -0.3190   -0.6700 O.2    39  ILE39      -0.2867
     81  CB       -29.1950   -1.3480    0.3070 C.3    39  ILE39       0.0252
     82  CG1      -30.5200   -0.6590    0.6090 C.3    39  ILE39       0.0019
     83  CG2      -28.2740   -1.2900    1.5350 C.3    39  ILE39       0.0019
     84  CD1      -31.5160   -1.5010    1.3440 C.3    39  ILE39       0.0001
     85  N        -23.4620   -7.7280    4.3060 N.3    75  ALA75      -0.1245
     86  CA       -24.4870   -8.3560    5.1490 C.3    75  ALA75       0.1562
     87  C        -24.7530   -7.4940    6.3540 C.2    75  ALA75       0.2260
     88  O        -25.9440   -7.4200    6.7550 O.2    75  ALA75      -0.2867
     89  CB       -24.0500   -9.7350    5.5920 C.3    75  ALA75       0.0290
     90  N        -24.4690   -4.2710    6.3900 N.3    77  THR77      -0.1203
     91  CA       -25.1130   -3.0210    5.9290 C.3    77  THR77       0.1994
     92  C        -26.5820   -3.3280    5.6560 C.2    77  THR77       0.2618
     93  O        -27.4500   -2.5500    6.0920 O.2    77  THR77      -0.2717
     94  CB       -24.4870   -2.4990    4.6590 C.3    77  THR77       0.1784
     95  OG1      -23.1440   -2.1010    4.9980 O.3    77  THR77      -0.2211
     96  CG2      -25.2430   -1.3940    4.1170 C.3    77  THR77       0.0376
     97  N        -26.9360   -4.4140    4.9600 N.am   78  TYR78      -0.1961
     98  CA       -28.3000   -4.6350    4.5980 C.3    78  TYR78       0.1771
     99  C        -29.1450   -5.1260    5.7670 C.2    78  TYR78       0.2620
    100  O        -30.3180   -4.7160    5.8670 O.2    78  TYR78      -0.2715
    101  CB       -28.3300   -5.6720    3.4610 C.3    78  TYR78       0.0574
    102  CG       -29.7570   -5.9760    3.0300 C.ar   78  TYR78      -0.0198
    103  CD1      -30.4530   -5.1020    2.2000 C.ar   78  TYR78      -0.0009
    104  CD2      -30.4090   -7.1180    3.4990 C.ar   78  TYR78      -0.0009
    105  CE1      -31.8180   -5.2880    1.8580 C.ar   78  TYR78       0.0417
    106  CE2      -31.7780   -7.3750    3.1690 C.ar   78  TYR78       0.0417
    107  CZ       -32.4740   -6.4620    2.3370 C.ar   78  TYR78       0.1957
    108  OH       -33.7950   -6.7750    2.0440 O.3    78  TYR78      -0.2866
    109  N        -28.6630   -6.0760    6.5450 N.am   79  ASN79      -0.1958
    110  CA       -29.4740   -6.7170    7.5900 C.3    79  ASN79       0.1819
    111  C        -29.3800   -5.9200    8.9030 C.2    79  ASN79       0.2621
    112  O        -28.3190   -5.4300    9.2520 O.2    79  ASN79      -0.2715
    113  CB       -29.0090   -8.1550    7.8290 C.3    79  ASN79       0.1195
    114  CG       -29.1450   -9.0030    6.5410 C.2    79  ASN79       0.2630
    115  OD1      -30.2130   -9.4670    6.2190 O.2    79  ASN79      -0.2716
    116  ND2      -28.0340   -9.1400    5.8240 N.am   79  ASN79      -0.0877
    117  N        -30.4730   -5.9010    9.6000 N.am   80  ARG80      -0.1977
    118  CA       -30.4280   -5.2760   10.9680 C.3    80  ARG80       0.1597
    119  C        -29.5800   -6.0600   11.9380 C.2    80  ARG80       0.2287
    120  O        -29.5120   -7.2610   11.9230 O.2    80  ARG80      -0.2864
    121  CB       -31.8620   -5.1450   11.4990 C.3    80  ARG80       0.0334
    122  CG       -32.6750   -4.2280   10.6050 C.3    80  ARG80       0.0492
    123  CD       -33.6050   -3.2800   11.3310 C.3    80  ARG80       0.2205
    124  NE       -33.7080   -2.0490   10.5330 N.pl3  80  ARG80      -0.0865
    125  CZ       -34.8310   -1.3570   10.3530 C.cat  80  ARG80       0.5346
    126  NH1      -34.8110   -0.2520    9.6160 N.pl3  80  ARG80       0.1354
    127  NH2      -35.9750   -1.7680   10.9020 N.pl3  80  ARG80       0.1354
    128  N        -30.5380   -9.7110   13.5920 N.3    83  THR83      -0.1203
    129  CA       -30.8270  -10.8480   12.7420 C.3    83  THR83       0.1994
    130  C        -29.6880  -11.8550   12.8080 C.2    83  THR83       0.2618
    131  O        -28.5000  -11.5270   13.1250 O.2    83  THR83      -0.2717
    132  CB       -30.9910  -10.3850   11.2960 C.3    83  THR83       0.1784
    133  OG1      -29.7720   -9.7710   10.8040 O.3    83  THR83      -0.2211
    134  CG2      -32.0800   -9.2590   11.2360 C.3    83  THR83       0.0376
    135  N        -30.0590  -13.0840   12.4530 N.am   84  VAL84      -0.1965
    136  CA       -29.0590  -14.1870   12.3220 C.3    84  VAL84       0.1727
    137  C        -27.9920  -13.7810   11.3030 C.2    84  VAL84       0.2616
    138  O        -26.7990  -14.0380   11.5070 O.2    84  VAL84      -0.2715
    139  CB       -29.6240  -15.5960   12.0280 C.3    84  VAL84       0.0290
    140  CG1      -30.6030  -15.9610   13.1040 C.3    84  VAL84       0.0023
    141  CG2      -30.3370  -15.6330   10.7370 C.3    84  VAL84       0.0023
    142  N        -28.4080  -13.0610   10.2620 N.am   85  TYR85      -0.1974
    143  CA       -27.4920  -12.7150    9.1400 C.3    85  TYR85       0.1639
    144  C        -26.4250  -11.7180    9.5550 C.2    85  TYR85       0.2290
    145  O        -25.2280  -11.9290    9.2700 O.2    85  TYR85      -0.2864
    146  CB       -28.3500  -12.1190    8.0080 C.3    85  TYR85       0.0560
    147  CG       -29.4300  -13.0850    7.5870 C.ar   85  TYR85      -0.0198
    148  CD1      -29.1370  -14.3780    7.0640 C.ar   85  TYR85      -0.0009
    149  CD2      -30.7570  -12.7710    7.7990 C.ar   85  TYR85      -0.0009
    150  CE1      -30.1460  -15.2810    6.7340 C.ar   85  TYR85       0.0417
    151  CE2      -31.7680  -13.6900    7.4510 C.ar   85  TYR85       0.0417
    152  CZ       -31.4250  -14.9350    6.9320 C.ar   85  TYR85       0.1957
    153  OH       -32.4790  -15.7800    6.6270 O.3    85  TYR85      -0.2866
@<TRIPOS>BOND
     1    44    41    1
     2    36    35    2
     3    40    41    1
     4    41    42    1
     5    35    34    1
     6    33    34    1
     7    42    45   am
     8    42    43    2
     9    34    37    1
    10    67    68    2
    11    67    66    1
    12    45    46    1
    13    52    50    1
    14    72    74   ar
    15    72    70   ar
    16    50    49    1
    17    65    66    1
    18    77    78    1
    19    74    75   ar
    20    69    66    1
    21    69    70    1
    22    37    38    1
    23    37    39    1
    24    70    71   ar
    25    49    46    1
    26    49    51    1
    27    46    47    1
    28    56    55    2
    29    79    78    1
    30    79    80    2
    31    59    60    1
    32    59    58    1
    33    59    62    1
    34    53    47   am
    35    53    54    1
    36    78    81    1
    37    60    61    2
    38    75    76    1
    39    75    73   ar
    40    55    58   am
    41    55    54    1
    42    47    48    2
    43    58    64    1
    44    71    73   ar
    45    62    63    1
    46    54    57    1
    47    25    24    2
    48    63    64    1
    49    81    82    1
    50    81    83    1
    51    82    84    1
    52    24    23    1
    53   105   103   ar
    54   105   107   ar
    55    23    26    1
    56    23    22    1
    57   108   107    1
    58    14    13    2
    59   103   102   ar
    60   107   106   ar
    61    26    27    1
    62    13    22   am
    63    13    12    1
    64   102   101    1
    65   102   104   ar
    66   106   104   ar
    67   101    98    1
    68    28    27   ar
    69    28    30   ar
    70    12    11    1
    71    12    15    1
    72    27    29   ar
    73    96    94    1
    74    85    86    1
    75     4     3    2
    76    30    32   ar
    77    98    97    1
    78    98    99    1
    79    94    95    1
    80    94    91    1
    81    97    92   am
    82    15    16    1
    83     3     2    1
    84    86    89    1
    85    86    87    1
    86    29    31   ar
    87    17    16   ar
    88    17    19   ar
    89    92    91    1
    90    92    93    2
    91    99   100    2
    92    99   109   am
    93    32    31   ar
    94   116   114   am
    95    91    90    1
    96    16    18   ar
    97   115   114    2
    98    87    88    2
    99    19    21   ar
   100   114   113    1
   101   109   110    1
   102     2     1    1
   103     2     5    1
   104   153   152    1
   105   150   152   ar
   106   150   148   ar
   107   152   151   ar
   108   148   147   ar
   109    18    20   ar
   110     5     6    1
   111   151   149   ar
   112   147   149   ar
   113   147   146    1
   114   110   113    1
   115   110   111    1
   116    21    20   ar
   117   146   143    1
   118     6     7   ar
   119     6     8   ar
   120   111   112    2
   121   111   117   am
   122     7     9   ar
   123   143   144    1
   124   143   142    1
   125   145   144    2
   126   117   118    1
   127   126   125    1
   128     8    10   ar
   129     9    10   ar
   130   142   137   am
   131   125   124    2
   132   125   127    1
   133   124   123    1
   134   122   123    1
   135   122   121    1
   136   141   139    1
   137   133   132    1
   138   118   121    1
   139   118   119    1
   140   134   132    1
   141   132   129    1
   142   137   138    2
   143   137   136    1
   144   120   119    2
   145   139   136    1
   146   139   140    1
   147   136   135    1
   148   135   130   am
   149   129   130    1
   150   129   128    1
   151   130   131    2
