@<TRIPOS>MOLECULE
tmp/4yycA00.pdb
 93 90 0 0 0
SMALL
GASTEIGER

@<TRIPOS>ATOM
      1  N         19.1030    4.0390   15.4980 N.3   106  TYR106     -0.1227
      2  CA        20.5720    3.9470   15.5690 C.3   106  TYR106      0.1736
      3  C         21.0190    2.6500   14.8940 C.2   106  TYR106      0.2596
      4  O         20.5200    1.5580   15.2000 O.2   106  TYR106     -0.2718
      5  CB        20.9410    3.9370   17.0520 C.3   106  TYR106      0.0548
      6  CG        22.4130    3.9740   17.4140 C.ar  106  TYR106     -0.0200
      7  CD1       23.2210    2.8670   17.1900 C.ar  106  TYR106     -0.0009
      8  CD2       22.9430    5.0870   18.0500 C.ar  106  TYR106     -0.0009
      9  CE1       24.5630    2.8660   17.5480 C.ar  106  TYR106      0.0417
     10  CE2       24.2780    5.0820   18.4250 C.ar  106  TYR106      0.0417
     11  CZ        25.0730    3.9820   18.1810 C.ar  106  TYR106      0.1957
     12  OH        26.4280    3.9900   18.5350 O.3   106  TYR106     -0.2866
     13  N         21.9700    2.7680   13.9800 N.am  107  GLY107     -0.1957
     14  CA        22.6410    1.6230   13.3710 C.3   107  GLY107      0.1869
     15  C         22.4220    1.2500   11.9150 C.2   107  GLY107      0.2309
     16  O         23.3150    0.6580   11.3300 O.2   107  GLY107     -0.2863
     17  N         26.5390    4.2800   23.3820 N.3   203  LEU203     -0.1245
     18  CA        25.9970    2.9380   23.4340 C.3   203  LEU203      0.1561
     19  C         27.0800    1.9030   23.6570 C.2   203  LEU203      0.2260
     20  O         27.9290    1.7120   22.8060 O.2   203  LEU203     -0.2867
     21  CB        25.2180    2.6460   22.1590 C.3   203  LEU203      0.0270
     22  CG        24.4950    1.3150   22.0950 C.3   203  LEU203      0.0019
     23  CD1       23.4610    1.1730   23.1710 C.3   203  LEU203      0.0001
     24  CD2       23.8030    1.2610   20.7260 C.3   203  LEU203      0.0001
     25  N         27.2540   -1.8710   24.1160 N.3   205  ASN205     -0.1240
     26  CA        26.5950   -3.1480   24.0960 C.3   205  ASN205      0.1653
     27  C         27.4050   -4.2490   24.7700 C.2   205  ASN205      0.2266
     28  O         28.6390   -4.2360   24.7280 O.2   205  ASN205     -0.2867
     29  CB        26.2810   -3.5780   22.6810 C.3   205  ASN205      0.1155
     30  CG        25.2130   -2.7180   22.0270 C.2   205  ASN205      0.2627
     31  OD1       25.5050   -1.9850   21.0780 O.2   205  ASN205     -0.2716
     32  ND2       23.9770   -2.8180   22.4950 N.am  205  ASN205     -0.0877
     33  N         22.2840   -7.1130   24.2510 N.3   233  PHE233     -0.1241
     34  CA        21.6900   -7.1640   22.9220 C.3   233  PHE233      0.1605
     35  C         21.1550   -8.5680   22.7160 C.2   233  PHE233      0.2264
     36  O         21.9230   -9.4970   22.4240 O.2   233  PHE233     -0.2867
     37  CB        22.7340   -6.8190   21.8690 C.3   233  PHE233      0.0534
     38  CG        22.1650   -6.7020   20.4830 C.ar  233  PHE233     -0.0203
     39  CD1       21.6050   -5.5020   20.0640 C.ar  233  PHE233     -0.0042
     40  CD2       22.1300   -7.7920   19.6440 C.ar  233  PHE233     -0.0042
     41  CE1       21.0350   -5.3830   18.8020 C.ar  233  PHE233     -0.0003
     42  CE2       21.5730   -7.6890   18.3580 C.ar  233  PHE233     -0.0003
     43  CZ        21.0310   -6.4860   17.9530 C.ar  233  PHE233     -0.0000
     44  N         18.2880   -4.1140   24.8920 N.3   275  PHE275     -0.1241
     45  CA        17.6510   -4.3520   23.6080 C.3   275  PHE275      0.1605
     46  C         17.1630   -5.7870   23.6910 C.2   275  PHE275      0.2264
     47  O         17.9970   -6.7050   23.8590 O.2   275  PHE275     -0.2867
     48  CB        18.5930   -4.1860   22.4370 C.3   275  PHE275      0.0534
     49  CG        17.9620   -4.5450   21.1490 C.ar  275  PHE275     -0.0203
     50  CD1       17.2590   -3.6130   20.4420 C.ar  275  PHE275     -0.0042
     51  CD2       18.0170   -5.8590   20.6750 C.ar  275  PHE275     -0.0042
     52  CE1       16.6210   -3.9640   19.2550 C.ar  275  PHE275     -0.0003
     53  CE2       17.3980   -6.2000   19.4770 C.ar  275  PHE275     -0.0003
     54  CZ        16.6960   -5.2470   18.7870 C.ar  275  PHE275     -0.0000
     55  N         17.0220    2.3840   29.7930 N.3   311  ARG311     -0.1245
     56  CA        16.8270    2.4760   28.3470 C.3   311  ARG311      0.1563
     57  C         16.3100    1.1390   27.8490 C.2   311  ARG311      0.2260
     58  O         16.8090    0.0880   28.2130 O.2   311  ARG311     -0.2867
     59  CB        18.1610    2.7750   27.6260 C.3   311  ARG311      0.0307
     60  CG        18.1520    2.6250   26.1010 C.3   311  ARG311      0.0489
     61  CD        18.6620    1.2710   25.6560 C.3   311  ARG311      0.2205
     62  NE        18.2250    0.9160   24.3220 N.pl3 311  ARG311     -0.0865
     63  CZ        18.9020    0.1510   23.4750 C.cat 311  ARG311      0.5346
     64  NH1       20.1430   -0.2530   23.7060 N.pl3 311  ARG311      0.1354
     65  NH2       18.3330   -0.1800   22.3300 N.pl3 311  ARG311      0.1354
     66  N         16.0350    4.5150   19.2300 N.3   346  HIS346     -0.1241
     67  CA        15.1710    3.9440   18.2010 C.3   346  HIS346      0.1621
     68  C         13.7120    4.3760   18.3590 C.2   346  HIS346      0.2264
     69  O         12.7830    3.6420   18.0160 O.2   346  HIS346     -0.2867
     70  CB        15.1970    2.4320   18.0820 C.3   346  HIS346      0.0745
     71  CG        16.5490    1.8000   18.2350 C.ar  346  HIS346      0.0817
     72  ND1       17.5800    1.9820   17.3460 N.ar  346  HIS346     -0.2268
     73  CD2       16.9900    0.9030   19.1330 C.ar  346  HIS346      0.1154
     74  CE1       18.6110    1.2580   17.7070 C.ar  346  HIS346      0.1986
     75  NE2       18.2830    0.5820   18.7880 N.ar  346  HIS346     -0.2212
     76  N         13.1660    3.2500   12.6850 N.3   350  TRP350     -0.1241
     77  CA        13.5900    1.8580   12.4930 C.3   350  TRP350      0.1605
     78  C         12.6180    1.0590   11.6380 C.2   350  TRP350      0.2264
     79  O         11.4010    1.0260   11.9100 O.2   350  TRP350     -0.2867
     80  CB        13.6850    1.2240   13.8740 C.3   350  TRP350      0.0550
     81  CG        13.9030   -0.2280   14.0280 C.ar  350  TRP350      0.0003
     82  CD1       13.0780   -1.2580   13.6510 C.ar  350  TRP350      0.0946
     83  CD2       14.9950   -0.8460   14.7250 C.ar  350  TRP350      0.0152
     84  NE1       13.5730   -2.4670   14.1210 N.ar  350  TRP350     -0.2442
     85  CE2       14.7480   -2.2380   14.7660 C.ar  350  TRP350      0.0810
     86  CE3       16.1790   -0.3590   15.3090 C.ar  350  TRP350      0.0012
     87  CZ2       15.6310   -3.1200   15.3570 C.ar  350  TRP350      0.0191
     88  CZ3       17.0170   -1.2410   15.8910 C.ar  350  TRP350      0.0001
     89  CH2       16.7570   -2.5990   15.8910 C.ar  350  TRP350      0.0015
     90  N         16.0480   -3.3160   12.0650 N.3   354  GLY354     -0.1225
     91  CA        17.2410   -2.5450   12.3630 C.3   354  GLY354      0.1811
     92  C         18.1660   -2.3590   11.1920 C.2   354  GLY354      0.2280
     93  O         19.1800   -1.6970   11.3310 O.2   354  GLY354     -0.2866
@<TRIPOS>BOND
     1    92    93    2
     2    92    91    1
     3    16    15    2
     4    78    79    2
     5    78    77    1
     6    15    14    1
     7    90    91    1
     8    77    76    1
     9    77    80    1
    10    14    13    1
    11    82    81   ar
    12    82    84   ar
    13    80    81    1
    14    13     3   am
    15    81    83   ar
    16    84    85   ar
    17    83    85   ar
    18    83    86   ar
    19    85    87   ar
    20     3     4    2
    21     3     2    1
    22    86    88   ar
    23    87    89   ar
    24     1     2    1
    25     2     5    1
    26    89    88   ar
    27     5     6    1
    28     7     6   ar
    29     7     9   ar
    30    72    74   ar
    31    72    71   ar
    32     6     8   ar
    33     9    11   ar
    34    74    75   ar
    35    43    42   ar
    36    43    41   ar
    37    69    68    2
    38     8    10   ar
    39    70    67    1
    40    70    71    1
    41    11    10   ar
    42    11    12    1
    43    67    68    1
    44    67    66    1
    45    71    73   ar
    46    42    40   ar
    47    54    52   ar
    48    54    53   ar
    49    75    73   ar
    50    41    39   ar
    51    52    50   ar
    52    53    51   ar
    53    40    38   ar
    54    39    38   ar
    55    50    49   ar
    56    38    37    1
    57    51    49   ar
    58    24    22    1
    59    31    30    2
    60    49    48    1
    61    37    34    1
    62    30    32   am
    63    30    29    1
    64    22    21    1
    65    22    23    1
    66    21    18    1
    67    65    63    1
    68    36    35    2
    69    48    45    1
    70    29    26    1
    71    35    34    1
    72    20    19    2
    73    34    33    1
    74    17    18    1
    75    18    19    1
    76    63    64    1
    77    63    62    2
    78    45    46    1
    79    45    44    1
    80    46    47    2
    81    26    25    1
    82    26    27    1
    83    62    61    1
    84    28    27    2
    85    61    60    1
    86    60    59    1
    87    59    56    1
    88    57    58    2
    89    57    56    1
    90    56    55    1
