@<TRIPOS>MOLECULE
tmp/4yygA00.pdb
 124 121 0 0 0
SMALL
GASTEIGER

@<TRIPOS>ATOM
      1  N        -14.2900  -17.8190   -7.3000 N.3    22  PHE22      -0.1227
      2  CA       -12.9220  -17.9690   -6.7690 C.3    22  PHE22       0.1736
      3  C        -12.1070  -16.7160   -6.9160 C.2    22  PHE22       0.2595
      4  O        -11.3030  -16.3170   -6.0010 O.2    22  PHE22      -0.2718
      5  CB       -12.2130  -19.1410   -7.4050 C.3    22  PHE22       0.0547
      6  CG       -12.7840  -20.4820   -6.9840 C.ar   22  PHE22      -0.0202
      7  CD1      -13.4780  -20.6150   -5.7600 C.ar   22  PHE22      -0.0042
      8  CD2      -12.6250  -21.6140   -7.7900 C.ar   22  PHE22      -0.0042
      9  CE1      -13.9940  -21.8490   -5.3370 C.ar   22  PHE22      -0.0003
     10  CE2      -13.1370  -22.8450   -7.3740 C.ar   22  PHE22      -0.0003
     11  CZ       -13.8310  -22.9680   -6.1500 C.ar   22  PHE22      -0.0000
     12  N        -12.3730  -16.0690   -8.0390 N.am   23  PHE23      -0.1976
     13  CA       -11.6510  -14.9080   -8.4530 C.3    23  PHE23       0.1639
     14  C        -12.4070  -13.6210   -8.1160 C.2    23  PHE23       0.2290
     15  O        -12.0060  -12.5990   -8.5820 O.2    23  PHE23      -0.2864
     16  CB       -11.4300  -14.9740   -9.9610 C.3    23  PHE23       0.0560
     17  CG       -10.3440  -15.9430  -10.3610 C.ar   23  PHE23      -0.0200
     18  CD1       -9.0030  -15.6680  -10.0710 C.ar   23  PHE23      -0.0042
     19  CD2      -10.6570  -17.1010  -11.0420 C.ar   23  PHE23      -0.0042
     20  CE1       -7.9960  -16.5520  -10.4460 C.ar   23  PHE23      -0.0003
     21  CE2       -9.6760  -18.0200  -11.4210 C.ar   23  PHE23      -0.0003
     22  CZ        -8.3220  -17.7560  -11.1240 C.ar   23  PHE23      -0.0000
     23  N         -7.8260  -12.1160   -2.3000 N.3    27  VAL27      -0.1245
     24  CA        -7.4440  -13.2180   -1.4760 C.3    27  VAL27       0.1561
     25  C         -6.7520  -12.7070   -0.2280 C.2    27  VAL27       0.2260
     26  O         -5.8780  -11.8740   -0.3180 O.2    27  VAL27      -0.2867
     27  CB        -6.3740  -14.0360   -2.2030 C.3    27  VAL27       0.0252
     28  CG1       -5.7780  -15.0440   -1.2560 C.3    27  VAL27       0.0019
     29  CG2       -6.9520  -14.7010   -3.4480 C.3    27  VAL27       0.0019
     30  N         -7.3040  -16.7860    4.3510 N.3    31  ILE31      -0.1231
     31  CA        -7.7800  -17.8050    3.4040 C.3    31  ILE31       0.1692
     32  C         -6.6000  -18.5670    2.8140 C.2    31  ILE31       0.2592
     33  O         -6.6850  -19.7710    2.5380 O.2    31  ILE31      -0.2718
     34  CB        -8.4930  -17.0580    2.2710 C.3    31  ILE31       0.0266
     35  CG1       -9.7970  -16.4830    2.7940 C.3    31  ILE31       0.0019
     36  CG2       -8.5930  -17.8500    0.9590 C.3    31  ILE31       0.0020
     37  CD1      -10.2540  -15.3340    1.9200 C.3    31  ILE31       0.0001
     38  N         -5.5080  -17.8570    2.5430 N.am   32  ALA32      -0.1966
     39  CA        -4.3900  -18.4430    1.8290 C.3    32  ALA32       0.1713
     40  C         -3.0540  -18.1700    2.5230 C.2    32  ALA32       0.2458
     41  O         -2.4110  -17.1550    2.2450 O.2    32  ALA32      -0.2730
     42  CB        -4.3790  -17.9670    0.4110 C.3    32  ALA32       0.0333
     43  N         -2.6340  -19.0840    3.4190 N.am   33  PRO33      -0.2727
     44  CA        -1.4760  -18.7930    4.2630 C.3    33  PRO33       0.1402
     45  C         -0.2810  -18.3010    3.4440 C.2    33  PRO33       0.2269
     46  O         -0.0010  -18.8450    2.3640 O.2    33  PRO33      -0.2865
     47  CB        -1.2250  -20.1440    4.9640 C.3    33  PRO33       0.0296
     48  CG        -2.6180  -20.6980    5.1280 C.3    33  PRO33       0.0237
     49  CD        -3.2510  -20.3800    3.7870 C.3    33  PRO33       0.0939
     50  N          0.1350  -15.7870    1.5260 N.3    35  TYR35      -0.1241
     51  CA        -0.1450  -15.1950    0.2200 C.3    35  TYR35       0.1605
     52  C          0.5490  -13.8350   -0.0030 C.2    35  TYR35       0.2264
     53  O          1.2460  -13.6320   -0.9830 O.2    35  TYR35      -0.2867
     54  CB        -1.6660  -15.0950    0.0610 C.3    35  TYR35       0.0534
     55  CG        -2.0900  -14.8050   -1.3460 C.ar   35  TYR35      -0.0201
     56  CD1       -2.2750  -15.8510   -2.2390 C.ar   35  TYR35      -0.0009
     57  CD2       -2.3090  -13.4780   -1.8000 C.ar   35  TYR35      -0.0009
     58  CE1       -2.6420  -15.6270   -3.5450 C.ar   35  TYR35       0.0417
     59  CE2       -2.6880  -13.2400   -3.1160 C.ar   35  TYR35       0.0417
     60  CZ        -2.8510  -14.3240   -3.9980 C.ar   35  TYR35       0.1957
     61  OH        -3.2630  -14.1800   -5.3070 O.3    35  TYR35      -0.2866
     62  N         -2.5370  -16.7950   -9.2360 N.3    74  ALA74      -0.1245
     63  CA        -3.2080  -18.0240   -8.8320 C.3    74  ALA74       0.1562
     64  C         -2.3760  -19.2380   -9.2220 C.2    74  ALA74       0.2260
     65  O         -2.3210  -20.1980   -8.4640 O.2    74  ALA74      -0.2867
     66  CB        -4.6040  -18.1030   -9.5070 C.3    74  ALA74       0.0290
     67  N          0.5950  -19.1110   -6.8440 N.3    77  TYR77      -0.1227
     68  CA         0.3200  -19.4800   -5.4440 C.3    77  TYR77       0.1736
     69  C         -0.0650  -20.9330   -5.3040 C.2    77  TYR77       0.2595
     70  O          0.4660  -21.6460   -4.4760 O.2    77  TYR77      -0.2718
     71  CB        -0.7660  -18.5780   -4.8260 C.3    77  TYR77       0.0548
     72  CG        -1.0230  -18.9720   -3.3930 C.ar   77  TYR77      -0.0200
     73  CD1       -0.1110  -18.6460   -2.3860 C.ar   77  TYR77      -0.0009
     74  CD2       -2.1390  -19.7240   -3.0450 C.ar   77  TYR77      -0.0009
     75  CE1       -0.3430  -19.0320   -1.0600 C.ar   77  TYR77       0.0417
     76  CE2       -2.3930  -20.1240   -1.6960 C.ar   77  TYR77       0.0417
     77  CZ        -1.4960  -19.7650   -0.7190 C.ar   77  TYR77       0.1957
     78  OH        -1.7080  -20.1230    0.6050 O.3    77  TYR77      -0.2866
     79  N         -1.0150  -21.3680   -6.1120 N.am   78  ASN78      -0.1960
     80  CA        -1.6280  -22.6820   -5.9380 C.3    78  ASN78       0.1819
     81  C         -0.8830  -23.7190   -6.7630 C.2    78  ASN78       0.2621
     82  O         -0.5350  -23.4660   -7.9180 O.2    78  ASN78      -0.2715
     83  CB        -3.0790  -22.6150   -6.4250 C.3    78  ASN78       0.1195
     84  CG        -3.9170  -21.6580   -5.6380 C.2    78  ASN78       0.2630
     85  OD1       -4.3110  -21.9730   -4.5400 O.2    78  ASN78      -0.2716
     86  ND2       -4.2200  -20.4750   -6.2080 N.am   78  ASN78      -0.0877
     87  N         -0.6560  -24.9000   -6.1970 N.am   79  ARG79      -0.1977
     88  CA         0.1710  -25.9110   -6.8630 C.3    79  ARG79       0.1597
     89  C         -0.5220  -26.4390   -8.1190 C.2    79  ARG79       0.2287
     90  O         -1.7680  -26.4290   -8.1890 O.2    79  ARG79      -0.2864
     91  CB         0.4210  -27.0840   -5.9110 C.3    79  ARG79       0.0334
     92  CG         1.6890  -27.0200   -5.0920 C.3    79  ARG79       0.0492
     93  CD         1.9440  -28.4390   -4.5770 C.3    79  ARG79       0.2205
     94  NE         2.8570  -28.5200   -3.4310 N.pl3  79  ARG79      -0.0865
     95  CZ         3.2490  -29.6670   -2.8690 C.cat  79  ARG79       0.5346
     96  NH1        2.8090  -30.8250   -3.3510 N.pl3  79  ARG79       0.1354
     97  NH2        4.0880  -29.6660   -1.8270 N.pl3  79  ARG79       0.1354
     98  N         -4.0930  -28.3760   -8.0600 N.3    82  THR82      -0.1218
     99  CA        -5.2960  -27.8850   -7.4160 C.3    82  THR82       0.1862
    100  C         -6.3040  -27.4150   -8.4310 C.2    82  THR82       0.2287
    101  O         -5.9680  -27.1710   -9.6190 O.2    82  THR82      -0.2866
    102  CB        -4.9890  -26.7440   -6.4330 C.3    82  THR82       0.1770
    103  OG1       -4.4140  -25.6270   -7.1500 O.3    82  THR82      -0.2211
    104  CG2       -4.0500  -27.2280   -5.3260 C.3    82  THR82       0.0375
    105  N         -7.7300  -24.6850   -8.1550 N.3    84  TYR84      -0.1241
    106  CA        -7.5000  -23.2560   -8.3310 C.3    84  TYR84       0.1605
    107  C         -6.5520  -22.9490   -9.5090 C.2    84  TYR84       0.2264
    108  O         -6.8380  -22.0500  -10.3340 O.2    84  TYR84      -0.2867
    109  CB        -7.0180  -22.6340   -7.0240 C.3    84  TYR84       0.0534
    110  CG        -7.9750  -22.9230   -5.8790 C.ar   84  TYR84      -0.0201
    111  CD1       -9.2740  -22.3590   -5.8610 C.ar   84  TYR84      -0.0009
    112  CD2       -7.6050  -23.7850   -4.8310 C.ar   84  TYR84      -0.0009
    113  CE1      -10.1420  -22.6140   -4.8070 C.ar   84  TYR84       0.0417
    114  CE2       -8.4790  -24.0470   -3.7580 C.ar   84  TYR84       0.0417
    115  CZ        -9.7430  -23.4820   -3.7760 C.ar   84  TYR84       0.1957
    116  OH       -10.6070  -23.7440   -2.7460 O.3    84  TYR84      -0.2866
    117  N         -8.2330  -23.8910  -12.9520 N.3    87  LEU87      -0.1245
    118  CA        -9.2340  -22.9600  -13.4010 C.3    87  LEU87       0.1561
    119  C         -8.5090  -21.7410  -13.9670 C.2    87  LEU87       0.2260
    120  O         -8.8810  -21.1910  -15.0190 O.2    87  LEU87      -0.2867
    121  CB       -10.2410  -22.6370  -12.2890 C.3    87  LEU87       0.0270
    122  CG       -11.2270  -21.4510  -12.5960 C.3    87  LEU87       0.0019
    123  CD1      -12.0130  -21.6030  -13.8960 C.3    87  LEU87       0.0001
    124  CD2      -12.1970  -21.1190  -11.4320 C.3    87  LEU87       0.0001
@<TRIPOS>BOND
     1   120   119    2
     2   119   118    1
     3   123   122    1
     4   118   117    1
     5   118   121    1
     6   122   121    1
     7   122   124    1
     8    21    22   ar
     9    21    19   ar
    10    22    20   ar
    11    19    17   ar
    12    20    18   ar
    13    17    18   ar
    14    17    16    1
    15   108   107    2
    16    16    13    1
    17   101   100    2
    18   107   106    1
    19    66    63    1
    20    62    63    1
    21    64    63    1
    22    64    65    2
    23    15    14    2
    24    13    14    1
    25    13    12    1
    26   100    99    1
    27   106   105    1
    28   106   109    1
    29    90    89    2
    30    89    88    1
    31    98    99    1
    32    12     3   am
    33    82    81    2
    34     8    10   ar
    35     8     6   ar
    36    99   102    1
    37     5     6    1
    38     5     2    1
    39    10    11   ar
    40     1     2    1
    41   103   102    1
    42   109   110    1
    43     6     7   ar
    44     3     2    1
    45     3     4    2
    46    88    87    1
    47    88    91    1
    48    67    68    1
    49    81    87   am
    50    81    80    1
    51   102   104    1
    52    83    80    1
    53    83    84    1
    54    86    84   am
    55    11     9   ar
    56    79    80    1
    57    79    69   am
    58    91    92    1
    59   110   111   ar
    60   110   112   ar
    61   111   113   ar
    62     7     9   ar
    63    84    85    2
    64    68    69    1
    65    68    71    1
    66    61    60    1
    67    69    70    2
    68    92    93    1
    69   112   114   ar
    70    71    72    1
    71   113   115   ar
    72    93    94    1
    73    60    58   ar
    74    60    59   ar
    75   115   114   ar
    76   115   116    1
    77    58    56   ar
    78    29    27    1
    79    94    95    2
    80    72    74   ar
    81    72    73   ar
    82    96    95    1
    83    59    57   ar
    84    74    76   ar
    85    95    97    1
    86    73    75   ar
    87    23    24    1
    88    56    55   ar
    89    27    24    1
    90    27    28    1
    91    57    55   ar
    92    76    77   ar
    93    24    25    1
    94    55    54    1
    95    75    77   ar
    96    53    52    2
    97    77    78    1
    98    26    25    2
    99    52    51    1
   100    54    51    1
   101    51    50    1
   102    42    39    1
   103    36    34    1
   104    39    40    1
   105    39    38    1
   106    37    35    1
   107    41    40    2
   108    34    35    1
   109    34    31    1
   110    46    45    2
   111    40    43   am
   112    33    32    2
   113    38    32   am
   114    32    31    1
   115    31    30    1
   116    43    49    1
   117    43    44    1
   118    45    44    1
   119    49    48    1
   120    44    47    1
   121    47    48    1
