@<TRIPOS>MOLECULE
tmp/4yyhA00.pdb
 117 115 0 0 0
SMALL
GASTEIGER

@<TRIPOS>ATOM
      1  N        -25.5930  -17.3320    4.0400 N.3    23  PHE23      -0.1227
      2  CA       -26.1920  -16.0360    3.8510 C.3    23  PHE23       0.1736
      3  C        -25.3260  -15.1660    2.9290 C.2    23  PHE23       0.2595
      4  O        -25.8360  -14.2230    2.2850 O.2    23  PHE23      -0.2718
      5  CB       -26.3890  -15.3240    5.1840 C.3    23  PHE23       0.0547
      6  CG       -27.3470  -16.0200    6.1060 C.ar   23  PHE23      -0.0202
      7  CD1      -28.4440  -16.7050    5.6370 C.ar   23  PHE23      -0.0042
      8  CD2      -27.1050  -15.9880    7.4640 C.ar   23  PHE23      -0.0042
      9  CE1      -29.3130  -17.3330    6.5120 C.ar   23  PHE23      -0.0003
     10  CE2      -28.0000  -16.5720    8.3560 C.ar   23  PHE23      -0.0003
     11  CZ       -29.0960  -17.2690    7.8730 C.ar   23  PHE23      -0.0000
     12  N        -24.0320  -15.4190    2.9530 N.am   24  PHE24      -0.1976
     13  CA       -23.1020  -14.6620    2.1070 C.3    24  PHE24       0.1639
     14  C        -22.7600  -15.3820    0.8180 C.2    24  PHE24       0.2290
     15  O        -21.8610  -14.9480    0.0700 O.2    24  PHE24      -0.2864
     16  CB       -21.8020  -14.4920    2.9780 C.3    24  PHE24       0.0560
     17  CG       -21.8810  -13.3830    3.9910 C.ar   24  PHE24      -0.0200
     18  CD1      -21.8480  -12.0650    3.5750 C.ar   24  PHE24      -0.0042
     19  CD2      -21.9150  -13.6680    5.3490 C.ar   24  PHE24      -0.0042
     20  CE1      -21.8410  -10.9990    4.5230 C.ar   24  PHE24      -0.0003
     21  CE2      -21.9180  -12.6240    6.2940 C.ar   24  PHE24      -0.0003
     22  CZ       -21.8980  -11.2890    5.8840 C.ar   24  PHE24      -0.0000
     23  N        -26.9520  -10.5040   -3.1340 N.3    28  VAL28      -0.1245
     24  CA       -28.2290  -10.2260   -2.4960 C.3    28  VAL28       0.1561
     25  C        -29.1180   -9.5850   -3.5890 C.2    28  VAL28       0.2260
     26  O        -28.6380   -8.7070   -4.2740 O.2    28  VAL28      -0.2867
     27  CB       -28.0080   -9.1700   -1.4510 C.3    28  VAL28       0.0252
     28  CG1      -29.3380   -8.8230   -0.8010 C.3    28  VAL28       0.0019
     29  CG2      -27.0410   -9.7430   -0.3900 C.3    28  VAL28       0.0019
     30  N        -35.2630   -9.9860   -2.3860 N.3    32  ILE32      -0.1231
     31  CA       -35.1230  -10.4400   -0.9860 C.3    32  ILE32       0.1692
     32  C        -34.7620   -9.3090    0.0100 C.2    32  ILE32       0.2592
     33  O        -35.0490   -9.3720    1.1800 O.2    32  ILE32      -0.2718
     34  CB       -34.1900  -11.6750   -0.9080 C.3    32  ILE32       0.0266
     35  CG1      -32.7490  -11.2700   -0.9610 C.3    32  ILE32       0.0019
     36  CG2      -34.3490  -12.6970   -2.0130 C.3    32  ILE32       0.0020
     37  CD1      -32.2410  -11.5900    0.4290 C.3    32  ILE32       0.0001
     38  N        -34.2540   -8.1930   -0.5120 N.am   33  ALA33      -0.1966
     39  CA       -33.7700   -7.0980    0.2520 C.3    33  ALA33       0.1713
     40  C        -34.2110   -5.8270   -0.4190 C.2    33  ALA33       0.2458
     41  O        -33.4610   -5.2190   -1.1840 O.2    33  ALA33      -0.2730
     42  CB       -32.2270   -7.0960    0.3280 C.3    33  ALA33       0.0333
     43  N        -35.4310   -5.3570   -0.1230 N.am   34  PRO34      -0.2727
     44  CA       -35.9480   -4.2000   -0.8260 C.3    34  PRO34       0.1402
     45  C        -34.9540   -3.0090   -0.7680 C.2    34  PRO34       0.2269
     46  O        -34.4290   -2.6250    0.2850 O.2    34  PRO34      -0.2865
     47  CB       -37.2490   -3.8200   -0.0240 C.3    34  PRO34       0.0296
     48  CG       -37.7350   -5.2170    0.4220 C.3    34  PRO34       0.0237
     49  CD       -36.4550   -5.9850    0.7640 C.3    34  PRO34       0.0939
     50  N        -32.0440   -2.7470   -1.8970 N.3    36  TYR36      -0.1241
     51  CA       -30.6210   -3.0450   -1.7570 C.3    36  TYR36       0.1605
     52  C        -29.6920   -2.3620   -2.8200 C.2    36  TYR36       0.2264
     53  O        -28.6700   -1.7940   -2.4350 O.2    36  TYR36      -0.2867
     54  CB       -30.4120   -4.5930   -1.7570 C.3    36  TYR36       0.0534
     55  CG       -29.0300   -4.9960   -1.2160 C.ar   36  TYR36      -0.0201
     56  CD1      -27.9240   -5.1910   -2.0660 C.ar   36  TYR36      -0.0009
     57  CD2      -28.8800   -5.2410    0.1510 C.ar   36  TYR36      -0.0009
     58  CE1      -26.6590   -5.5590   -1.5700 C.ar   36  TYR36       0.0417
     59  CE2      -27.6410   -5.6610    0.6670 C.ar   36  TYR36       0.0417
     60  CZ       -26.5440   -5.7480   -0.1810 C.ar   36  TYR36       0.1957
     61  OH       -25.3490   -6.1460    0.2770 O.3    36  TYR36      -0.2866
     62  N        -23.2010   -5.7290    4.5030 N.3    75  ALA75      -0.1245
     63  CA       -24.2390   -6.3380    5.3310 C.3    75  ALA75       0.1562
     64  C        -24.4580   -5.4990    6.5460 C.2    75  ALA75       0.2260
     65  O        -25.5620   -5.4330    7.0280 O.2    75  ALA75      -0.2867
     66  CB       -23.9040   -7.7350    5.7570 C.3    75  ALA75       0.0290
     67  N        -26.5680   -2.3170    5.2680 N.3    78  TYR78      -0.1227
     68  CA       -27.9770   -2.5210    4.8890 C.3    78  TYR78       0.1736
     69  C        -28.9150   -3.0010    6.0150 C.2    78  TYR78       0.2595
     70  O        -30.0670   -2.5380    6.0950 O.2    78  TYR78      -0.2718
     71  CB       -28.0900   -3.4860    3.6740 C.3    78  TYR78       0.0548
     72  CG       -29.5060   -3.6980    3.2760 C.ar   78  TYR78      -0.0200
     73  CD1      -30.1560   -2.8140    2.4400 C.ar   78  TYR78      -0.0009
     74  CD2      -30.1950   -4.8150    3.7200 C.ar   78  TYR78      -0.0009
     75  CE1      -31.5160   -3.0160    2.0690 C.ar   78  TYR78       0.0417
     76  CE2      -31.5310   -5.0400    3.3720 C.ar   78  TYR78       0.0417
     77  CZ       -32.1760   -4.1450    2.4950 C.ar   78  TYR78       0.1957
     78  OH       -33.5300   -4.3600    2.1940 O.3    78  TYR78      -0.2866
     79  N        -28.4060   -3.9140    6.8270 N.am   79  ASN79      -0.1960
     80  CA       -29.1400   -4.5660    7.9060 C.3    79  ASN79       0.1819
     81  C        -28.9390   -3.8580    9.2210 C.2    79  ASN79       0.2621
     82  O        -27.8120   -3.4440    9.4920 O.2    79  ASN79      -0.2715
     83  CB       -28.6460   -5.9960    8.0580 C.3    79  ASN79       0.1195
     84  CG       -28.8760   -6.8270    6.7660 C.2    79  ASN79       0.2630
     85  OD1      -30.0190   -7.2650    6.4830 O.2    79  ASN79      -0.2716
     86  ND2      -27.8000   -7.0540    5.9970 N.am   79  ASN79      -0.0877
     87  N        -30.0200   -3.7740    9.9930 N.am   80  ARG80      -0.1977
     88  CA       -29.9880   -3.0590   11.2920 C.3    80  ARG80       0.1597
     89  C        -29.1730   -3.8780   12.2820 C.2    80  ARG80       0.2287
     90  O        -29.0580   -5.1010   12.1730 O.2    80  ARG80      -0.2864
     91  CB       -31.4360   -2.8090   11.8030 C.3    80  ARG80       0.0334
     92  CG       -32.3090   -2.0210   10.8410 C.3    80  ARG80       0.0492
     93  CD       -33.7370   -1.8250   11.3740 C.3    80  ARG80       0.2205
     94  NE       -34.1080   -0.4170   11.3140 N.pl3  80  ARG80      -0.0865
     95  CZ       -35.1090    0.1200   11.9970 C.cat  80  ARG80       0.5346
     96  NH1      -35.8550   -0.6400   12.7940 N.pl3  80  ARG80       0.1354
     97  NH2      -35.3520    1.4210   11.8900 N.pl3  80  ARG80       0.1354
     98  N        -28.1660  -11.0220   10.2020 N.3    85  TYR85      -0.1241
     99  CA       -27.1880  -10.6830    9.1740 C.3    85  TYR85       0.1605
    100  C        -26.1130   -9.6780    9.6260 C.2    85  TYR85       0.2264
    101  O        -24.8900   -9.8510    9.3640 O.2    85  TYR85      -0.2867
    102  CB       -27.9310  -10.0920    7.9550 C.3    85  TYR85       0.0534
    103  CG       -29.0410  -11.0760    7.5860 C.ar   85  TYR85      -0.0201
    104  CD1      -28.7480  -12.3760    7.1060 C.ar   85  TYR85      -0.0009
    105  CD2      -30.3980  -10.7450    7.8500 C.ar   85  TYR85      -0.0009
    106  CE1      -29.7590  -13.2930    6.8520 C.ar   85  TYR85       0.0417
    107  CE2      -31.4160  -11.6550    7.5510 C.ar   85  TYR85       0.0417
    108  CZ       -31.0940  -12.9030    7.0570 C.ar   85  TYR85       0.1957
    109  OH       -32.1150  -13.8090    6.7930 O.3    85  TYR85      -0.2866
    110  N        -23.7380  -11.5430   12.1900 N.3    88  LEU88      -0.1245
    111  CA       -22.8090  -12.4640   11.5690 C.3    88  LEU88       0.1561
    112  C        -21.7160  -11.6910   10.8410 C.2    88  LEU88       0.2260
    113  O        -20.5090  -12.0220   10.9150 O.2    88  LEU88      -0.2867
    114  CB       -23.5170  -13.4200   10.5830 C.3    88  LEU88       0.0270
    115  CG       -22.5990  -14.4300    9.9080 C.3    88  LEU88       0.0019
    116  CD1      -22.0950  -15.4600   10.9560 C.3    88  LEU88       0.0001
    117  CD2      -23.3940  -15.0930    8.7820 C.3    88  LEU88       0.0001
@<TRIPOS>BOND
     1    26    25    2
     2    25    24    1
     3    23    24    1
     4    52    53    2
     5    52    51    1
     6    24    27    1
     7    30    31    1
     8    56    58   ar
     9    56    55   ar
    10    36    34    1
    11    50    51    1
    12    54    51    1
    13    54    55    1
    14    58    60   ar
    15    27    28    1
    16    27    29    1
    17    55    57   ar
    18    41    40    2
    19    31    34    1
    20    31    32    1
    21    35    34    1
    22    35    37    1
    23    44    45    1
    24    44    43    1
    25    44    47    1
    26    45    46    2
    27    38    32   am
    28    38    39    1
    29    40    43   am
    30    40    39    1
    31    60    61    1
    32    60    59   ar
    33    43    49    1
    34    47    48    1
    35    32    33    2
    36    15    14    2
    37    57    59   ar
    38    39    42    1
    39    48    49    1
    40    14    13    1
    41    75    73   ar
    42    75    77   ar
    43    13    12    1
    44    13    16    1
    45    78    77    1
    46     4     3    2
    47    73    72   ar
    48    77    76   ar
    49     3    12   am
    50     3     2    1
    51    16    17    1
    52    72    71    1
    53    72    74   ar
    54    76    74   ar
    55    18    17   ar
    56    18    20   ar
    57    71    68    1
    58     2     1    1
    59     2     5    1
    60    17    19   ar
    61    62    63    1
    62    20    22   ar
    63    68    67    1
    64    68    69    1
    65     5     6    1
    66    63    66    1
    67    63    64    1
    68    19    21   ar
    69     7     6   ar
    70     7     9   ar
    71    22    21   ar
    72    86    84   am
    73    69    70    2
    74    69    79   am
    75     6     8   ar
    76    85    84    2
    77     9    11   ar
    78    64    65    2
    79    84    83    1
    80   109   108    1
    81    79    80    1
    82   106   108   ar
    83   106   104   ar
    84   108   107   ar
    85   104   103   ar
    86     8    10   ar
    87   107   105   ar
    88   103   105   ar
    89   103   102    1
    90    11    10   ar
    91    80    83    1
    92    80    81    1
    93   102    99    1
    94   117   115    1
    95    99   100    1
    96    99    98    1
    97    81    82    2
    98    81    87   am
    99   101   100    2
   100   115   114    1
   101   115   116    1
   102    87    88    1
   103   114   111    1
   104    92    93    1
   105    92    91    1
   106   112   113    2
   107   112   111    1
   108    88    91    1
   109    88    89    1
   110    94    93    1
   111    94    95    2
   112   111   110    1
   113    97    95    1
   114    95    96    1
   115    90    89    2
