@<TRIPOS>MOLECULE
tmp/4yyiE00.pdb
 112 111 0 0 0
SMALL
GASTEIGER

@<TRIPOS>ATOM
      1  N         68.7410  -14.8850   66.1330 N.3    23  PHE23      -0.1227
      2  CA        68.1190  -14.5590   64.8520 C.3    23  PHE23       0.1736
      3  C         67.7070  -13.1440   64.6320 C.2    23  PHE23       0.2592
      4  O         67.8850  -12.6380   63.5010 O.2    23  PHE23      -0.2718
      5  CB        66.9270  -15.4820   64.6330 C.3    23  PHE23       0.0547
      6  CG        67.3280  -17.0200   64.6380 C.ar   23  PHE23      -0.0202
      7  CD1       68.5440  -17.4540   64.0990 C.ar   23  PHE23      -0.0042
      8  CD2       66.5430  -17.8890   65.2880 C.ar   23  PHE23      -0.0042
      9  CE1       68.8480  -18.8520   64.0610 C.ar   23  PHE23      -0.0003
     10  CE2       66.8500  -19.3120   65.3250 C.ar   23  PHE23      -0.0003
     11  CZ        68.0160  -19.7410   64.7130 C.ar   23  PHE23      -0.0000
     12  N         67.2100  -12.4950   65.6870 N.am   24  PHE24      -0.2029
     13  CA        66.7130  -11.0810   65.5320 C.3    24  PHE24       0.1325
     14  C         67.5930  -10.1010   66.0830 C.3    24  PHE24       0.2039
     15  O         67.2150   -8.8460   66.2610 O.3    24  PHE24      -0.2185
     16  CB        65.3210  -10.9980   66.1490 C.3    24  PHE24       0.0507
     17  CG        64.3250  -11.8900   65.4740 C.ar   24  PHE24      -0.0204
     18  CD1       63.8030  -11.5820   64.2580 C.ar   24  PHE24      -0.0042
     19  CD2       63.8370  -13.0320   66.1510 C.ar   24  PHE24      -0.0042
     20  CE1       62.8530  -12.4410   63.6810 C.ar   24  PHE24      -0.0003
     21  CE2       62.9630  -13.9680   65.5050 C.ar   24  PHE24      -0.0003
     22  CZ        62.5140  -13.6820   64.2450 C.ar   24  PHE24      -0.0000
     23  N         69.2930   -7.9720   59.0650 N.3    28  VAL28      -0.1245
     24  CA        69.5030   -9.0500   58.0190 C.3    28  VAL28       0.1561
     25  C         70.1850   -8.4140   56.7790 C.2    28  VAL28       0.2260
     26  O         69.8710   -7.3090   56.3940 O.2    28  VAL28      -0.2867
     27  CB        68.1460   -9.5680   57.6250 C.3    28  VAL28       0.0252
     28  CG1       68.2830  -10.7150   56.5430 C.3    28  VAL28       0.0019
     29  CG2       67.3580  -10.1730   58.7690 C.3    28  VAL28       0.0019
     30  N         73.1480  -13.0190   53.4660 N.3    32  ILE32      -0.1231
     31  CA        72.6760  -14.2030   54.1700 C.3    32  ILE32       0.1692
     32  C         71.2090  -14.4530   53.8770 C.2    32  ILE32       0.2592
     33  O         70.6780  -15.4820   54.3390 O.2    32  ILE32      -0.2718
     34  CB        72.8610  -14.2020   55.7040 C.3    32  ILE32       0.0266
     35  CG1       71.9470  -13.1370   56.3740 C.3    32  ILE32       0.0019
     36  CG2       74.3460  -14.2400   56.0660 C.3    32  ILE32       0.0020
     37  CD1       71.3990  -13.5240   57.7460 C.3    32  ILE32       0.0001
     38  N         70.6040  -13.6190   53.0200 N.am   33  ALA33      -0.1966
     39  CA        69.1560  -13.7500   52.8010 C.3    33  ALA33       0.1713
     40  C         68.8590  -13.2050   51.4480 C.2    33  ALA33       0.2458
     41  O         68.4980  -12.0310   51.2830 O.2    33  ALA33      -0.2730
     42  CB        68.3340  -13.0860   53.9370 C.3    33  ALA33       0.0333
     43  N         69.0840  -14.0540   50.4190 N.am   34  PRO34      -0.2727
     44  CA        68.9280  -13.5140   49.1290 C.3    34  PRO34       0.1402
     45  C         67.5910  -12.8640   48.8380 C.2    34  PRO34       0.2269
     46  O         66.5640  -13.3530   49.2120 O.2    34  PRO34      -0.2865
     47  CB        69.1030  -14.7460   48.2370 C.3    34  PRO34       0.0296
     48  CG        70.0180  -15.6460   49.0180 C.3    34  PRO34       0.0237
     49  CD        69.3370  -15.5150   50.3630 C.3    34  PRO34       0.0939
     50  N         66.5390  -10.1820   50.1110 N.3    36  TYR36      -0.1241
     51  CA        65.8560   -9.6820   51.3340 C.3    36  TYR36       0.1605
     52  C         65.5790   -8.1810   51.2630 C.2    36  TYR36       0.2264
     53  O         64.4470   -7.7570   51.4610 O.2    36  TYR36      -0.2867
     54  CB        66.6820   -9.9160   52.5590 C.3    36  TYR36       0.0534
     55  CG        65.9520   -9.5200   53.8660 C.ar   36  TYR36      -0.0201
     56  CD1       65.9040   -8.1900   54.3550 C.ar   36  TYR36      -0.0009
     57  CD2       65.2520  -10.5090   54.5180 C.ar   36  TYR36      -0.0009
     58  CE1       65.2380   -7.9100   55.6040 C.ar   36  TYR36       0.0417
     59  CE2       64.5910  -10.2640   55.6960 C.ar   36  TYR36       0.0417
     60  CZ        64.5760   -8.9490   56.2070 C.ar   36  TYR36       0.1957
     61  OH        63.8870   -8.6280   57.3990 O.3    36  TYR36      -0.2866
     62  N         59.8820  -10.9090   59.2730 N.3    75  ALA75      -0.1245
     63  CA        60.3990  -12.2970   59.2480 C.3    75  ALA75       0.1562
     64  C         59.3300  -13.1630   58.6440 C.2    75  ALA75       0.2260
     65  O         59.6440  -14.1730   57.9650 O.2    75  ALA75      -0.2867
     66  CB        60.9490  -12.8330   60.6050 C.3    75  ALA75       0.0290
     67  N         59.2600  -12.5940   54.7490 N.3    78  TYR78      -0.1227
     68  CA        60.3490  -13.0120   53.8600 C.3    78  TYR78       0.1736
     69  C         60.4680  -14.5130   53.9290 C.2    78  TYR78       0.2595
     70  O         60.6580  -15.1760   52.8920 O.2    78  TYR78      -0.2718
     71  CB        61.6220  -12.3360   54.3230 C.3    78  TYR78       0.0548
     72  CG        62.8450  -12.9390   53.6500 C.ar   78  TYR78      -0.0200
     73  CD1       63.1810  -12.5140   52.3780 C.ar   78  TYR78      -0.0009
     74  CD2       63.6650  -13.8740   54.2770 C.ar   78  TYR78      -0.0009
     75  CE1       64.2440  -13.1190   51.7040 C.ar   78  TYR78       0.0417
     76  CE2       64.7640  -14.4780   53.5950 C.ar   78  TYR78       0.0417
     77  CZ        65.0350  -14.0330   52.3110 C.ar   78  TYR78       0.1957
     78  OH        66.0950  -14.5040   51.5900 O.3    78  TYR78      -0.2866
     79  N         60.4850  -15.0940   55.1060 N.am   79  ASN79      -0.1974
     80  CA        60.7760  -16.5160   55.3460 C.3    79  ASN79       0.1688
     81  C         59.5670  -17.3920   55.0140 C.2    79  ASN79       0.2292
     82  O         58.4240  -17.0090   55.3600 O.2    79  ASN79      -0.2864
     83  CB        61.2820  -16.7640   56.8000 C.3    79  ASN79       0.1181
     84  CG        62.5700  -16.0210   57.1080 C.2    79  ASN79       0.2629
     85  OD1       63.7050  -16.5100   56.7870 O.2    79  ASN79      -0.2716
     86  ND2       62.4120  -14.7900   57.7790 N.am   79  ASN79      -0.0877
     87  N         60.1400  -22.6260   58.3570 N.3    83  THR83      -0.1203
     88  CA        61.5230  -22.3050   58.7910 C.3    83  THR83       0.1994
     89  C         61.4990  -21.8480   60.2650 C.2    83  THR83       0.2618
     90  O         60.4370  -21.4430   60.7960 O.2    83  THR83      -0.2717
     91  CB        62.1590  -21.1560   57.9650 C.3    83  THR83       0.1784
     92  OG1       61.3960  -19.9330   58.1520 O.3    83  THR83      -0.2211
     93  CG2       62.3560  -21.5380   56.4720 C.3    83  THR83       0.0376
     94  N         62.6320  -22.0630   60.9270 N.am   84  VAL84      -0.1965
     95  CA        62.8520  -21.5850   62.2650 C.3    84  VAL84       0.1727
     96  C         62.5940  -20.0800   62.4480 C.2    84  VAL84       0.2616
     97  O         62.0320  -19.6760   63.4800 O.2    84  VAL84      -0.2715
     98  CB        64.2300  -22.0370   62.7510 C.3    84  VAL84       0.0290
     99  CG1       64.3260  -23.5640   62.5270 C.3    84  VAL84       0.0023
    100  CG2       65.3490  -21.4120   61.9480 C.3    84  VAL84       0.0023
    101  N         62.9400  -19.2790   61.4660 N.am   85  TYR85      -0.1974
    102  CA        62.7430  -17.8250   61.5920 C.3    85  TYR85       0.1639
    103  C         61.2730  -17.3880   61.4910 C.2    85  TYR85       0.2290
    104  O         60.8530  -16.5350   62.3000 O.2    85  TYR85      -0.2864
    105  CB        63.5830  -17.1210   60.5100 C.3    85  TYR85       0.0560
    106  CG        64.9500  -17.6740   60.4110 C.ar   85  TYR85      -0.0198
    107  CD1       66.0040  -17.2280   61.1560 C.ar   85  TYR85      -0.0009
    108  CD2       65.1740  -18.7060   59.4940 C.ar   85  TYR85      -0.0009
    109  CE1       67.2350  -17.8290   60.9870 C.ar   85  TYR85       0.0417
    110  CE2       66.3800  -19.3150   59.3310 C.ar   85  TYR85       0.0417
    111  CZ        67.3820  -18.9150   60.0990 C.ar   85  TYR85       0.1957
    112  OH        68.5950  -19.4880   59.8890 O.3    85  TYR85      -0.2866
@<TRIPOS>BOND
     1    47    48    1
     2    47    44    1
     3    45    44    1
     4    45    46    2
     5    48    49    1
     6    44    43    1
     7    50    51    1
     8    49    43    1
     9    43    40   am
    10    52    51    1
    11    52    53    2
    12    41    40    2
    13    51    54    1
    14    40    39    1
    15    78    77    1
    16    75    77   ar
    17    75    73   ar
    18    77    76   ar
    19    73    72   ar
    20    54    55    1
    21    39    38    1
    22    39    42    1
    23    70    69    2
    24    38    32   am
    25    30    31    1
    26    76    74   ar
    27    72    74   ar
    28    72    71    1
    29    68    69    1
    30    68    71    1
    31    68    67    1
    32    55    56   ar
    33    55    57   ar
    34    32    31    1
    35    32    33    2
    36    69    79   am
    37    31    34    1
    38    56    58   ar
    39    57    59   ar
    40    81    80    1
    41    81    82    2
    42    79    80    1
    43    80    83    1
    44    58    60   ar
    45    59    60   ar
    46    34    36    1
    47    34    35    1
    48    60    61    1
    49    35    37    1
    50    26    25    2
    51    93    91    1
    52    28    27    1
    53    25    24    1
    54    85    84    2
    55    83    84    1
    56    84    86   am
    57    27    24    1
    58    27    29    1
    59    91    92    1
    60    91    88    1
    61    65    64    2
    62    24    23    1
    63    87    88    1
    64    64    63    1
    65    88    89    1
    66    63    62    1
    67    63    66    1
    68   110   108   ar
    69   110   111   ar
    70   108   106   ar
    71   112   111    1
    72   111   109   ar
    73    89    90    2
    74    89    94   am
    75   106   105    1
    76   106   107   ar
    77   105   102    1
    78    94    95    1
    79   109   107   ar
    80   101   102    1
    81   101    96   am
    82   103   102    1
    83   103   104    2
    84   100    98    1
    85    95    96    1
    86    95    98    1
    87    96    97    2
    88    99    98    1
    89     4     3    2
    90    20    22   ar
    91    20    18   ar
    92     9     7   ar
    93     9    11   ar
    94     7     6   ar
    95    22    21   ar
    96    18    17   ar
    97     3     2    1
    98     3    12   am
    99     5     6    1
   100     5     2    1
   101     6     8   ar
   102    11    10   ar
   103     2     1    1
   104     8    10   ar
   105    17    16    1
   106    17    19   ar
   107    21    19   ar
   108    13    12    1
   109    13    14    1
   110    13    16    1
   111    14    15    1
