@<TRIPOS>MOLECULE
tmp/4yylA01.pdb
 135 127 0 0 0
SMALL
GASTEIGER

@<TRIPOS>ATOM
      1  N        -28.9300    7.0570    7.2540 N.3    25  THR25      -0.1203
      2  CA       -29.5970    6.7640    8.5080 C.3    25  THR25       0.1994
      3  C        -29.3560    7.8810    9.5260 C.2    25  THR25       0.2617
      4  O        -30.2600    8.2730   10.2850 O.2    25  THR25      -0.2717
      5  CB       -29.0840    5.4570    9.1060 C.3    25  THR25       0.1784
      6  OG1      -29.4650    4.3860    8.2420 O.3    25  THR25      -0.2211
      7  CG2      -29.7100    5.2440   10.4540 C.3    25  THR25       0.0376
      8  N        -28.1210    8.3660    9.5620 N.am   26  MET26      -0.1979
      9  CA       -27.7880    9.3410   10.5770 C.3    26  MET26       0.1605
     10  C        -28.5520   10.6300   10.2740 C.2    26  MET26       0.2287
     11  O        -29.0880   11.2670   11.2000 O.2    26  MET26      -0.2864
     12  CB       -26.2860    9.5630   10.5990 C.3    26  MET26       0.0413
     13  CG       -25.5600    8.4050   11.2650 C.3    26  MET26       0.0598
     14  SD       -23.8320    8.7450   11.6720 S.3    26  MET26      -0.1393
     15  CE       -24.0670    9.6640   13.1860 C.3    26  MET26       0.0692
     16  N        -32.1740   10.5790   11.3060 N.3    29  TYR29      -0.1241
     17  CA       -32.4340   10.7220   12.7330 C.3    29  TYR29       0.1605
     18  C        -31.8190   11.9980   13.3160 C.2    29  TYR29       0.2264
     19  O        -31.7110   12.1430   14.5320 O.2    29  TYR29      -0.2867
     20  CB       -31.9900    9.4820   13.5230 C.3    29  TYR29       0.0534
     21  CG       -32.8660    8.2500   13.2760 C.ar   29  TYR29      -0.0201
     22  CD1      -32.6500    7.4200   12.1690 C.ar   29  TYR29      -0.0009
     23  CD2      -33.9100    7.9190   14.1440 C.ar   29  TYR29      -0.0009
     24  CE1      -33.4450    6.2900   11.9350 C.ar   29  TYR29       0.0417
     25  CE2      -34.7070    6.7920   13.9200 C.ar   29  TYR29       0.0417
     26  CZ       -34.4720    5.9870   12.8100 C.ar   29  TYR29       0.1957
     27  OH       -35.2640    4.8810   12.5890 O.3    29  TYR29      -0.2866
     28  N        -28.6550   13.6990   13.0570 N.3    31  GLU31      -0.1245
     29  CA       -27.3470   13.5650   13.7060 C.3    31  GLU31       0.1567
     30  C        -26.1940   13.8270   12.7710 C.2    31  GLU31       0.2260
     31  O        -26.1960   13.4010   11.5880 O.2    31  GLU31      -0.2867
     32  CB       -27.1640   12.1720   14.2630 C.3    31  GLU31       0.0388
     33  CG       -28.1470   11.7960   15.3240 C.3    31  GLU31       0.1160
     34  CD       -27.9170   10.3830   15.7750 C.2    31  GLU31       0.3649
     35  OE1      -27.6740    9.5280   14.8930 O.co2  31  GLU31      -0.2457
     36  OE2      -27.9570   10.1310   16.9970 O.co2  31  GLU31      -0.2457
     37  N        -20.4530    6.6360   16.6950 N.3    39  LYS39      -0.1245
     38  CA       -21.7570    6.0920   16.3380 C.3    39  LYS39       0.1561
     39  C        -21.8240    5.7530   14.8580 C.2    39  LYS39       0.2260
     40  O        -22.4640    4.7560   14.4760 O.2    39  LYS39      -0.2867
     41  CB       -22.8640    7.0870   16.7030 C.3    39  LYS39       0.0271
     42  CG       -24.2530    6.4610   16.7990 C.3    39  LYS39       0.0035
     43  CD       -25.3130    7.5330   17.0120 C.3    39  LYS39       0.0206
     44  CE       -26.6930    6.9300   17.2730 C.3    39  LYS39       0.1093
     45  NZ       -27.5910    7.9180   17.9510 N.3    39  LYS39      -0.1314
     46  N        -20.2800    2.4400   14.5830 N.3    42  ALA42      -0.1231
     47  CA       -21.1850    1.4020   15.1010 C.3    42  ALA42       0.1694
     48  C        -22.3640    1.0580   14.1870 C.2    42  ALA42       0.2591
     49  O        -22.7570   -0.1030   14.0830 O.2    42  ALA42      -0.2718
     50  CB       -21.7180    1.7890   16.4890 C.3    42  ALA42       0.0304
     51  N        -22.9840    2.0730   13.5920 N.am   43  ILE43      -0.1980
     52  CA       -24.0230    1.8450   12.5950 C.3    43  ILE43       0.1595
     53  C        -23.4840    1.0650   11.3840 C.2    43  ILE43       0.2287
     54  O        -24.1540    0.1340   10.9000 O.2    43  ILE43      -0.2864
     55  CB       -24.6150    3.2260   12.1420 C.3    43  ILE43       0.0276
     56  CG1      -25.3570    3.8620   13.3390 C.3    43  ILE43       0.0022
     57  CG2      -25.5540    3.0490   10.9130 C.3    43  ILE43       0.0022
     58  CD1      -25.6310    5.4080   13.1750 C.3    43  ILE43       0.0001
     59  N        -22.8650   -2.6080   12.5240 N.3    46  HIS46      -0.1241
     60  CA       -24.1370   -3.3270   12.6690 C.3    46  HIS46       0.1621
     61  C        -24.7870   -3.6220   11.3220 C.2    46  HIS46       0.2264
     62  O        -25.2770   -4.7370   11.0780 O.2    46  HIS46      -0.2867
     63  CB       -25.0790   -2.5140   13.5570 C.3    46  HIS46       0.0745
     64  CG       -26.4610   -3.0660   13.6770 C.ar   46  HIS46       0.0817
     65  ND1      -27.5030   -2.6560   12.8690 N.ar   46  HIS46      -0.2268
     66  CD2      -26.9950   -3.9580   14.5490 C.ar   46  HIS46       0.1154
     67  CE1      -28.6110   -3.2790   13.2240 C.ar   46  HIS46       0.1986
     68  NE2      -28.3310   -4.0710   14.2460 N.ar   46  HIS46      -0.2212
     69  N        -33.3850   -3.5610    8.2280 N.3    65  GLU65      -0.1245
     70  CA       -32.4280   -2.5200    8.6440 C.3    65  GLU65       0.1567
     71  C        -31.8240   -1.8270    7.4290 C.2    65  GLU65       0.2260
     72  O        -31.6730   -2.4380    6.3840 O.2    65  GLU65      -0.2867
     73  CB       -31.3100   -3.1740    9.4720 C.3    65  GLU65       0.0388
     74  CG       -30.2640   -2.2330   10.0900 C.3    65  GLU65       0.1160
     75  CD       -30.9040   -1.2400   11.0440 C.2    65  GLU65       0.3649
     76  OE1      -31.1030   -1.5380   12.2810 O.co2  65  GLU65      -0.2457
     77  OE2      -31.2190   -0.1560   10.4900 O.co2  65  GLU65      -0.2457
     78  N        -33.8390   -9.7300   15.5210 N.3   104  GLU104     -0.1231
     79  CA       -33.0690   -8.5710   15.9690 C.3   104  GLU104      0.1699
     80  C        -31.5900   -8.9540   16.1530 C.2   104  GLU104      0.2592
     81  O        -31.2650   -9.8850   16.8940 O.2   104  GLU104     -0.2718
     82  CB       -33.6730   -8.0340   17.2990 C.3   104  GLU104      0.0402
     83  CG       -32.7730   -6.9330   17.9640 C.3   104  GLU104      0.1161
     84  CD       -32.6270   -5.6990   17.1070 C.2   104  GLU104      0.3649
     85  OE1      -33.6570   -5.3160   16.4700 O.co2 104  GLU104     -0.2457
     86  OE2      -31.4660   -5.1550   17.0410 O.co2 104  GLU104     -0.2457
     87  N        -30.6850   -8.2260   15.4930 N.am  105  ILE105     -0.1966
     88  CA       -29.2660   -8.5130   15.5730 C.3   105  ILE105      0.1727
     89  C        -28.6380   -7.4700   16.5070 C.2   105  ILE105      0.2617
     90  O        -28.8840   -6.2590   16.3570 O.2   105  ILE105     -0.2715
     91  CB       -28.6260   -8.2840   14.2060 C.3   105  ILE105      0.0290
     92  CG1      -29.2220   -9.2570   13.1660 C.3   105  ILE105      0.0022
     93  CG2      -27.1090   -8.4640   14.2790 C.3   105  ILE105      0.0023
     94  CD1      -28.8580  -10.6490   13.4610 C.3   105  ILE105      0.0001
     95  N        -27.8510   -7.8970   17.4820 N.am  106  GLY106     -0.1940
     96  CA       -27.1350   -6.9100   18.3130 C.3   106  GLY106      0.2014
     97  C        -25.6330   -7.0270   18.1120 C.2   106  GLY106      0.2638
     98  O        -25.1370   -8.1420   17.9150 O.2   106  GLY106     -0.2714
     99  N        -24.8920   -5.9110   18.1440 N.am  107  VAL107     -0.1977
    100  CA       -23.4260   -5.9810   18.0950 C.3   107  VAL107      0.1596
    101  C        -22.9690   -5.1640   19.3020 C.2   107  VAL107      0.2287
    102  O        -23.4430   -4.0330   19.4880 O.2   107  VAL107     -0.2864
    103  CB       -22.8390   -5.4170   16.7890 C.3   107  VAL107      0.0276
    104  CG1      -21.2940   -5.3460   16.8910 C.3   107  VAL107      0.0022
    105  CG2      -23.2950   -6.2970   15.5670 C.3   107  VAL107      0.0022
    106  N        -26.5280   -7.6290   27.6870 N.3   115  TYR115     -0.1241
    107  CA       -27.0070   -6.9570   26.4860 C.3   115  TYR115      0.1605
    108  C        -28.2240   -7.7200   25.9490 C.2   115  TYR115      0.2264
    109  O        -29.2760   -7.1240   25.6230 O.2   115  TYR115     -0.2867
    110  CB       -25.8570   -6.8110   25.4700 C.3   115  TYR115      0.0534
    111  CG       -26.2490   -6.0090   24.2660 C.ar  115  TYR115     -0.0201
    112  CD1      -26.2550   -4.6270   24.2930 C.ar  115  TYR115     -0.0009
    113  CD2      -26.6350   -6.6390   23.1080 C.ar  115  TYR115     -0.0009
    114  CE1      -26.6470   -3.9050   23.1900 C.ar  115  TYR115      0.0417
    115  CE2      -27.0010   -5.9390   22.0100 C.ar  115  TYR115      0.0417
    116  CZ       -27.0280   -4.5850   22.0480 C.ar  115  TYR115      0.1957
    117  OH       -27.4370   -3.9140   20.9110 O.3   115  TYR115     -0.2866
    118  N        -32.0210   -6.1940   25.4350 N.3   119  LYS119     -0.1245
    119  CA       -32.7560   -6.2890   24.1480 C.3   119  LYS119      0.1561
    120  C        -34.1170   -6.9780   24.3060 C.2   119  LYS119      0.2260
    121  O        -35.1620   -6.4880   23.8230 O.2   119  LYS119     -0.2867
    122  CB       -31.9080   -7.0310   23.1060 C.3   119  LYS119      0.0271
    123  CG       -30.7960   -6.2010   22.5290 C.3   119  LYS119      0.0035
    124  CD       -31.3560   -5.2250   21.4920 C.3   119  LYS119      0.0206
    125  CE       -30.2870   -4.9250   20.5000 C.3   119  LYS119      0.1093
    126  NZ       -30.6040   -3.9080   19.5390 N.3   119  LYS119     -0.1314
    127  N        -20.0710    2.9550   23.6120 N.3   180  GLU180     -0.1245
    128  CA       -21.3110    2.1800   23.6150 C.3   180  GLU180      0.1567
    129  C        -22.2840    2.6240   24.7130 C.2   180  GLU180      0.2260
    130  O        -21.8920    2.7280   25.8710 O.2   180  GLU180     -0.2867
    131  CB       -21.0450    0.6560   23.7140 C.3   180  GLU180      0.0388
    132  CG       -22.3310   -0.1430   23.5780 C.3   180  GLU180      0.1160
    133  CD       -22.1250   -1.6570   23.4840 C.2   180  GLU180      0.3649
    134  OE1      -20.9570   -2.1270   23.4960 O.co2 180  GLU180     -0.2457
    135  OE2      -23.1530   -2.3660   23.4100 O.co2 180  GLU180     -0.2457
@<TRIPOS>BOND
     1    72    71    2
     2     1     2    1
     3    71    70    1
     4    69    70    1
     5     6     5    1
     6     2     5    1
     7     2     3    1
     8    70    73    1
     9     5     7    1
    10    73    74    1
    11     3     8   am
    12     3     4    2
    13     8     9    1
    14    74    75    1
    15    10     9    1
    16    10    11    2
    17    77    75   ar
    18     9    12    1
    19    12    13    1
    20    54    53    2
    21    57    55    1
    22    75    76   ar
    23    62    61    2
    24    13    14    1
    25    16    17    1
    26    61    60    1
    27    53    52    1
    28    31    30    2
    29    14    15    1
    30    24    22   ar
    31    24    26   ar
    32    55    52    1
    33    55    56    1
    34    22    21   ar
    35    59    60    1
    36    27    26    1
    37    52    51    1
    38    60    63    1
    39    17    18    1
    40    17    20    1
    41    30    29    1
    42    26    25   ar
    43    65    67   ar
    44    65    64   ar
    45    28    29    1
    46    92    94    1
    47    92    91    1
    48    58    56    1
    49    67    68   ar
    50    21    20    1
    51    21    23   ar
    52    18    19    2
    53    63    64    1
    54    51    48   am
    55    64    66   ar
    56    29    32    1
    57    25    23   ar
    58    49    48    2
    59    48    47    1
    60    91    93    1
    61    91    88    1
    62    68    66   ar
    63    32    33    1
    64    40    39    2
    65    46    47    1
    66    39    38    1
    67    35    34   ar
    68    47    50    1
    69    33    34    1
    70    87    88    1
    71    87    80   am
    72    78    79    1
    73   105   103    1
    74    88    89    1
    75    34    36   ar
    76    79    80    1
    77    79    82    1
    78    80    81    2
    79    38    37    1
    80    38    41    1
    81    90    89    2
    82    85    84   ar
    83    89    95   am
    84    41    42    1
    85   103   104    1
    86   103   100    1
    87    42    43    1
    88    43    44    1
    89    86    84   ar
    90    84    83    1
    91    44    45    1
    92    82    83    1
    93    95    96    1
    94    98    97    2
    95   100    99    1
    96   100   101    1
    97    97    99   am
    98    97    96    1
    99   101   102    2
   100   126   125    1
   101   125   124    1
   102   117   116    1
   103   124   123    1
   104   115   116   ar
   105   115   113   ar
   106   116   114   ar
   107   123   122    1
   108   122   119    1
   109   113   111   ar
   110   114   112   ar
   111   135   133   ar
   112   133   134   ar
   113   133   132    1
   114   132   131    1
   115   127   128    1
   116   128   131    1
   117   128   129    1
   118   121   120    2
   119   119   120    1
   120   119   118    1
   121   111   112   ar
   122   111   110    1
   123   129   130    2
   124   110   107    1
   125   109   108    2
   126   108   107    1
   127   107   106    1
