@<TRIPOS>MOLECULE
tmp/4yylA00.pdb
 143 138 0 0 0
SMALL
GASTEIGER

@<TRIPOS>ATOM
      1  N        -32.1740   10.5790   11.3060 N.3    29  TYR29      -0.1241
      2  CA       -32.4340   10.7220   12.7330 C.3    29  TYR29       0.1605
      3  C        -31.8190   11.9980   13.3160 C.2    29  TYR29       0.2264
      4  O        -31.7110   12.1430   14.5320 O.2    29  TYR29      -0.2867
      5  CB       -31.9900    9.4820   13.5230 C.3    29  TYR29       0.0534
      6  CG       -32.8660    8.2500   13.2760 C.ar   29  TYR29      -0.0201
      7  CD1      -32.6500    7.4200   12.1690 C.ar   29  TYR29      -0.0009
      8  CD2      -33.9100    7.9190   14.1440 C.ar   29  TYR29      -0.0009
      9  CE1      -33.4450    6.2900   11.9350 C.ar   29  TYR29       0.0417
     10  CE2      -34.7070    6.7920   13.9200 C.ar   29  TYR29       0.0417
     11  CZ       -34.4720    5.9870   12.8100 C.ar   29  TYR29       0.1957
     12  OH       -35.2640    4.8810   12.5890 O.3    29  TYR29      -0.2866
     13  N        -22.8650   -2.6080   12.5240 N.3    46  HIS46      -0.1241
     14  CA       -24.1370   -3.3270   12.6690 C.3    46  HIS46       0.1621
     15  C        -24.7870   -3.6220   11.3220 C.2    46  HIS46       0.2264
     16  O        -25.2770   -4.7370   11.0780 O.2    46  HIS46      -0.2867
     17  CB       -25.0790   -2.5140   13.5570 C.3    46  HIS46       0.0745
     18  CG       -26.4610   -3.0660   13.6770 C.ar   46  HIS46       0.0817
     19  ND1      -27.5030   -2.6560   12.8690 N.ar   46  HIS46      -0.2268
     20  CD2      -26.9950   -3.9580   14.5490 C.ar   46  HIS46       0.1154
     21  CE1      -28.6110   -3.2790   13.2240 C.ar   46  HIS46       0.1986
     22  NE2      -28.3310   -4.0710   14.2460 N.ar   46  HIS46      -0.2212
     23  N        -33.3850   -3.5610    8.2280 N.3    65  GLU65      -0.1245
     24  CA       -32.4280   -2.5200    8.6440 C.3    65  GLU65       0.1567
     25  C        -31.8240   -1.8270    7.4290 C.2    65  GLU65       0.2260
     26  O        -31.6730   -2.4380    6.3840 O.2    65  GLU65      -0.2867
     27  CB       -31.3100   -3.1740    9.4720 C.3    65  GLU65       0.0388
     28  CG       -30.2640   -2.2330   10.0900 C.3    65  GLU65       0.1160
     29  CD       -30.9040   -1.2400   11.0440 C.2    65  GLU65       0.3649
     30  OE1      -31.1030   -1.5380   12.2810 O.co2  65  GLU65      -0.2457
     31  OE2      -31.2190   -0.1560   10.4900 O.co2  65  GLU65      -0.2457
     32  N        -37.2020    4.7240    7.4410 N.3    69  ARG69      -0.1245
     33  CA       -38.1950    4.1650    8.3570 C.3    69  ARG69       0.1563
     34  C        -39.5820    3.8700    7.7820 C.2    69  ARG69       0.2260
     35  O        -40.2030    2.8480    8.1240 O.2    69  ARG69      -0.2867
     36  CB       -38.3960    5.0790    9.5640 C.3    69  ARG69       0.0307
     37  CG       -39.1320    4.3510   10.6560 C.3    69  ARG69       0.0489
     38  CD       -40.0980    5.2000   11.4330 C.3    69  ARG69       0.2205
     39  NE       -39.4960    5.7070   12.6560 N.pl3  69  ARG69      -0.0865
     40  CZ       -39.3390    4.9960   13.7700 C.cat  69  ARG69       0.5346
     41  NH1      -39.7370    3.7190   13.8240 N.pl3  69  ARG69       0.1354
     42  NH2      -38.7880    5.5740   14.8410 N.pl3  69  ARG69       0.1354
     43  N        -41.2500    0.1090    7.5560 N.3    73  TRP73      -0.1241
     44  CA       -42.5360   -0.3320    8.0860 C.3    73  TRP73       0.1605
     45  C        -43.4490   -0.8880    7.0020 C.2    73  TRP73       0.2264
     46  O        -44.1560   -1.8820    7.2290 O.2    73  TRP73      -0.2867
     47  CB       -43.2430    0.8180    8.8590 C.3    73  TRP73       0.0550
     48  CG       -42.7760    0.8900   10.3020 C.ar   73  TRP73       0.0003
     49  CD1      -42.0280    1.8770   10.8860 C.ar   73  TRP73       0.0946
     50  CD2      -42.9830   -0.0980   11.3020 C.ar   73  TRP73       0.0152
     51  NE1      -41.7870    1.5710   12.1930 N.ar   73  TRP73      -0.2442
     52  CE2      -42.3660    0.3510   12.4790 C.ar   73  TRP73       0.0810
     53  CE3      -43.6480   -1.3200   11.3280 C.ar   73  TRP73       0.0012
     54  CZ2      -42.4000   -0.3610   13.6610 C.ar   73  TRP73       0.0191
     55  CZ3      -43.6660   -2.0470   12.5000 C.ar   73  TRP73       0.0001
     56  CH2      -43.0440   -1.5580   13.6550 C.ar   73  TRP73       0.0015
     57  N        -43.3410   -4.5230   17.5300 N.3    89  LYS89      -0.1231
     58  CA       -43.6000   -3.1460   18.0070 C.3    89  LYS89       0.1693
     59  C        -42.4850   -2.1960   17.6910 C.2    89  LYS89       0.2592
     60  O        -42.6930   -0.9810   17.6280 O.2    89  LYS89      -0.2718
     61  CB       -43.8830   -3.0940   19.5060 C.3    89  LYS89       0.0285
     62  CG       -45.2400   -3.6730   19.8880 C.3    89  LYS89       0.0035
     63  CD       -45.0890   -5.1190   20.3420 C.3    89  LYS89       0.0206
     64  CE       -46.3970   -5.6920   20.8730 C.3    89  LYS89       0.1093
     65  NZ       -46.3340   -7.1890   20.9570 N.3    89  LYS89      -0.1314
     66  N        -41.2890   -2.7510   17.4860 N.am   90  PHE90      -0.1962
     67  CA       -40.1510   -1.9590   17.0550 C.3    90  PHE90       0.1771
     68  C        -39.6340   -2.5840   15.7560 C.2    90  PHE90       0.2619
     69  O        -39.7670   -3.7870   15.5800 O.2    90  PHE90      -0.2715
     70  CB       -39.0610   -1.9950   18.1260 C.3    90  PHE90       0.0574
     71  CG       -39.4820   -1.3720   19.4440 C.ar   90  PHE90      -0.0200
     72  CD1      -40.2050   -2.1090   20.3800 C.ar   90  PHE90      -0.0042
     73  CD2      -39.1660   -0.0600   19.7270 C.ar   90  PHE90      -0.0042
     74  CE1      -40.5980   -1.5410   21.5770 C.ar   90  PHE90      -0.0003
     75  CE2      -39.5490    0.5130   20.9320 C.ar   90  PHE90      -0.0003
     76  CZ       -40.2690   -0.2260   21.8470 C.ar   90  PHE90      -0.0000
     77  N        -39.0640   -1.7820   14.8590 N.am   91  LEU91      -0.1977
     78  CA       -38.5280   -2.3320   13.6240 C.3    91  LEU91       0.1596
     79  C        -37.3890   -3.2800   13.9810 C.2    91  LEU91       0.2287
     80  O        -36.4370   -2.8910   14.6890 O.2    91  LEU91      -0.2864
     81  CB       -37.9580   -1.2520   12.7230 C.3    91  LEU91       0.0297
     82  CG       -38.9450   -0.3290   12.0530 C.3    91  LEU91       0.0022
     83  CD1      -38.1960    0.8550   11.4720 C.3    91  LEU91       0.0001
     84  CD2      -39.6560   -1.1320   10.9830 C.3    91  LEU91       0.0001
     85  N        -34.4470   -6.2840   12.4110 N.3    93  ASP93      -0.1239
     86  CA       -33.3740   -6.1220   11.4250 C.3    93  ASP93       0.1674
     87  C        -33.6020   -7.0090   10.1890 C.2    93  ASP93       0.2266
     88  O        -33.2620   -6.5950    9.0470 O.2    93  ASP93      -0.2867
     89  CB       -32.0100   -6.4870   12.0650 C.3    93  ASP93       0.1410
     90  CG       -31.5550   -5.4210   13.0530 C.2    93  ASP93       0.3668
     91  OD1      -31.6750   -4.2490   12.7060 O.co2  93  ASP93      -0.2456
     92  OD2      -31.1310   -5.7600   14.1500 O.co2  93  ASP93      -0.2456
     93  N        -33.8390   -9.7300   15.5210 N.3   104  GLU104     -0.1231
     94  CA       -33.0690   -8.5710   15.9690 C.3   104  GLU104      0.1699
     95  C        -31.5900   -8.9540   16.1530 C.2   104  GLU104      0.2592
     96  O        -31.2650   -9.8850   16.8940 O.2   104  GLU104     -0.2718
     97  CB       -33.6730   -8.0340   17.2990 C.3   104  GLU104      0.0402
     98  CG       -32.7730   -6.9330   17.9640 C.3   104  GLU104      0.1161
     99  CD       -32.6270   -5.6990   17.1070 C.2   104  GLU104      0.3649
    100  OE1      -33.6570   -5.3160   16.4700 O.co2 104  GLU104     -0.2457
    101  OE2      -31.4660   -5.1550   17.0410 O.co2 104  GLU104     -0.2457
    102  N        -30.6850   -8.2260   15.4930 N.am  105  ILE105     -0.1966
    103  CA       -29.2660   -8.5130   15.5730 C.3   105  ILE105      0.1727
    104  C        -28.6380   -7.4700   16.5070 C.2   105  ILE105      0.2616
    105  O        -28.8840   -6.2590   16.3570 O.2   105  ILE105     -0.2715
    106  CB       -28.6260   -8.2840   14.2060 C.3   105  ILE105      0.0290
    107  CG1      -29.2220   -9.2570   13.1660 C.3   105  ILE105      0.0022
    108  CG2      -27.1090   -8.4640   14.2790 C.3   105  ILE105      0.0023
    109  CD1      -28.8580  -10.6490   13.4610 C.3   105  ILE105      0.0001
    110  N        -27.8510   -7.8970   17.4820 N.am  106  GLY106     -0.1955
    111  CA       -27.1350   -6.9100   18.3130 C.3   106  GLY106      0.1869
    112  C        -25.6330   -7.0270   18.1120 C.2   106  GLY106      0.2309
    113  O        -25.1370   -8.1420   17.9150 O.2   106  GLY106     -0.2863
    114  N        -26.5280   -7.6290   27.6870 N.3   115  TYR115     -0.1241
    115  CA       -27.0070   -6.9570   26.4860 C.3   115  TYR115      0.1605
    116  C        -28.2240   -7.7200   25.9490 C.2   115  TYR115      0.2264
    117  O        -29.2760   -7.1240   25.6230 O.2   115  TYR115     -0.2867
    118  CB       -25.8570   -6.8110   25.4700 C.3   115  TYR115      0.0534
    119  CG       -26.2490   -6.0090   24.2660 C.ar  115  TYR115     -0.0201
    120  CD1      -26.2550   -4.6270   24.2930 C.ar  115  TYR115     -0.0009
    121  CD2      -26.6350   -6.6390   23.1080 C.ar  115  TYR115     -0.0009
    122  CE1      -26.6470   -3.9050   23.1900 C.ar  115  TYR115      0.0417
    123  CE2      -27.0010   -5.9390   22.0100 C.ar  115  TYR115      0.0417
    124  CZ       -27.0280   -4.5850   22.0480 C.ar  115  TYR115      0.1957
    125  OH       -27.4370   -3.9140   20.9110 O.3   115  TYR115     -0.2866
    126  N        -32.0210   -6.1940   25.4350 N.3   119  LYS119     -0.1245
    127  CA       -32.7560   -6.2890   24.1480 C.3   119  LYS119      0.1561
    128  C        -34.1170   -6.9780   24.3060 C.2   119  LYS119      0.2260
    129  O        -35.1620   -6.4880   23.8230 O.2   119  LYS119     -0.2867
    130  CB       -31.9080   -7.0310   23.1060 C.3   119  LYS119      0.0271
    131  CG       -30.7960   -6.2010   22.5290 C.3   119  LYS119      0.0035
    132  CD       -31.3560   -5.2250   21.4920 C.3   119  LYS119      0.0206
    133  CE       -30.2870   -4.9250   20.5000 C.3   119  LYS119      0.1093
    134  NZ       -30.6040   -3.9080   19.5390 N.3   119  LYS119     -0.1314
    135  N        -36.5900   -4.9090   25.9840 N.3   122  LYS122     -0.1245
    136  CA       -37.0120   -3.7750   25.1900 C.3   122  LYS122      0.1561
    137  C        -38.0920   -4.1540   24.1870 C.2   122  LYS122      0.2260
    138  O        -39.0660   -3.4140   24.0060 O.2   122  LYS122     -0.2867
    139  CB       -35.8040   -3.1370   24.4940 C.3   122  LYS122      0.0271
    140  CG       -36.1360   -2.1150   23.4120 C.3   122  LYS122      0.0035
    141  CD       -36.9590   -0.9710   23.9710 C.3   122  LYS122      0.0206
    142  CE       -36.5760    0.3560   23.3230 C.3   122  LYS122      0.1093
    143  NZ       -36.6210    0.2630   21.8350 N.3   122  LYS122     -0.1314
@<TRIPOS>BOND
     1    26    25    2
     2    45    46    2
     3    45    44    1
     4    25    24    1
     5    32    33    1
     6    43    44    1
     7    34    35    2
     8    34    33    1
     9    44    47    1
    10    23    24    1
    11    33    36    1
    12    24    27    1
    13    47    48    1
    14    88    87    2
    15    27    28    1
    16    36    37    1
    17    28    29    1
    18    87    86    1
    19    48    49   ar
    20    48    50   ar
    21    31    29   ar
    22    37    38    1
    23    49    51   ar
    24    84    82    1
    25    29    30   ar
    26    16    15    2
    27    50    53   ar
    28    50    52   ar
    29     1     2    1
    30    15    14    1
    31    53    55   ar
    32    86    89    1
    33    86    85    1
    34    38    39    1
    35    83    82    1
    36     9     7   ar
    37     9    11   ar
    38    82    81    1
    39    89    90    1
    40     7     6   ar
    41    51    52   ar
    42    52    54   ar
    43    55    56   ar
    44    13    14    1
    45    12    11    1
    46    39    40    2
    47    14    17    1
    48    91    90   ar
    49    81    78    1
    50     2     3    1
    51     2     5    1
    52    11    10   ar
    53    19    21   ar
    54    19    18   ar
    55    90    92   ar
    56   107   109    1
    57   107   106    1
    58    21    22   ar
    59     6     5    1
    60     6     8   ar
    61     3     4    2
    62    17    18    1
    63    78    79    1
    64    78    77    1
    65    56    54   ar
    66    18    20   ar
    67    40    41    1
    68    40    42    1
    69    10     8   ar
    70    79    80    2
    71   106   108    1
    72   106   103    1
    73    22    20   ar
    74    77    68   am
    75   102   103    1
    76   102    95   am
    77    93    94    1
    78   103   104    1
    79    69    68    2
    80    68    67    1
    81    94    95    1
    82    94    97    1
    83    95    96    2
    84   105   104    2
    85   100    99   ar
    86   104   110   am
    87   101    99   ar
    88    67    66    1
    89    67    70    1
    90    99    98    1
    91    97    98    1
    92   110   111    1
    93    66    59   am
    94    57    58    1
    95    60    59    2
    96    59    58    1
    97   113   112    2
    98    58    61    1
    99   112   111    1
   100    70    71    1
   101    71    73   ar
   102    71    72   ar
   103    61    62    1
   104   134   133    1
   105    73    75   ar
   106    62    63    1
   107    63    64    1
   108    72    74   ar
   109   133   132    1
   110    64    65    1
   111   125   124    1
   112    75    76   ar
   113   132   131    1
   114    74    76   ar
   115   143   142    1
   116   123   124   ar
   117   123   121   ar
   118   124   122   ar
   119   131   130    1
   120   130   127    1
   121   121   119   ar
   122   122   120   ar
   123   142   141    1
   124   140   141    1
   125   140   139    1
   126   129   128    2
   127   138   137    2
   128   127   128    1
   129   127   126    1
   130   137   136    1
   131   119   120   ar
   132   119   118    1
   133   139   136    1
   134   136   135    1
   135   118   115    1
   136   117   116    2
   137   116   115    1
   138   115   114    1
