@<TRIPOS>MOLECULE
tmp/4yylA02.pdb
 137 133 0 0 0
SMALL
GASTEIGER

@<TRIPOS>ATOM
      1  N        -19.7110   14.7900   14.6050 N.3    35  ILE35      -0.1231
      2  CA       -19.6230   14.8520   16.0670 C.3    35  ILE35       0.1692
      3  C        -20.0010   13.4890   16.6780 C.2    35  ILE35       0.2591
      4  O        -19.8870   13.2440   17.8830 O.2    35  ILE35      -0.2718
      5  CB       -20.4940   16.0250   16.6330 C.3    35  ILE35       0.0266
      6  CG1      -19.7090   17.3330   16.5790 C.3    35  ILE35       0.0019
      7  CG2      -20.9500   15.8200   18.0680 C.3    35  ILE35       0.0020
      8  CD1      -19.2730   17.6920   15.1880 C.3    35  ILE35       0.0001
      9  N        -20.4720   12.5730   15.8520 N.am   36  GLU36      -0.1979
     10  CA       -20.8390   11.3000   16.4430 C.3    36  GLU36       0.1602
     11  C        -20.1930   10.2090   15.6210 C.2    36  GLU36       0.2287
     12  O        -20.8570    9.2940   15.1450 O.2    36  GLU36      -0.2864
     13  CB       -22.3650   11.1620   16.5140 C.3    36  GLU36       0.0415
     14  CG       -23.0420   12.2870   17.3730 C.3    36  GLU36       0.1163
     15  CD       -24.4090   11.8810   17.9170 C.2    36  GLU36       0.3649
     16  OE1      -25.3010   11.5520   17.0980 O.co2  36  GLU36      -0.2457
     17  OE2      -24.5910   11.8810   19.1640 O.co2  36  GLU36      -0.2457
     18  N        -18.0300    7.8960   16.3530 N.3    38  ASN38      -0.1225
     19  CA       -18.0500    6.5550   16.9460 C.3    38  ASN38       0.1785
     20  C        -19.3760    5.8670   16.6450 C.2    38  ASN38       0.2597
     21  O        -19.4480    4.6560   16.3610 O.2    38  ASN38      -0.2718
     22  CB       -17.7870    6.5820   18.4700 C.3    38  ASN38       0.1169
     23  CG       -16.2930    6.7000   18.8140 C.2    38  ASN38       0.2627
     24  OD1      -15.4370    6.2460   18.0620 O.2    38  ASN38      -0.2716
     25  ND2      -15.9820    7.3830   19.9360 N.am   38  ASN38      -0.0877
     26  N        -20.4530    6.6360   16.6950 N.am   39  LYS39      -0.1980
     27  CA       -21.7570    6.0920   16.3380 C.3    39  LYS39       0.1596
     28  C        -21.8240    5.7530   14.8580 C.2    39  LYS39       0.2287
     29  O        -22.4640    4.7560   14.4760 O.2    39  LYS39      -0.2864
     30  CB       -22.8640    7.0870   16.7030 C.3    39  LYS39       0.0298
     31  CG       -24.2530    6.4610   16.7990 C.3    39  LYS39       0.0038
     32  CD       -25.3130    7.5330   17.0120 C.3    39  LYS39       0.0206
     33  CE       -26.6930    6.9300   17.2730 C.3    39  LYS39       0.1093
     34  NZ       -27.5910    7.9180   17.9510 N.3    39  LYS39      -0.1314
     35  N        -20.2800    2.4400   14.5830 N.3    42  ALA42      -0.1245
     36  CA       -21.1850    1.4020   15.1010 C.3    42  ALA42       0.1562
     37  C        -22.3640    1.0580   14.1870 C.2    42  ALA42       0.2260
     38  O        -22.7570   -0.1030   14.0830 O.2    42  ALA42      -0.2867
     39  CB       -21.7180    1.7890   16.4890 C.3    42  ALA42       0.0290
     40  N        -24.8920   -5.9110   18.1440 N.3   107  VAL107     -0.1231
     41  CA       -23.4260   -5.9810   18.0950 C.3   107  VAL107      0.1692
     42  C        -22.9690   -5.1640   19.3020 C.2   107  VAL107      0.2593
     43  O        -23.4430   -4.0330   19.4880 O.2   107  VAL107     -0.2718
     44  CB       -22.8390   -5.4170   16.7890 C.3   107  VAL107      0.0266
     45  CG1      -21.2940   -5.3460   16.8910 C.3   107  VAL107      0.0020
     46  CG2      -23.2950   -6.2970   15.5670 C.3   107  VAL107      0.0020
     47  N        -22.1280   -5.7560   20.1490 N.am  108  THR108     -0.1939
     48  CA       -21.7930   -5.1090   21.4490 C.3   108  THR108      0.2028
     49  C        -20.3720   -5.4160   21.8750 C.2   108  THR108      0.2642
     50  O        -19.7340   -6.3270   21.3500 O.2   108  THR108     -0.2714
     51  CB       -22.7770   -5.5660   22.5790 C.3   108  THR108      0.1808
     52  OG1      -22.5860   -4.8030   23.7890 O.3   108  THR108     -0.2208
     53  CG2      -22.5520   -7.0530   22.9140 C.3   108  THR108      0.0379
     54  N        -19.8340   -4.6270   22.8020 N.am  109  ARG109     -0.1977
     55  CA       -18.6240   -5.0540   23.5320 C.3   109  ARG109      0.1597
     56  C        -18.9550   -5.1110   25.0210 C.2   109  ARG109      0.2287
     57  O        -18.1010   -5.4170   25.8520 O.2   109  ARG109     -0.2864
     58  CB       -17.4060   -4.1550   23.2330 C.3   109  ARG109      0.0334
     59  CG       -16.0940   -4.5560   23.9560 C.3   109  ARG109      0.0492
     60  CD       -15.6080   -5.9850   23.5940 C.3   109  ARG109      0.2205
     61  NE       -14.4400   -6.3930   24.3920 N.pl3 109  ARG109     -0.0865
     62  CZ       -14.4910   -6.8330   25.6630 C.cat 109  ARG109      0.5346
     63  NH1      -15.6540   -6.9150   26.3130 N.pl3 109  ARG109      0.1354
     64  NH2      -13.3710   -7.1990   26.3050 N.pl3 109  ARG109      0.1354
     65  N        -17.7130   -8.3020   19.9790 N.3   135  PHE135     -0.1241
     66  CA       -16.4210   -8.2540   19.3430 C.3   135  PHE135      0.1605
     67  C        -15.4560   -9.2570   20.0180 C.2   135  PHE135      0.2264
     68  O        -14.3750   -9.4930   19.4740 O.2   135  PHE135     -0.2867
     69  CB       -15.7700   -6.8590   19.4230 C.3   135  PHE135      0.0534
     70  CG       -16.3680   -5.8300   18.5000 C.ar  135  PHE135     -0.0203
     71  CD1      -17.4970   -5.1060   18.8770 C.ar  135  PHE135     -0.0042
     72  CD2      -15.8060   -5.5730   17.2820 C.ar  135  PHE135     -0.0042
     73  CE1      -18.0180   -4.1470   18.0360 C.ar  135  PHE135     -0.0003
     74  CE2      -16.3430   -4.6200   16.4420 C.ar  135  PHE135     -0.0003
     75  CZ       -17.4470   -3.9190   16.8380 C.ar  135  PHE135     -0.0000
     76  N         -9.7480    2.1720   18.9440 N.3   173  TRP173     -0.1241
     77  CA       -10.5520    1.1620   19.6410 C.3   173  TRP173      0.1605
     78  C        -10.9990    1.5940   21.0110 C.2   173  TRP173      0.2264
     79  O        -12.1850    1.4080   21.3870 O.2   173  TRP173     -0.2867
     80  CB        -9.8030   -0.2100   19.6800 C.3   173  TRP173      0.0550
     81  CG       -10.5500   -1.2450   20.5150 C.ar  173  TRP173      0.0003
     82  CD1      -10.1570   -1.7660   21.7340 C.ar  173  TRP173      0.0946
     83  CD2      -11.8110   -1.8690   20.1950 C.ar  173  TRP173      0.0152
     84  NE1      -11.1130   -2.6600   22.1920 N.ar  173  TRP173     -0.2442
     85  CE2      -12.1210   -2.7630   21.2590 C.ar  173  TRP173      0.0810
     86  CE3      -12.7190   -1.7390   19.1310 C.ar  173  TRP173      0.0012
     87  CZ2      -13.2910   -3.5300   21.2830 C.ar  173  TRP173      0.0191
     88  CZ3      -13.8940   -2.5500   19.1440 C.ar  173  TRP173      0.0001
     89  CH2      -14.1700   -3.4000   20.2300 C.ar  173  TRP173      0.0015
     90  N        -13.9250    3.9980   20.8370 N.3   176  PHE176     -0.1227
     91  CA       -15.0720    3.3520   20.1990 C.3   176  PHE176      0.1736
     92  C        -15.7720    2.4400   21.1850 C.2   176  PHE176      0.2595
     93  O        -16.9970    2.4710   21.4060 O.2   176  PHE176     -0.2718
     94  CB       -14.5890    2.4930   19.0280 C.3   176  PHE176      0.0547
     95  CG       -15.7050    1.7200   18.3680 C.ar  176  PHE176     -0.0202
     96  CD1      -16.7060    2.3850   17.7110 C.ar  176  PHE176     -0.0042
     97  CD2      -15.7710    0.3240   18.4680 C.ar  176  PHE176     -0.0042
     98  CE1      -17.7730    1.6820   17.0890 C.ar  176  PHE176     -0.0003
     99  CE2      -16.8010   -0.3880   17.8690 C.ar  176  PHE176     -0.0003
    100  CZ       -17.8260    0.2960   17.1870 C.ar  176  PHE176     -0.0000
    101  N        -14.9780    1.5770   21.8000 N.am  177  ARG177     -0.1980
    102  CA       -15.4960    0.7050   22.8330 C.3   177  ARG177      0.1597
    103  C        -16.1780    1.4450   23.9640 C.2   177  ARG177      0.2287
    104  O        -17.2650    1.0280   24.4050 O.2   177  ARG177     -0.2864
    105  CB       -14.3440   -0.1200   23.4300 C.3   177  ARG177      0.0334
    106  CG       -14.8040   -0.9200   24.6190 C.3   177  ARG177      0.0492
    107  CD       -13.6910   -1.7740   25.2570 C.3   177  ARG177      0.2205
    108  NE       -14.2490   -2.4590   26.4210 N.pl3 177  ARG177     -0.0865
    109  CZ       -13.6580   -3.4770   27.0390 C.cat 177  ARG177      0.5346
    110  NH1      -12.4980   -3.9460   26.5890 N.pl3 177  ARG177      0.1354
    111  NH2      -14.2480   -4.0430   28.0940 N.pl3 177  ARG177      0.1354
    112  N        -17.6180    4.3400   23.8650 N.3   179  SER179     -0.1202
    113  CA       -18.7890    5.0600   23.3520 C.3   179  SER179      0.2020
    114  C        -20.1160    4.2800   23.4270 C.2   179  SER179      0.2619
    115  O        -21.1890    4.8860   23.3170 O.2   179  SER179     -0.2717
    116  CB       -18.5380    5.5180   21.9050 C.3   179  SER179      0.2103
    117  OG       -18.7160    4.4420   20.9770 O.3   179  SER179     -0.2182
    118  N        -20.0710    2.9550   23.6120 N.am  180  GLU180     -0.1965
    119  CA       -21.3110    2.1800   23.6150 C.3   180  GLU180      0.1733
    120  C        -22.2840    2.6240   24.7130 C.2   180  GLU180      0.2616
    121  O        -21.8920    2.7280   25.8710 O.2   180  GLU180     -0.2715
    122  CB       -21.0450    0.6560   23.7140 C.3   180  GLU180      0.0429
    123  CG       -22.3310   -0.1430   23.5780 C.3   180  GLU180      0.1163
    124  CD       -22.1250   -1.6570   23.4840 C.2   180  GLU180      0.3649
    125  OE1      -20.9570   -2.1270   23.4960 O.co2 180  GLU180     -0.2457
    126  OE2      -23.1530   -2.3660   23.4100 O.co2 180  GLU180     -0.2457
    127  N        -23.5380    2.8540   24.3090 N.am  181  ARG181     -0.1977
    128  CA       -24.6070    3.4620   25.0940 C.3   181  ARG181      0.1597
    129  C        -24.4090    4.9710   25.3130 C.2   181  ARG181      0.2287
    130  O        -24.7720    5.7940   24.4560 O.2   181  ARG181     -0.2864
    131  CB       -24.8000    2.7430   26.4080 C.3   181  ARG181      0.0334
    132  CG       -25.6740    1.5350   26.3460 C.3   181  ARG181      0.0492
    133  CD       -26.1180    1.2850   27.7890 C.3   181  ARG181      0.2205
    134  NE       -27.3880    0.5810   27.9100 N.pl3 181  ARG181     -0.0865
    135  CZ       -28.5640    1.1730   27.7730 C.cat 181  ARG181      0.5346
    136  NH1      -28.5910    2.4650   27.4830 N.pl3 181  ARG181      0.1354
    137  NH2      -29.6990    0.4800   27.8860 N.pl3 181  ARG181      0.1354
@<TRIPOS>BOND
     1    38    37    2
     2    37    36    1
     3    29    28    2
     4    35    36    1
     5     1     2    1
     6    28    27    1
     7    36    39    1
     8    12    11    2
     9     8     6    1
    10    46    44    1
    11    11    10    1
    12     9    10    1
    13     9     3   am
    14     2     5    1
    15     2     3    1
    16    27    26    1
    17    27    30    1
    18    18    19    1
    19    21    20    2
    20    74    75   ar
    21    74    72   ar
    22    10    13    1
    23    13    14    1
    24     6     5    1
    25     5     7    1
    26    20    26   am
    27    20    19    1
    28     3     4    2
    29    30    31    1
    30    44    45    1
    31    44    41    1
    32    31    32    1
    33    75    73   ar
    34    19    22    1
    35    32    33    1
    36    98   100   ar
    37    98    96   ar
    38    16    15   ar
    39   100    99   ar
    40    33    34    1
    41    72    70   ar
    42    14    15    1
    43    96    95   ar
    44    99    97   ar
    45    15    17   ar
    46    73    71   ar
    47    24    23    2
    48    41    40    1
    49    41    42    1
    50    95    97   ar
    51    95    94    1
    52    22    23    1
    53    70    71   ar
    54    70    69    1
    55    23    25   am
    56    76    77    1
    57    94    91    1
    58    86    88   ar
    59    86    83   ar
    60    88    89   ar
    61    42    43    2
    62    42    47   am
    63    66    69    1
    64    66    65    1
    65    66    67    1
    66    68    67    2
    67    77    80    1
    68    77    78    1
    69    80    81    1
    70    47    48    1
    71    83    81   ar
    72    83    85   ar
    73    91    90    1
    74    91    92    1
    75    89    87   ar
    76    81    82   ar
    77   117   116    1
    78    78    79    2
    79    92    93    2
    80    92   101   am
    81    85    87   ar
    82    85    84   ar
    83    50    49    2
    84    48    49    1
    85    48    51    1
    86    82    84   ar
    87   101   102    1
    88    49    54   am
    89   116   113    1
    90    51    53    1
    91    51    52    1
    92    54    55    1
    93   102   105    1
    94   102   103    1
    95    58    55    1
    96    58    59    1
    97   115   114    2
    98   113   114    1
    99   113   112    1
   100   126   124   ar
   101   114   118   am
   102   105   106    1
   103   124   125   ar
   104   124   123    1
   105    55    56    1
   106   123   122    1
   107    60    59    1
   108    60    61    1
   109   118   119    1
   110   119   122    1
   111   119   120    1
   112   103   104    2
   113   127   120   am
   114   127   128    1
   115    61    62    2
   116   130   129    2
   117   106   107    1
   118   120   121    2
   119    56    57    2
   120   128   129    1
   121   128   131    1
   122   107   108    1
   123    62    64    1
   124    62    63    1
   125   132   131    1
   126   132   133    1
   127   108   109    2
   128   110   109    1
   129   109   111    1
   130   136   135    1
   131   135   137    1
   132   135   134    2
   133   133   134    1
