@<TRIPOS>MOLECULE
tmp/4yytA03.pdb
 130 127 0 0 0
SMALL
GASTEIGER

@<TRIPOS>ATOM
      1  N         -0.0880    1.8660   73.7300 N.3    59  ASN59      -0.1240
      2  CA         1.0470    2.6690   74.1800 C.3    59  ASN59       0.1653
      3  C          2.3150    1.8570   74.4490 C.2    59  ASN59       0.2266
      4  O          3.2690    2.3700   75.0320 O.2    59  ASN59      -0.2867
      5  CB         0.6750    3.5150   75.4070 C.3    59  ASN59       0.1155
      6  CG         0.3050    2.6710   76.6100 C.2    59  ASN59       0.2627
      7  OD1        0.6870    1.5070   76.7030 O.2    59  ASN59      -0.2716
      8  ND2       -0.4450    3.2580   77.5390 N.am   59  ASN59      -0.0877
      9  N         -5.1110    2.0270   75.9970 N.3    64  ASN64      -0.1240
     10  CA        -5.9800    2.9500   76.7140 C.3    64  ASN64       0.1653
     11  C         -7.1560    3.3990   75.8730 C.2    64  ASN64       0.2266
     12  O         -6.9880    3.8110   74.7180 O.2    64  ASN64      -0.2867
     13  CB        -5.2200    4.2060   77.1390 C.3    64  ASN64       0.1155
     14  CG        -4.1850    3.9350   78.1950 C.2    64  ASN64       0.2627
     15  OD1       -4.0300    2.8080   78.6550 O.2    64  ASN64      -0.2716
     16  ND2       -3.4580    4.9720   78.5810 N.am   64  ASN64      -0.0877
     17  N         -9.3130    7.8680   81.3370 N.3    89  GLN89      -0.1245
     18  CA        -9.0300    6.7060   80.5030 C.3    89  GLN89       0.1566
     19  C         -9.3000    5.4280   81.2720 C.2    89  GLN89       0.2260
     20  O         -9.3390    5.4420   82.5050 O.2    89  GLN89      -0.2867
     21  CB        -7.5740    6.7140   80.0060 C.3    89  GLN89       0.0367
     22  CG        -6.5240    6.8620   81.1060 C.3    89  GLN89       0.0905
     23  CD        -5.7380    5.5920   81.3760 C.2    89  GLN89       0.2608
     24  OE1       -6.2480    4.4820   81.2340 O.2    89  GLN89      -0.2717
     25  NE2       -4.4910    5.7560   81.8100 N.am   89  GLN89      -0.0878
     26  N         -7.9310    1.1090   81.0080 N.3    91  HIS91      -0.1241
     27  CA        -7.0490    0.1340   80.3960 C.3    91  HIS91       0.1621
     28  C         -7.1190   -1.1270   81.2510 C.2    91  HIS91       0.2264
     29  O         -7.7570   -1.1470   82.3140 O.2    91  HIS91      -0.2867
     30  CB        -5.6080    0.6480   80.3500 C.3    91  HIS91       0.0745
     31  CG        -5.0520    0.9190   81.7090 C.ar   91  HIS91       0.0817
     32  ND1       -5.1990    2.1320   82.3420 N.ar   91  HIS91      -0.2268
     33  CD2       -4.4280    0.1040   82.5940 C.ar   91  HIS91       0.1154
     34  CE1       -4.6600    2.0630   83.5490 C.ar   91  HIS91       0.1986
     35  NE2       -4.1920    0.8400   83.7280 N.ar   91  HIS91      -0.2212
     36  N         -4.7950   -4.8550   82.5970 N.3    93  HIS93      -0.1241
     37  CA        -3.5850   -5.6600   82.7490 C.3    93  HIS93       0.1621
     38  C         -4.0280   -7.1110   82.6610 C.2    93  HIS93       0.2264
     39  O         -5.1000   -7.4560   83.1660 O.2    93  HIS93      -0.2867
     40  CB        -2.9250   -5.3990   84.1020 C.3    93  HIS93       0.0745
     41  CG        -2.6430   -3.9550   84.3580 C.ar   93  HIS93       0.0817
     42  ND1       -1.4020   -3.3940   84.1610 N.ar   93  HIS93      -0.2268
     43  CD2       -3.4530   -2.9460   84.7560 C.ar   93  HIS93       0.1154
     44  CE1       -1.4560   -2.1040   84.4480 C.ar   93  HIS93       0.1986
     45  NE2       -2.6910   -1.8070   84.8070 N.ar   93  HIS93      -0.2212
     46  N         -8.7260   -1.0310   84.9650 N.3   116  HIS116     -0.1241
     47  CA        -8.4770    0.2020   85.7110 C.3   116  HIS116      0.1621
     48  C         -9.1560    1.3770   85.0220 C.2   116  HIS116      0.2264
     49  O         -8.7950    1.7280   83.8900 O.2   116  HIS116     -0.2867
     50  CB        -6.9700    0.4680   85.7990 C.3   116  HIS116      0.0745
     51  CG        -6.2680   -0.4950   86.6890 C.ar  116  HIS116      0.0817
     52  ND1       -4.9030   -0.7130   86.6660 N.ar  116  HIS116     -0.2268
     53  CD2       -6.7730   -1.3200   87.6360 C.ar  116  HIS116      0.1154
     54  CE1       -4.6080   -1.6290   87.5740 C.ar  116  HIS116      0.1986
     55  NE2       -5.7230   -2.0030   88.1830 N.ar  116  HIS116     -0.2212
     56  N         -9.4250    5.1970   85.3450 N.3   118  VAL118     -0.1245
     57  CA        -8.5560    6.1950   85.9500 C.3   118  VAL118      0.1561
     58  C         -9.2370    7.5540   85.9890 C.2   118  VAL118      0.2260
     59  O         -9.7180    8.0280   84.9620 O.2   118  VAL118     -0.2867
     60  CB        -7.2350    6.2900   85.1500 C.3   118  VAL118      0.0252
     61  CG1       -6.2760    7.3110   85.7790 C.3   118  VAL118      0.0019
     62  CG2       -6.5820    4.9100   85.0260 C.3   118  VAL118      0.0019
     63  N         -4.8300   16.7160   84.8990 N.3   127  PHE127     -0.1241
     64  CA        -4.2120   15.4770   85.3180 C.3   127  PHE127      0.1605
     65  C         -2.7710   15.6770   85.7740 C.2   127  PHE127      0.2264
     66  O         -2.3500   15.0840   86.7630 O.2   127  PHE127     -0.2867
     67  CB        -4.2770   14.4650   84.1750 C.3   127  PHE127      0.0534
     68  CG        -3.7550   13.1060   84.5340 C.ar  127  PHE127     -0.0203
     69  CD1       -4.6040   12.1320   85.0210 C.ar  127  PHE127     -0.0042
     70  CD2       -2.4120   12.7940   84.3730 C.ar  127  PHE127     -0.0042
     71  CE1       -4.1250   10.8740   85.3490 C.ar  127  PHE127     -0.0003
     72  CE2       -1.9290   11.5380   84.7000 C.ar  127  PHE127     -0.0003
     73  CZ        -2.7900   10.5780   85.1910 C.ar  127  PHE127     -0.0000
     74  N         -8.5200    5.3930   91.1840 N.3   139  VAL139     -0.1245
     75  CA        -8.6210    4.3410   90.1900 C.3   139  VAL139      0.1561
     76  C         -9.6050    3.2970   90.6860 C.2   139  VAL139      0.2260
     77  O         -9.4830    2.7880   91.8090 O.2   139  VAL139     -0.2867
     78  CB        -7.2540    3.7050   89.8360 C.3   139  VAL139      0.0252
     79  CG1       -7.4290    2.6810   88.7310 C.3   139  VAL139      0.0019
     80  CG2       -6.2600    4.7690   89.3900 C.3   139  VAL139      0.0019
     81  N          0.2620    4.6990   91.3570 N.3   194  LEU194     -0.1231
     82  CA         0.2540    4.1290   90.0150 C.3   194  LEU194      0.1693
     83  C          0.9940    2.7970   90.0410 C.2   194  LEU194      0.2593
     84  O          2.0000    2.6580   90.7430 O.2   194  LEU194     -0.2718
     85  CB         0.9620    5.0590   89.0370 C.3   194  LEU194      0.0284
     86  CG         0.4400    6.4870   88.9070 C.3   194  LEU194      0.0019
     87  CD1        1.3170    7.2590   87.9330 C.3   194  LEU194      0.0001
     88  CD2       -1.0160    6.4780   88.4540 C.3   194  LEU194      0.0001
     89  N          0.5410    1.8270   89.2570 N.am  195  THR195     -0.1939
     90  CA         1.1920    0.5180   89.2450 C.3   195  THR195      0.2028
     91  C          2.2280    0.3710   88.1310 C.2   195  THR195      0.2643
     92  O          2.8310   -0.6890   87.9930 O.2   195  THR195     -0.2714
     93  CB         0.1790   -0.6130   89.0880 C.3   195  THR195      0.1808
     94  OG1       -0.4070   -0.5340   87.7840 O.3   195  THR195     -0.2208
     95  CG2       -0.9140   -0.5540   90.1610 C.3   195  THR195      0.0379
     96  N          2.4270    1.4270   87.3480 N.am  196  THR196     -0.1937
     97  CA         3.5180    1.4790   86.3750 C.3   196  THR196      0.2013
     98  C          4.3350    2.7220   86.6670 C.2   196  THR196      0.2484
     99  O          3.8430    3.6610   87.2930 O.2   196  THR196     -0.2729
    100  CB         3.0340    1.5870   84.9050 C.3   196  THR196      0.1807
    101  OG1        2.5510    2.9120   84.6450 O.3   196  THR196     -0.2208
    102  CG2        1.9660    0.5600   84.5830 C.3   196  THR196      0.0379
    103  N          5.5920    2.7450   86.2050 N.am  197  PRO197     -0.2715
    104  CA         6.3400    4.0040   86.2360 C.3   197  PRO197      0.1521
    105  C          5.4710    5.1230   85.6560 C.2   197  PRO197      0.2440
    106  O          4.7620    4.9000   84.6660 O.2   197  PRO197     -0.2731
    107  CB         7.5700    3.6940   85.3780 C.3   197  PRO197      0.0310
    108  CG         7.7850    2.2190   85.6110 C.3   197  PRO197      0.0237
    109  CD         6.3910    1.6420   85.6460 C.3   197  PRO197      0.0939
    110  N          5.4970    6.3130   86.2730 N.am  198  PRO198     -0.2727
    111  CA         6.3980    6.7550   87.3500 C.3   198  PRO198      0.1402
    112  C          6.0430    6.3420   88.7960 C.2   198  PRO198      0.2269
    113  O          6.7110    6.8210   89.7150 O.2   198  PRO198     -0.2865
    114  CB         6.3860    8.2780   87.1890 C.3   198  PRO198      0.0296
    115  CG         5.0260    8.5700   86.6420 C.3   198  PRO198      0.0237
    116  CD         4.7010    7.4300   85.7290 C.3   198  PRO198      0.0939
    117  N         -7.2640    3.9370   95.7700 N.3   205  TRP205     -0.1241
    118  CA        -7.7090    2.7350   95.0800 C.3   205  TRP205      0.1605
    119  C         -9.0680    2.3070   95.5830 C.2   205  TRP205      0.2264
    120  O         -9.3050    2.2710   96.7970 O.2   205  TRP205     -0.2867
    121  CB        -6.6990    1.5970   95.2740 C.3   205  TRP205      0.0550
    122  CG        -5.5860    1.7060   94.2990 C.ar  205  TRP205      0.0003
    123  CD1       -4.3610    2.2960   94.4880 C.ar  205  TRP205      0.0946
    124  CD2       -5.6190    1.2820   92.9380 C.ar  205  TRP205      0.0152
    125  NE1       -3.6320    2.2400   93.3240 N.ar  205  TRP205     -0.2442
    126  CE2       -4.3840    1.6220   92.3600 C.ar  205  TRP205      0.0810
    127  CE3       -6.5770    0.6360   92.1520 C.ar  205  TRP205      0.0012
    128  CZ2       -4.0870    1.3410   91.0330 C.ar  205  TRP205      0.0191
    129  CZ3       -6.2720    0.3410   90.8440 C.ar  205  TRP205      0.0001
    130  CH2       -5.0420    0.7010   90.2930 C.ar  205  TRP205      0.0015
@<TRIPOS>BOND
     1     1     2    1
     2     2     3    1
     3     2     5    1
     4     3     4    2
     5    12    11    2
     6     5     6    1
     7    11    10    1
     8     9    10    1
     9     6     7    2
    10     6     8   am
    11    10    13    1
    12    13    14    1
    13    14    16   am
    14    14    15    2
    15    21    18    1
    16    21    22    1
    17    30    27    1
    18    30    31    1
    19    27    26    1
    20    27    28    1
    21    18    19    1
    22    18    17    1
    23    22    23    1
    24    24    23    2
    25    28    29    2
    26    19    20    2
    27    23    25   am
    28    31    32   ar
    29    31    33   ar
    30    32    34   ar
    31    33    35   ar
    32    36    37    1
    33    38    37    1
    34    38    39    2
    35    37    40    1
    36    34    35   ar
    37    49    48    2
    38    40    41    1
    39    42    41   ar
    40    42    44   ar
    41    67    68    1
    42    67    64    1
    43    41    43   ar
    44    70    68   ar
    45    70    72   ar
    46    44    45   ar
    47    68    69   ar
    48   102   100    1
    49   101   100    1
    50   106   105    2
    51    72    73   ar
    52    43    45   ar
    53    63    64    1
    54   100    97    1
    55    59    58    2
    56    46    47    1
    57    69    71   ar
    58    48    47    1
    59    62    60    1
    60    60    61    1
    61    60    57    1
    62    73    71   ar
    63    64    65    1
    64    56    57    1
    65   107   108    1
    66   107   104    1
    67   108   109    1
    68   109   103    1
    69   105   104    1
    70   105   110   am
    71    47    50    1
    72   116   110    1
    73   116   115    1
    74    65    66    2
    75    50    51    1
    76    57    58    1
    77   103   104    1
    78   103    98   am
    79   110   111    1
    80    97    98    1
    81    97    96    1
    82   115   114    1
    83    52    51   ar
    84    52    54   ar
    85    98    99    2
    86    51    53   ar
    87   114   111    1
    88    96    91   am
    89   111   112    1
    90    54    55   ar
    91    53    55   ar
    92    94    93    1
    93    87    86    1
    94    92    91    2
    95    91    90    1
    96    88    86    1
    97    79    78    1
    98   112   113    2
    99    86    85    1
   100    85    82    1
   101    93    90    1
   102    93    95    1
   103    90    89    1
   104    89    83   am
   105    80    78    1
   106    78    75    1
   107    82    83    1
   108    82    81    1
   109    83    84    2
   110    75    76    1
   111    75    74    1
   112   130   129   ar
   113   130   128   ar
   114    76    77    2
   115   129   127   ar
   116   128   126   ar
   117   127   124   ar
   118   126   124   ar
   119   126   125   ar
   120   124   122   ar
   121   125   123   ar
   122   122   123   ar
   123   122   121    1
   124   118   121    1
   125   118   119    1
   126   118   117    1
   127   119   120    2
