@<TRIPOS>MOLECULE
tmp/4yyyA01.pdb
 103 97 0 0 0
SMALL
GASTEIGER

@<TRIPOS>ATOM
      1  N        -32.0870  -44.1110    2.7830 N.3    85  HIS85      -0.1226
      2  CA       -31.3680  -45.2750    3.2850 C.3    85  HIS85       0.1752
      3  C        -32.3940  -46.2900    3.7230 C.2    85  HIS85       0.2597
      4  O        -33.5420  -45.9310    3.9530 O.2    85  HIS85      -0.2718
      5  CB       -30.4300  -44.8980    4.4160 C.3    85  HIS85       0.0759
      6  CG       -29.4740  -45.9890    4.7940 C.ar   85  HIS85       0.0818
      7  ND1      -28.8110  -46.7560    3.8600 N.ar   85  HIS85      -0.2268
      8  CD2      -29.0690  -46.4360    6.0070 C.ar   85  HIS85       0.1154
      9  CE1      -28.0350  -47.6270    4.4810 C.ar   85  HIS85       0.1986
     10  NE2      -28.1740  -47.4600    5.7810 N.ar   85  HIS85      -0.2212
     11  N        -32.0030  -47.5550    3.8150 N.am   86  SER86      -0.1938
     12  CA       -32.9690  -48.6220    4.0760 C.3    86  SER86       0.2055
     13  C        -32.3050  -49.8530    4.6550 C.2    86  SER86       0.2643
     14  O        -31.1680  -50.1670    4.3100 O.2    86  SER86      -0.2714
     15  CB       -33.7150  -48.9950    2.7880 C.3    86  SER86       0.2130
     16  OG       -34.3700  -50.2400    2.9150 O.3    86  SER86      -0.2179
     17  N        -33.0240  -50.5640    5.5220 N.am   87  THR87      -0.1950
     18  CA       -32.4710  -51.7740    6.1260 C.3    87  THR87       0.1897
     19  C        -32.7250  -52.9730    5.1990 C.2    87  THR87       0.2313
     20  O        -32.6850  -54.1300    5.6350 O.2    87  THR87      -0.2863
     21  CB       -33.0410  -52.0100    7.5580 C.3    87  THR87       0.1794
     22  OG1      -34.2670  -52.7530    7.5120 O.3    87  THR87      -0.2208
     23  CG2      -33.2860  -50.6730    8.2570 C.3    87  THR87       0.0378
     24  N        -15.7590  -47.1790   10.6390 N.3   164  ASP164     -0.1239
     25  CA       -16.8510  -48.0920   10.9330 C.3   164  ASP164      0.1674
     26  C        -16.4590  -49.5450   10.6690 C.2   164  ASP164      0.2266
     27  O        -17.0420  -50.4730   11.2520 O.2   164  ASP164     -0.2867
     28  CB       -18.0990  -47.7190   10.1200 C.3   164  ASP164      0.1410
     29  CG       -19.2800  -48.6410   10.4110 C.2   164  ASP164      0.3668
     30  OD1      -19.5300  -48.9140   11.6060 O.co2 164  ASP164     -0.2456
     31  OD2      -19.9450  -49.1120    9.4570 O.co2 164  ASP164     -0.2456
     32  N        -17.0280  -52.0810   13.2260 N.3   168  TYR168     -0.1241
     33  CA       -18.0710  -53.0930   13.1110 C.3   168  TYR168      0.1605
     34  C        -17.4860  -54.4820   13.3040 C.2   168  TYR168      0.2264
     35  O        -18.0750  -55.3290   13.9800 O.2   168  TYR168     -0.2867
     36  CB       -18.8180  -53.0430   11.7720 C.3   168  TYR168      0.0534
     37  CG       -19.8830  -54.1200   11.7710 C.ar  168  TYR168     -0.0201
     38  CD1      -21.0960  -53.9260   12.4270 C.ar  168  TYR168     -0.0009
     39  CD2      -19.6430  -55.3650   11.2010 C.ar  168  TYR168     -0.0009
     40  CE1      -22.0580  -54.9280   12.4770 C.ar  168  TYR168      0.0417
     41  CE2      -20.5920  -56.3720   11.2400 C.ar  168  TYR168      0.0417
     42  CZ       -21.8010  -56.1540   11.8710 C.ar  168  TYR168      0.1957
     43  OH       -22.7400  -57.1730   11.8920 O.3   168  TYR168     -0.2866
     44  N        -17.0130  -55.2010   16.8050 N.3   171  ARG171     -0.1245
     45  CA       -18.2940  -55.3220   17.4560 C.3   171  ARG171      0.1563
     46  C        -18.8230  -56.7070   17.1760 C.2   171  ARG171      0.2260
     47  O        -19.4630  -57.3040   17.9960 O.2   171  ARG171     -0.2867
     48  CB       -19.2780  -54.3100   16.9060 C.3   171  ARG171      0.0307
     49  CG       -18.9600  -52.8780   17.2410 C.3   171  ARG171      0.0489
     50  CD       -19.9520  -51.9110   16.6310 C.3   171  ARG171      0.2205
     51  NE       -21.3140  -52.3990   16.6830 N.pl3 171  ARG171     -0.0865
     52  CZ       -22.2970  -51.9330   15.9340 C.cat 171  ARG171      0.5346
     53  NH1      -23.5460  -51.9950   16.3580 N.pl3 171  ARG171      0.1354
     54  NH2      -22.0280  -51.4120   14.7640 N.pl3 171  ARG171      0.1354
     55  N        -22.7170  -55.7190   18.6870 N.3   177  VAL177     -0.1245
     56  CA       -23.2790  -55.2990   17.4340 C.3   177  VAL177      0.1561
     57  C        -24.4580  -54.4690   17.7330 C.2   177  VAL177      0.2260
     58  O        -24.7690  -53.5290   17.0440 O.2   177  VAL177     -0.2867
     59  CB       -23.7750  -56.4740   16.6270 C.3   177  VAL177      0.0252
     60  CG1      -24.3890  -55.9570   15.3530 C.3   177  VAL177      0.0019
     61  CG2      -22.6430  -57.4340   16.3330 C.3   177  VAL177      0.0019
     62  N        -25.6050  -49.1840   16.4720 N.3   183  ILE183     -0.1245
     63  CA       -26.2730  -49.4730   15.2150 C.3   183  ILE183      0.1561
     64  C        -26.6170  -48.1810   14.4890 C.2   183  ILE183      0.2260
     65  O        -26.3020  -48.0190   13.3050 O.2   183  ILE183     -0.2867
     66  CB       -27.5540  -50.2910   15.4350 C.3   183  ILE183      0.0252
     67  CG1      -27.2620  -51.5090   16.3210 C.3   183  ILE183      0.0019
     68  CG2      -28.1650  -50.6990   14.0950 C.3   183  ILE183      0.0019
     69  CD1      -28.4530  -52.4190   16.5320 C.3   183  ILE183      0.0001
     70  N        -23.3870  -47.0290   12.8530 N.3   186  SER186     -0.1202
     71  CA       -22.8670  -47.6890   11.6610 C.3   186  SER186      0.2020
     72  C        -23.8070  -47.4970   10.4700 C.2   186  SER186      0.2618
     73  O        -23.3630  -47.4880    9.3240 O.2   186  SER186     -0.2717
     74  CB       -22.6230  -49.1800   11.9190 C.3   186  SER186      0.2103
     75  OG       -23.7840  -49.8210   12.4190 O.3   186  SER186     -0.2182
     76  N        -25.1010  -47.3450   10.7500 N.am  187  ILE187     -0.1979
     77  CA       -26.1160  -47.1550    9.7150 C.3   187  ILE187      0.1595
     78  C        -26.0260  -45.7780    9.0720 C.2   187  ILE187      0.2287
     79  O        -26.0950  -45.6430    7.8470 O.2   187  ILE187     -0.2864
     80  CB       -27.5450  -47.3230   10.2780 C.3   187  ILE187      0.0276
     81  CG1      -27.9600  -48.7860   10.3500 C.3   187  ILE187      0.0022
     82  CG2      -28.5440  -46.6130    9.4180 C.3   187  ILE187      0.0022
     83  CD1      -29.3440  -48.9680   10.9660 C.3   187  ILE187      0.0001
     84  N        -21.9560  -43.6600    6.8160 N.3   190  LYS190     -0.1245
     85  CA       -21.7550  -43.7060    5.3640 C.3   190  LYS190      0.1561
     86  C        -22.7620  -42.8280    4.6400 C.2   190  LYS190      0.2260
     87  O        -22.3730  -41.9540    3.8870 O.2   190  LYS190     -0.2867
     88  CB       -21.8340  -45.1440    4.8560 C.3   190  LYS190      0.0271
     89  CG       -20.6860  -46.0050    5.3700 C.3   190  LYS190      0.0035
     90  CD       -20.3730  -47.1940    4.4610 C.3   190  LYS190      0.0206
     91  CE       -18.9520  -47.7110    4.7260 C.3   190  LYS190      0.1093
     92  NZ       -18.6730  -47.8740    6.2040 N.3   190  LYS190     -0.1314
     93  N        -34.9390  -56.4050    9.3380 N.3   210  PHE210     -0.1241
     94  CA       -33.7090  -56.3310   10.1170 C.3   210  PHE210      0.1605
     95  C        -34.0200  -56.2900   11.6220 C.2   210  PHE210      0.2264
     96  O        -33.2370  -56.7310   12.4660 O.2   210  PHE210     -0.2867
     97  CB       -32.9220  -55.0990    9.6830 C.3   210  PHE210      0.0534
     98  CG       -31.8000  -54.7340   10.5990 C.ar  210  PHE210     -0.0203
     99  CD1      -30.8480  -55.6650   10.9590 C.ar  210  PHE210     -0.0042
    100  CD2      -31.6790  -53.4380   11.0750 C.ar  210  PHE210     -0.0042
    101  CE1      -29.8120  -55.3180   11.8000 C.ar  210  PHE210     -0.0003
    102  CE2      -30.6410  -53.0860   11.9130 C.ar  210  PHE210     -0.0003
    103  CZ       -29.7060  -54.0280   12.2690 C.ar  210  PHE210     -0.0000
@<TRIPOS>BOND
     1     1     2    1
     2    15    16    1
     3    15    12    1
     4     2     3    1
     5     2     5    1
     6     3    11   am
     7     3     4    2
     8    11    12    1
     9     7     9   ar
    10     7     6   ar
    11    87    86    2
    12    12    13    1
    13    14    13    2
    14     5     6    1
    15    90    91    1
    16    90    89    1
    17     9    10   ar
    18    86    85    1
    19    13    17   am
    20    91    92    1
    21     6     8   ar
    22    88    85    1
    23    88    89    1
    24    19    20    2
    25    19    18    1
    26    85    84    1
    27    17    18    1
    28    10     8   ar
    29    18    21    1
    30    22    21    1
    31    21    23    1
    32    79    78    2
    33    78    77    1
    34    73    72    2
    35    93    94    1
    36    82    80    1
    37    31    29   ar
    38    97    94    1
    39    97    98    1
    40    77    80    1
    41    77    76    1
    42    94    95    1
    43    28    29    1
    44    28    25    1
    45    80    81    1
    46    81    83    1
    47    29    30   ar
    48    72    76   am
    49    72    71    1
    50    98    99   ar
    51    98   100   ar
    52    24    25    1
    53    26    25    1
    54    26    27    2
    55    99   101   ar
    56   100   102   ar
    57    39    41   ar
    58    39    37   ar
    59    41    42   ar
    60    95    96    2
    61    71    74    1
    62    71    70    1
    63    37    36    1
    64    37    38   ar
    65    36    33    1
    66   101   103   ar
    67    42    43    1
    68    42    40   ar
    69   102   103   ar
    70    74    75    1
    71    38    40   ar
    72    33    32    1
    73    33    34    1
    74    34    35    2
    75    65    64    2
    76    68    66    1
    77    64    63    1
    78    54    52    1
    79    63    66    1
    80    63    62    1
    81    60    59    1
    82    66    67    1
    83    52    53    1
    84    52    51    2
    85    67    69    1
    86    61    59    1
    87    59    56    1
    88    50    51    1
    89    50    49    1
    90    44    45    1
    91    48    49    1
    92    48    45    1
    93    58    57    2
    94    46    45    1
    95    46    47    2
    96    56    57    1
    97    56    55    1
