@<TRIPOS>MOLECULE
tmp/4yyyA00.pdb
 96 90 0 0 0
SMALL
GASTEIGER

@<TRIPOS>ATOM
      1  N        -31.9790  -41.7310    0.2220 N.3    84  LYS84      -0.1231
      2  CA       -32.7970  -42.6070    1.0080 C.3    84  LYS84       0.1693
      3  C        -31.8970  -43.7090    1.5280 C.2    84  LYS84       0.2592
      4  O        -31.0110  -44.1680    0.8090 O.2    84  LYS84      -0.2718
      5  CB       -33.9470  -43.1820    0.1920 C.3    84  LYS84       0.0285
      6  CG       -34.3150  -44.5740    0.6600 C.3    84  LYS84       0.0035
      7  CD       -35.6010  -45.0590    0.0940 C.3    84  LYS84       0.0206
      8  CE       -35.4750  -46.5410   -0.1500 C.3    84  LYS84       0.1093
      9  NZ       -34.4880  -46.8040   -1.2360 N.3    84  LYS84      -0.1314
     10  N        -32.0870  -44.1110    2.7830 N.am   85  HIS85      -0.1962
     11  CA       -31.3680  -45.2750    3.2850 C.3    85  HIS85       0.1787
     12  C        -32.3940  -46.2900    3.7230 C.2    85  HIS85       0.2620
     13  O        -33.5420  -45.9310    3.9530 O.2    85  HIS85      -0.2715
     14  CB       -30.4300  -44.8980    4.4160 C.3    85  HIS85       0.0785
     15  CG       -29.4740  -45.9890    4.7940 C.ar   85  HIS85       0.0821
     16  ND1      -28.8110  -46.7560    3.8600 N.ar   85  HIS85      -0.2267
     17  CD2      -29.0690  -46.4360    6.0070 C.ar   85  HIS85       0.1154
     18  CE1      -28.0350  -47.6270    4.4810 C.ar   85  HIS85       0.1986
     19  NE2      -28.1740  -47.4600    5.7810 N.ar   85  HIS85      -0.2212
     20  N        -32.0030  -47.5550    3.8150 N.am   86  SER86      -0.1950
     21  CA       -32.9690  -48.6220    4.0760 C.3    86  SER86       0.1924
     22  C        -32.3050  -49.8530    4.6550 C.2    86  SER86       0.2314
     23  O        -31.1680  -50.1670    4.3100 O.2    86  SER86      -0.2863
     24  CB       -33.7150  -48.9950    2.7880 C.3    86  SER86       0.2116
     25  OG       -34.3700  -50.2400    2.9150 O.3    86  SER86      -0.2180
     26  N        -32.9960  -52.6690    3.9250 N.3    88  GLY88      -0.1225
     27  CA       -33.0230  -53.6510    2.8440 C.3    88  GLY88       0.1811
     28  C        -34.2050  -54.6050    2.7880 C.2    88  GLY88       0.2280
     29  O        -34.9680  -54.7150    3.7420 O.2    88  GLY88      -0.2866
     30  N        -37.2000  -55.2030   -2.8640 N.3    92  ASP92      -0.1239
     31  CA       -37.1550  -53.7780   -2.6130 C.3    92  ASP92       0.1674
     32  C        -36.3110  -53.1000   -3.6940 C.2    92  ASP92       0.2266
     33  O        -35.1310  -52.7940   -3.4820 O.2    92  ASP92      -0.2867
     34  CB       -36.6140  -53.4960   -1.2040 C.3    92  ASP92       0.1410
     35  CG       -36.6480  -52.0300   -0.8510 C.2    92  ASP92       0.3668
     36  OD1      -36.9900  -51.1950   -1.7370 O.co2  92  ASP92      -0.2456
     37  OD2      -36.3050  -51.7050    0.3040 O.co2  92  ASP92      -0.2456
     38  N        -37.2170  -50.2170   -4.9710 N.3    94  THR94      -0.1203
     39  CA       -37.6510  -48.8180   -4.8520 C.3    94  THR94       0.1994
     40  C        -36.6320  -47.7490   -5.2100 C.2    94  THR94       0.2618
     41  O        -36.9980  -46.7110   -5.7710 O.2    94  THR94      -0.2717
     42  CB       -38.1210  -48.4700   -3.3750 C.3    94  THR94       0.1784
     43  OG1      -37.0080  -48.5750   -2.4810 O.3    94  THR94      -0.2211
     44  CG2      -39.2430  -49.3890   -2.8900 C.3    94  THR94       0.0376
     45  N        -35.3650  -47.9560   -4.8540 N.am   95  SER95      -0.1951
     46  CA       -34.3780  -46.8970   -5.0730 C.3    95  SER95       0.1924
     47  C        -34.1990  -46.6590   -6.5820 C.2    95  SER95       0.2314
     48  O        -33.8300  -45.5630   -7.0010 O.2    95  SER95      -0.2863
     49  CB       -33.0140  -47.2050   -4.4180 C.3    95  SER95       0.2116
     50  OG       -33.0830  -47.8110   -3.1320 O.3    95  SER95      -0.2180
     51  N        -27.0310  -41.4280   -4.6550 N.3   111  MET111     -0.1230
     52  CA       -27.1900  -42.6670   -3.9430 C.3   111  MET111      0.1702
     53  C        -26.0080  -43.5550   -3.9450 C.2   111  MET111      0.2592
     54  O        -25.7140  -44.1800   -4.9190 O.2   111  MET111     -0.2718
     55  CB       -28.2950  -43.4860   -4.5560 C.3   111  MET111      0.0401
     56  CG       -29.6040  -42.7840   -4.6610 C.3   111  MET111      0.0596
     57  SD       -30.9550  -43.9080   -4.9530 S.3   111  MET111     -0.1393
     58  CE       -30.2950  -45.5040   -4.5770 C.3   111  MET111      0.0692
     59  N        -25.3600  -43.6510   -2.8070 N.am  112  ILE112     -0.1966
     60  CA       -24.2370  -44.5590   -2.6920 C.3   112  ILE112      0.1727
     61  C        -24.6660  -45.8010   -1.9520 C.2   112  ILE112      0.2617
     62  O        -25.4320  -45.7270   -0.9950 O.2   112  ILE112     -0.2715
     63  CB       -23.0820  -43.9020   -2.0080 C.3   112  ILE112      0.0290
     64  CG1      -22.7750  -42.5960   -2.7340 C.3   112  ILE112      0.0022
     65  CG2      -21.8800  -44.8240   -1.9660 C.3   112  ILE112      0.0023
     66  CD1      -21.4750  -41.9760   -2.3410 C.3   112  ILE112      0.0001
     67  N        -24.1870  -46.9460   -2.4270 N.am  113  SER113     -0.1936
     68  CA       -24.6240  -48.2380   -1.9390 C.3   113  SER113      0.2055
     69  C        -23.4450  -49.1200   -1.6000 C.2   113  SER113      0.2643
     70  O        -22.3000  -48.7800   -1.8810 O.2   113  SER113     -0.2714
     71  CB       -25.4950  -48.9280   -2.9750 C.3   113  SER113      0.2130
     72  OG       -26.0490  -50.1090   -2.4480 O.3   113  SER113     -0.2179
     73  N        -23.7340  -50.2670   -1.0020 N.am  114  GLY114     -0.1954
     74  CA       -22.6950  -51.1970   -0.6150 C.3   114  GLY114      0.1869
     75  C        -23.0350  -52.6300   -0.9730 C.2   114  GLY114      0.2309
     76  O        -24.0080  -53.1950   -0.4630 O.2   114  GLY114     -0.2863
     77  N        -28.2910  -56.8410   -3.5460 N.3   122  GLY122     -0.1210
     78  CA       -28.0340  -55.4380   -3.4820 C.3   122  GLY122      0.1956
     79  C        -28.4300  -54.7960   -4.7650 C.2   122  GLY122      0.2612
     80  O        -28.4350  -55.4320   -5.7800 O.2   122  GLY122     -0.2717
     81  N        -28.7900  -53.5310   -4.6950 N.am  123  THR123     -0.1952
     82  CA       -29.1580  -52.7860   -5.8630 C.3   123  THR123      0.1897
     83  C        -27.9820  -52.6100   -6.8300 C.2   123  THR123      0.2313
     84  O        -28.1710  -52.5780   -8.0180 O.2   123  THR123     -0.2863
     85  CB       -29.8940  -51.5050   -5.5230 C.3   123  THR123      0.1794
     86  OG1      -29.1070  -50.7430   -4.6340 O.3   123  THR123     -0.2208
     87  CG2      -31.1500  -51.8440   -4.8290 C.3   123  THR123      0.0378
     88  N        -24.0430  -43.0150    4.9390 N.3   191  LYS191     -0.1245
     89  CA       -25.1080  -42.2480    4.3140 C.3   191  LYS191      0.1561
     90  C        -24.9940  -40.7390    4.5030 C.2   191  LYS191      0.2260
     91  O        -25.5050  -39.9670    3.6850 O.2   191  LYS191     -0.2867
     92  CB       -26.4610  -42.7140    4.8410 C.3   191  LYS191      0.0271
     93  CG       -27.4860  -42.9300    3.7560 C.3   191  LYS191      0.0035
     94  CD       -26.9570  -43.8870    2.6740 C.3   191  LYS191      0.0206
     95  CE       -27.9790  -44.1050    1.5540 C.3   191  LYS191      0.1093
     96  NZ       -27.6100  -45.2340    0.6430 N.3   191  LYS191     -0.1314
@<TRIPOS>BOND
     1    84    83    2
     2    48    47    2
     3    83    82    1
     4    47    46    1
     5    82    85    1
     6    82    81    1
     7    80    79    2
     8    41    40    2
     9    85    87    1
    10    85    86    1
    11    40    45   am
    12    40    39    1
    13    46    45    1
    14    46    49    1
    15    38    39    1
    16    57    56    1
    17    57    58    1
    18    54    53    2
    19    39    42    1
    20    79    81   am
    21    79    78    1
    22    56    55    1
    23    51    52    1
    24    55    52    1
    25    49    50    1
    26    53    52    1
    27    53    59   am
    28    32    33    2
    29    32    31    1
    30    77    78    1
    31    42    44    1
    32    42    43    1
    33    71    72    1
    34    71    68    1
    35    30    31    1
    36    59    60    1
    37    64    66    1
    38    64    63    1
    39    60    63    1
    40    60    61    1
    41    31    34    1
    42    67    61   am
    43    67    68    1
    44    63    65    1
    45    61    62    2
    46    68    69    1
    47    70    69    2
    48    36    35   ar
    49    69    73   am
    50     9     8    1
    51    34    35    1
    52    73    74    1
    53    75    74    1
    54    75    76    2
    55    35    37   ar
    56     8     7    1
    57     7     6    1
    58     5     6    1
    59     5     2    1
    60     1     2    1
    61    96    95    1
    62     4     3    2
    63     2     3    1
    64     3    10   am
    65    95    94    1
    66    94    93    1
    67    10    11    1
    68    24    25    1
    69    24    21    1
    70    28    27    1
    71    28    29    2
    72    27    26    1
    73    11    12    1
    74    11    14    1
    75    91    90    2
    76    12    20   am
    77    12    13    2
    78    93    92    1
    79    20    21    1
    80    16    18   ar
    81    16    15   ar
    82    21    22    1
    83    23    22    2
    84    89    90    1
    85    89    92    1
    86    89    88    1
    87    14    15    1
    88    18    19   ar
    89    15    17   ar
    90    19    17   ar
