@<TRIPOS>MOLECULE
tmp/4yyyB00.pdb
 118 111 0 0 0
SMALL
GASTEIGER

@<TRIPOS>ATOM
      1  N          1.6950  -64.6090   -7.5600 N.3    85  HIS85      -0.1226
      2  CA         1.7490  -63.6150   -8.6250 C.3    85  HIS85       0.1752
      3  C          1.2960  -62.2580   -8.1120 C.2    85  HIS85       0.2597
      4  O          0.3480  -62.1560   -7.3370 O.2    85  HIS85      -0.2718
      5  CB         0.9010  -64.0290   -9.8300 C.3    85  HIS85       0.0759
      6  CG         0.9660  -63.0620  -10.9730 C.ar   85  HIS85       0.0818
      7  ND1       -0.1160  -62.3160  -11.3860 N.ar   85  HIS85      -0.2268
      8  CD2        1.9880  -62.7150  -11.7920 C.ar   85  HIS85       0.1154
      9  CE1        0.2320  -61.5550  -12.4080 C.ar   85  HIS85       0.1986
     10  NE2        1.5070  -61.7750  -12.6720 N.ar   85  HIS85      -0.2212
     11  N          1.9760  -61.2130   -8.5630 N.am   86  SER86      -0.1938
     12  CA         1.6680  -59.8630   -8.1270 C.3    86  SER86       0.2055
     13  C          1.4110  -58.9820   -9.3460 C.2    86  SER86       0.2643
     14  O          2.0070  -59.2070  -10.3860 O.2    86  SER86      -0.2714
     15  CB         2.8210  -59.3170   -7.2830 C.3    86  SER86       0.2130
     16  OG         2.6940  -57.9320   -7.0460 O.3    86  SER86      -0.2179
     17  N          0.5170  -58.0030   -9.2230 N.am   87  THR87      -0.1950
     18  CA         0.3400  -57.0080  -10.2730 C.3    87  THR87       0.1897
     19  C          1.4180  -55.9340  -10.1510 C.2    87  THR87       0.2313
     20  O          1.4220  -54.9520  -10.9010 O.2    87  THR87      -0.2863
     21  CB        -1.0650  -56.3280  -10.2470 C.3    87  THR87       0.1794
     22  OG1       -1.0910  -55.2640   -9.2810 O.3    87  THR87      -0.2208
     23  CG2       -2.1840  -57.3420   -9.9870 C.3    87  THR87       0.0378
     24  N          7.8310  -60.7630  -18.8780 N.3   115  ARG115     -0.1245
     25  CA         8.5680  -59.5700  -19.2780 C.3   115  ARG115      0.1563
     26  C          8.0760  -58.2230  -18.7740 C.2   115  ARG115      0.2260
     27  O          6.9150  -58.0280  -18.4810 O.2   115  ARG115     -0.2867
     28  CB         8.7740  -59.5260  -20.7920 C.3   115  ARG115      0.0307
     29  CG        10.2420  -59.4530  -21.1880 C.3   115  ARG115      0.0489
     30  CD        11.1380  -59.6090  -19.9680 C.3   115  ARG115      0.2205
     31  NE        12.2750  -60.4970  -20.1940 N.pl3 115  ARG115     -0.0865
     32  CZ        13.5190  -60.2120  -19.8380 C.cat 115  ARG115      0.5346
     33  NH1       13.7810  -59.0640  -19.2570 N.pl3 115  ARG115      0.1354
     34  NH2       14.4930  -61.0680  -20.0720 N.pl3 115  ARG115      0.1354
     35  N          7.6970  -55.3550  -20.0750 N.3   117  LEU117     -0.1231
     36  CA         6.7840  -54.5270  -20.8110 C.3   117  LEU117      0.1693
     37  C          5.5340  -54.5960  -19.9680 C.2   117  LEU117      0.2592
     38  O          5.3140  -55.5880  -19.2760 O.2   117  LEU117     -0.2718
     39  CB         6.5650  -55.1010  -22.1950 C.3   117  LEU117      0.0284
     40  CG         7.7960  -54.7860  -23.0310 C.3   117  LEU117      0.0019
     41  CD1        8.1490  -53.3340  -22.7940 C.3   117  LEU117      0.0001
     42  CD2        8.9390  -55.6710  -22.5720 C.3   117  LEU117      0.0001
     43  N          4.6480  -53.6390  -20.2260 N.am  118  GLY118     -0.1957
     44  CA         3.5790  -53.2160  -19.3490 C.3   118  GLY118      0.1869
     45  C          4.0840  -51.9820  -18.6330 C.2   118  GLY118      0.2309
     46  O          3.3540  -51.3200  -17.8960 O.2   118  GLY118     -0.2863
     47  N         -3.9080  -60.3260  -25.7680 N.3   168  TYR168     -0.1241
     48  CA        -3.6320  -59.1040  -25.0140 C.3   168  TYR168      0.1605
     49  C         -3.1220  -58.0050  -25.9330 C.2   168  TYR168      0.2264
     50  O         -3.4480  -56.8280  -25.7510 O.2   168  TYR168     -0.2867
     51  CB        -2.6190  -59.3540  -23.8860 C.3   168  TYR168      0.0534
     52  CG        -2.1680  -58.0730  -23.2100 C.ar  168  TYR168     -0.0201
     53  CD1       -3.0390  -57.3370  -22.4150 C.ar  168  TYR168     -0.0009
     54  CD2       -0.8800  -57.5940  -23.3800 C.ar  168  TYR168     -0.0009
     55  CE1       -2.6340  -56.1600  -21.8090 C.ar  168  TYR168      0.0417
     56  CE2       -0.4650  -56.4210  -22.7750 C.ar  168  TYR168      0.0417
     57  CZ        -1.3450  -55.7100  -21.9900 C.ar  168  TYR168      0.1957
     58  OH        -0.9320  -54.5440  -21.3910 O.3   168  TYR168     -0.2866
     59  N         -6.0320  -56.4820  -27.4920 N.3   171  ARG171     -0.1245
     60  CA        -6.7780  -55.8230  -26.4270 C.3   171  ARG171      0.1563
     61  C         -6.2110  -54.4370  -26.1390 C.2   171  ARG171      0.2260
     62  O         -6.9630  -53.5030  -25.8480 O.2   171  ARG171     -0.2867
     63  CB        -6.7690  -56.6550  -25.1460 C.3   171  ARG171      0.0307
     64  CG        -7.6570  -57.8740  -25.2000 C.3   171  ARG171      0.0489
     65  CD        -8.2840  -58.1570  -23.8610 C.3   171  ARG171      0.2205
     66  NE        -7.4150  -58.8800  -22.9450 N.pl3 171  ARG171     -0.0865
     67  CZ        -7.0620  -58.4370  -21.7400 C.cat 171  ARG171      0.5346
     68  NH1       -6.2760  -59.1730  -20.9710 N.pl3 171  ARG171      0.1354
     69  NH2       -7.4910  -57.2600  -21.3000 N.pl3 171  ARG171      0.1354
     70  N         -9.0400  -53.6100  -22.6440 N.3   177  VAL177     -0.1245
     71  CA        -8.1560  -53.9890  -21.5650 C.3   177  VAL177      0.1561
     72  C         -8.9000  -54.1160  -20.2310 C.2   177  VAL177      0.2260
     73  O         -8.9070  -55.1860  -19.6140 O.2   177  VAL177     -0.2867
     74  CB        -7.0410  -52.9650  -21.4610 C.3   177  VAL177      0.0252
     75  CG1       -6.1120  -53.0980  -22.6640 C.3   177  VAL177      0.0019
     76  CG2       -7.6620  -51.5320  -21.3940 C.3   177  VAL177      0.0019
     77  N         -8.9950  -59.7540  -17.9410 N.3   183  ILE183     -0.1245
     78  CA        -7.7740  -59.6540  -17.1520 C.3   183  ILE183      0.1561
     79  C         -7.5520  -60.9410  -16.3760 C.2   183  ILE183      0.2260
     80  O         -6.4560  -61.5090  -16.3760 O.2   183  ILE183     -0.2867
     81  CB        -7.8170  -58.4730  -16.1930 C.3   183  ILE183      0.0252
     82  CG1       -7.8330  -57.1630  -16.9790 C.3   183  ILE183      0.0019
     83  CG2       -6.6040  -58.5020  -15.2870 C.3   183  ILE183      0.0019
     84  CD1       -8.2880  -55.9690  -16.2020 C.3   183  ILE183      0.0001
     85  N         -6.3220  -63.5970  -18.7960 N.3   186  SER186     -0.1202
     86  CA        -4.9290  -63.3210  -19.1210 C.3   186  SER186      0.2020
     87  C         -3.9400  -63.6390  -17.9740 C.2   186  SER186      0.2618
     88  O         -2.9960  -64.4140  -18.1610 O.2   186  SER186     -0.2717
     89  CB        -4.8020  -61.8590  -19.5270 C.3   186  SER186      0.2103
     90  OG        -3.4870  -61.5430  -19.9490 O.3   186  SER186     -0.2182
     91  N         -4.1610  -63.0520  -16.7960 N.am  187  ILE187     -0.1979
     92  CA        -3.2030  -63.1590  -15.6820 C.3   187  ILE187      0.1595
     93  C         -3.0190  -64.5840  -15.1510 C.2   187  ILE187      0.2287
     94  O         -1.9070  -65.0740  -14.9910 O.2   187  ILE187     -0.2864
     95  CB        -3.6300  -62.2630  -14.5000 C.3   187  ILE187      0.0276
     96  CG1       -3.3290  -60.7940  -14.7920 C.3   187  ILE187      0.0022
     97  CG2       -2.9150  -62.6660  -13.2500 C.3   187  ILE187      0.0022
     98  CD1       -3.5820  -59.8830  -13.6000 C.3   187  ILE187      0.0001
     99  N         -1.1420  -68.0140  -17.4960 N.3   190  LYS190     -0.1245
    100  CA         0.3030  -68.2100  -17.3890 C.3   190  LYS190      0.1561
    101  C          0.6920  -68.8450  -16.0400 C.2   190  LYS190      0.2260
    102  O          1.4840  -69.7910  -15.9620 O.2   190  LYS190     -0.2867
    103  CB         1.0200  -66.8690  -17.5670 C.3   190  LYS190      0.0271
    104  CG         0.2570  -65.8760  -18.4240 C.3   190  LYS190      0.0035
    105  CD         0.6130  -64.4280  -18.0780 C.3   190  LYS190      0.0206
    106  CE        -0.0940  -63.4560  -19.0360 C.3   190  LYS190      0.1093
    107  NZ        -0.1140  -62.0230  -18.5950 N.3   190  LYS190     -0.1314
    108  N         -2.4070  -51.2730  -10.4310 N.3   210  PHE210     -0.1241
    109  CA        -2.9110  -51.5650  -11.7680 C.3   210  PHE210      0.1605
    110  C         -4.3400  -51.0540  -11.9290 C.2   210  PHE210      0.2264
    111  O         -4.6470  -50.3270  -12.8700 O.2   210  PHE210     -0.2867
    112  CB        -2.8390  -53.0690  -12.0420 C.3   210  PHE210      0.0534
    113  CG        -3.4760  -53.4850  -13.3350 C.ar  210  PHE210     -0.0203
    114  CD1       -3.1150  -52.8830  -14.5390 C.ar  210  PHE210     -0.0042
    115  CD2       -4.4190  -54.5020  -13.3530 C.ar  210  PHE210     -0.0042
    116  CE1       -3.6970  -53.2770  -15.7300 C.ar  210  PHE210     -0.0003
    117  CE2       -5.0110  -54.8990  -14.5410 C.ar  210  PHE210     -0.0003
    118  CZ        -4.6470  -54.2870  -15.7310 C.ar  210  PHE210     -0.0000
@<TRIPOS>BOND
     1    59    60    1
     2    60    61    1
     3    60    63    1
     4    61    62    2
     5    49    50    2
     6    49    48    1
     7    47    48    1
     8    64    63    1
     9    64    65    1
    10    48    51    1
    11    51    52    1
    12    65    66    1
    13    54    52   ar
    14    54    56   ar
    15    52    53   ar
    16    40    41    1
    17    40    42    1
    18    40    39    1
    19    66    67    2
    20    56    57   ar
    21    75    74    1
    22    70    71    1
    23    53    55   ar
    24    39    36    1
    25    57    55   ar
    26    57    58    1
    27    67    69    1
    28    67    68    1
    29    71    74    1
    30    71    72    1
    31    74    76    1
    32    29    28    1
    33    29    30    1
    34    36    35    1
    35    36    37    1
    36    28    25    1
    37    72    73    2
    38    43    37   am
    39    43    44    1
    40    31    30    1
    41    31    32    2
    42    34    32    1
    43    37    38    2
    44    90    89    1
    45    32    33    1
    46    89    86    1
    47    44    45    1
    48    25    24    1
    49    25    26    1
    50    86    85    1
    51    86    87    1
    52   106   107    1
    53   106   105    1
    54    26    27    2
    55    45    46    2
    56   104   105    1
    57   104   103    1
    58    88    87    2
    59    87    91   am
    60    77    78    1
    61   103   100    1
    62    99   100    1
    63   100   101    1
    64    78    79    1
    65    78    81    1
    66    82    84    1
    67    82    81    1
    68    91    92    1
    69    79    80    2
    70    81    83    1
    71   101   102    2
    72   118   116   ar
    73   118   117   ar
    74   116   114   ar
    75    92    93    1
    76    92    95    1
    77    93    94    2
    78    96    95    1
    79    96    98    1
    80   117   115   ar
    81   114   113   ar
    82    95    97    1
    83   115   113   ar
    84   113   112    1
    85   111   110    2
    86    10     9   ar
    87    10     8   ar
    88     9     7   ar
    89   112   109    1
    90   110   109    1
    91     8     6   ar
    92   109   108    1
    93     7     6   ar
    94     6     5    1
    95    20    19    2
    96    14    13    2
    97    18    21    1
    98    18    19    1
    99    18    17    1
   100    21    23    1
   101    21    22    1
   102     5     2    1
   103    13    17   am
   104    13    12    1
   105     2     3    1
   106     2     1    1
   107    11    12    1
   108    11     3   am
   109    12    15    1
   110     3     4    2
   111    15    16    1
