@<TRIPOS>MOLECULE
tmp/4yyyB01.pdb
 90 85 0 0 0
SMALL
GASTEIGER

@<TRIPOS>ATOM
      1  N         12.7110  -50.1280    0.2420 N.3   248  SER248     -0.1217
      2  CA        13.3190  -48.8430    0.5410 C.3   248  SER248      0.1889
      3  C         14.1560  -48.4420   -0.6550 C.2   248  SER248      0.2288
      4  O         14.7000  -47.3360   -0.7230 O.2   248  SER248     -0.2866
      5  CB        14.1640  -48.9150    1.8260 C.3   248  SER248      0.2089
      6  OG        13.3590  -48.7100    2.9730 O.3   248  SER248     -0.2183
      7  N         20.2460  -56.1650   -3.5740 N.3   257  ARG257     -0.1231
      8  CA        20.9580  -55.9280   -2.3420 C.3   257  ARG257      0.1694
      9  C         19.9940  -55.9700   -1.1790 C.2   257  ARG257      0.2591
     10  O         20.2290  -56.6630   -0.1950 O.2   257  ARG257     -0.2718
     11  CB        21.6680  -54.5870   -2.3830 C.3   257  ARG257      0.0321
     12  CG        22.0860  -54.0870   -1.0260 C.3   257  ARG257      0.0489
     13  CD        23.1190  -53.0150   -1.1940 C.3   257  ARG257      0.2205
     14  NE        23.9540  -53.3560   -2.3310 N.pl3 257  ARG257     -0.0865
     15  CZ        25.0490  -52.6940   -2.6760 C.cat 257  ARG257      0.5346
     16  NH1       25.4470  -51.6550   -1.9450 N.pl3 257  ARG257      0.1354
     17  NH2       25.7450  -53.0820   -3.7450 N.pl3 257  ARG257      0.1354
     18  N         18.8870  -55.2500   -1.3200 N.am  258  GLU258     -0.1979
     19  CA        17.8910  -55.1760   -0.2630 C.3   258  GLU258      0.1602
     20  C         17.3200  -56.5550    0.0530 C.2   258  GLU258      0.2287
     21  O         17.0760  -56.8780    1.2170 O.2   258  GLU258     -0.2864
     22  CB        16.7850  -54.2040   -0.6510 C.3   258  GLU258      0.0415
     23  CG        15.6420  -54.1440    0.3320 C.3   258  GLU258      0.1163
     24  CD        15.0980  -52.7390    0.4920 C.2   258  GLU258      0.3649
     25  OE1       15.7070  -51.8200   -0.0930 O.co2 258  GLU258     -0.2457
     26  OE2       14.0810  -52.5490    1.2100 O.co2 258  GLU258     -0.2457
     27  N         20.0210  -58.3610    2.2870 N.3   261  GLN261     -0.1245
     28  CA        20.0360  -57.8220    3.6360 C.3   261  GLN261      0.1566
     29  C         18.7240  -58.1260    4.3860 C.2   261  GLN261      0.2260
     30  O         18.6840  -58.1230    5.6220 O.2   261  GLN261     -0.2867
     31  CB        20.3160  -56.3190    3.5840 C.3   261  GLN261      0.0367
     32  CG        21.5850  -55.9820    2.8050 C.3   261  GLN261      0.0905
     33  CD        21.9290  -54.5090    2.8480 C.2   261  GLN261      0.2608
     34  OE1       21.2770  -53.7270    3.5450 O.2   261  GLN261     -0.2717
     35  NE2       22.9620  -54.1190    2.1040 N.am  261  GLN261     -0.0878
     36  N         20.4370  -57.9910    8.0190 N.3   266  GLU266     -0.1231
     37  CA        21.1240  -56.7360    8.1540 C.3   266  GLU266      0.1699
     38  C         20.0900  -55.6660    8.2260 C.2   266  GLU266      0.2592
     39  O         20.2790  -54.6580    8.8680 O.2   266  GLU266     -0.2718
     40  CB        21.9430  -56.4510    6.9350 C.3   266  GLU266      0.0402
     41  CG        23.2890  -57.0800    6.8780 C.3   266  GLU266      0.1161
     42  CD        24.2390  -56.1740    6.1700 C.2   266  GLU266      0.3649
     43  OE1       23.9960  -54.9710    6.1950 O.co2 266  GLU266     -0.2457
     44  OE2       25.2160  -56.6510    5.5880 O.co2 266  GLU266     -0.2457
     45  N         19.0310  -55.8320    7.4680 N.am  267  TYR267     -0.1976
     46  CA        17.9730  -54.8710    7.4840 C.3   267  TYR267      0.1639
     47  C         16.7110  -55.5160    6.9950 C.2   267  TYR267      0.2290
     48  O         16.7630  -56.4490    6.2320 O.2   267  TYR267     -0.2864
     49  CB        18.3730  -53.7160    6.6070 C.3   267  TYR267      0.0560
     50  CG        17.3320  -52.6840    6.4490 C.ar  267  TYR267     -0.0198
     51  CD1       17.2350  -51.6460    7.3220 C.ar  267  TYR267     -0.0009
     52  CD2       16.4500  -52.7380    5.4100 C.ar  267  TYR267     -0.0009
     53  CE1       16.2710  -50.6910    7.1650 C.ar  267  TYR267      0.0417
     54  CE2       15.4910  -51.7870    5.2500 C.ar  267  TYR267      0.0417
     55  CZ        15.4130  -50.7720    6.1290 C.ar  267  TYR267      0.1957
     56  OH        14.4600  -49.8400    5.9460 O.3   267  TYR267     -0.2866
     57  N         17.5790  -45.5410   -3.3640 N.3   384  THR384     -0.1203
     58  CA        17.7360  -46.2520   -2.0860 C.3   384  THR384      0.1994
     59  C         17.4310  -45.3080   -0.9310 C.2   384  THR384      0.2618
     60  O         17.2610  -44.1020   -1.1450 O.2   384  THR384     -0.2717
     61  CB        19.1560  -46.8180   -1.8710 C.3   384  THR384      0.1784
     62  OG1       20.1250  -45.7790   -2.0680 O.3   384  THR384     -0.2211
     63  CG2       19.4400  -48.0030   -2.7890 C.3   384  THR384      0.0376
     64  N         17.3960  -45.8590    0.2860 N.am  385  ASP385     -0.1959
     65  CA        17.1170  -45.0910    1.5000 C.3   385  ASP385      0.1840
     66  C         15.8950  -44.2090    1.2830 C.2   385  ASP385      0.2621
     67  O         15.9110  -43.0200    1.5860 O.2   385  ASP385     -0.2715
     68  CB        18.3310  -44.2410    1.9050 C.3   385  ASP385      0.1450
     69  CG        19.5440  -45.0860    2.2940 C.2   385  ASP385      0.3671
     70  OD1       20.2860  -45.5100    1.3780 O.co2 385  ASP385     -0.2456
     71  OD2       19.7660  -45.3170    3.5100 O.co2 385  ASP385     -0.2456
     72  N         14.8510  -44.8020    0.7110 N.am  386  MET386     -0.1977
     73  CA        13.6350  -44.0700    0.3670 C.3   386  MET386      0.1605
     74  C         12.8860  -43.5930    1.6010 C.2   386  MET386      0.2287
     75  O         12.5850  -44.3820    2.4970 O.2   386  MET386     -0.2864
     76  CB        12.6970  -44.9400   -0.4840 C.3   386  MET386      0.0413
     77  CG        12.9500  -44.9060   -1.9870 C.3   386  MET386      0.0598
     78  SD        12.4380  -43.3610   -2.7710 S.3   386  MET386     -0.1393
     79  CE        10.8510  -43.0960   -1.9760 C.3   386  MET386      0.0692
     80  N          9.4870  -42.3040    3.5200 N.3   388  ARG388     -0.1245
     81  CA         8.2030  -42.9930    3.4790 C.3   388  ARG388      0.1563
     82  C          7.0250  -42.0450    3.7040 C.2   388  ARG388      0.2260
     83  O          7.2090  -40.8720    4.0400 O.2   388  ARG388     -0.2867
     84  CB         8.1960  -44.1280    4.5080 C.3   388  ARG388      0.0307
     85  CG         9.4580  -44.9740    4.4460 C.3   388  ARG388      0.0489
     86  CD         9.1870  -46.4480    4.6340 C.3   388  ARG388      0.2205
     87  NE         9.3070  -46.8410    6.0340 N.pl3 388  ARG388     -0.0865
     88  CZ        10.4530  -47.1610    6.6290 C.cat 388  ARG388      0.5346
     89  NH1       11.5920  -47.1400    5.9410 N.pl3 388  ARG388      0.1354
     90  NH2       10.4560  -47.5040    7.9140 N.pl3 388  ARG388      0.1354
@<TRIPOS>BOND
     1    17    15    1
     2     7     8    1
     3    57    58    1
     4    63    61    1
     5    78    77    1
     6    78    79    1
     7    15    14    2
     8    15    16    1
     9    11     8    1
    10    11    12    1
    11     8     9    1
    12    14    13    1
    13    58    61    1
    14    58    59    1
    15    62    61    1
    16    77    76    1
    17    18     9   am
    18    18    19    1
    19    13    12    1
    20     9    10    2
    21    60    59    2
    22    59    64   am
    23     4     3    2
    24     3     2    1
    25    22    19    1
    26    22    23    1
    27    76    73    1
    28    19    20    1
    29    25    24   ar
    30    20    21    2
    31     1     2    1
    32    64    65    1
    33    23    24    1
    34    73    72    1
    35    73    74    1
    36    24    26   ar
    37     2     5    1
    38    72    66   am
    39    66    65    1
    40    66    67    2
    41    70    69   ar
    42    65    68    1
    43    74    75    2
    44     5     6    1
    45    68    69    1
    46    35    33   am
    47    27    28    1
    48    69    71   ar
    49    32    33    1
    50    32    31    1
    51    33    34    2
    52    81    80    1
    53    81    82    1
    54    81    84    1
    55    31    28    1
    56    28    29    1
    57    82    83    2
    58    29    30    2
    59    85    84    1
    60    85    86    1
    61    86    87    1
    62    54    52   ar
    63    54    55   ar
    64    52    50   ar
    65    44    42   ar
    66    89    88    1
    67    56    55    1
    68    87    88    2
    69    55    53   ar
    70    42    43   ar
    71    42    41    1
    72    48    47    2
    73    50    49    1
    74    50    51   ar
    75    49    46    1
    76    88    90    1
    77    41    40    1
    78    40    37    1
    79    47    46    1
    80    53    51   ar
    81    45    46    1
    82    45    38   am
    83    36    37    1
    84    37    38    1
    85    38    39    2
