@<TRIPOS>MOLECULE
tmp/4yyzA01.pdb
 147 139 0 0 0
SMALL
GASTEIGER

@<TRIPOS>ATOM
      1  N         55.9290  -36.7480   21.6400 N.3    96  ILE96      -0.1245
      2  CA        55.2270  -35.4570   21.6430 C.3    96  ILE96       0.1561
      3  C         56.2140  -34.3480   21.9090 C.2    96  ILE96       0.2260
      4  O         57.1590  -34.5760   22.6640 O.2    96  ILE96      -0.2867
      5  CB        54.0260  -35.3460   22.6560 C.3    96  ILE96       0.0252
      6  CG1       54.3690  -35.8830   24.0450 C.3    96  ILE96       0.0019
      7  CG2       52.7560  -35.9840   22.1190 C.3    96  ILE96       0.0019
      8  CD1       53.3930  -35.4890   25.1040 C.3    96  ILE96       0.0001
      9  N         55.0460  -30.0230   26.3730 N.3    99  THR99      -0.1218
     10  CA        53.8750  -29.1940   26.5650 C.3    99  THR99       0.1862
     11  C         53.7720  -28.8590   28.0210 C.2    99  THR99       0.2287
     12  O         54.0550  -29.7050   28.8570 O.2    99  THR99      -0.2866
     13  CB        52.6320  -29.9380   26.0530 C.3    99  THR99       0.1770
     14  OG1       52.7530  -30.1340   24.6280 O.3    99  THR99      -0.2211
     15  CG2       51.3030  -29.2270   26.4100 C.3    99  THR99       0.0375
     16  N         51.0990  -26.9200   30.9860 N.3   101  LEU101     -0.1245
     17  CA        49.7280  -26.4810   31.2000 C.3   101  LEU101      0.1561
     18  C         49.7730  -24.9920   31.2780 C.2   101  LEU101      0.2260
     19  O         50.5760  -24.4380   32.0280 O.2   101  LEU101     -0.2867
     20  CB        49.0720  -27.1230   32.4240 C.3   101  LEU101      0.0270
     21  CG        48.8380  -28.6310   32.3100 C.3   101  LEU101      0.0019
     22  CD1       48.3350  -29.2160   33.6030 C.3   101  LEU101      0.0001
     23  CD2       47.8720  -28.9670   31.1940 C.3   101  LEU101      0.0001
     24  N         45.1820  -39.2770   23.6800 N.3   145  SER145     -0.1202
     25  CA        44.8420  -38.8600   25.0200 C.3   145  SER145      0.2020
     26  C         43.3570  -38.6020   25.1210 C.2   145  SER145      0.2619
     27  O         42.6760  -38.5400   24.1030 O.2   145  SER145     -0.2717
     28  CB        45.6060  -37.5630   25.2940 C.3   145  SER145      0.2103
     29  OG        44.9550  -36.6340   26.1410 O.3   145  SER145     -0.2182
     30  N         42.8670  -38.4010   26.3490 N.am  146  LEU146     -0.1965
     31  CA        41.4960  -38.0150   26.6730 C.3   146  LEU146      0.1728
     32  C         41.2040  -36.6950   25.9590 C.2   146  LEU146      0.2616
     33  O         40.1310  -36.5320   25.3690 O.2   146  LEU146     -0.2715
     34  CB        41.3910  -37.8250   28.2060 C.3   146  LEU146      0.0311
     35  CG        40.2080  -38.4350   28.9030 C.3   146  LEU146      0.0022
     36  CD1       39.9400  -39.8320   28.4070 C.3   146  LEU146      0.0001
     37  CD2       40.4330  -38.5180   30.3900 C.3   146  LEU146      0.0001
     38  N         42.2290  -35.7950   25.9580 N.am  147  ALA147     -0.1977
     39  CA        42.2650  -34.4960   25.3050 C.3   147  ALA147      0.1597
     40  C         42.2690  -34.6490   23.7660 C.2   147  ALA147      0.2287
     41  O         42.1200  -33.6540   23.0690 O.2   147  ALA147     -0.2864
     42  CB        43.5010  -33.7490   25.7380 C.3   147  ALA147      0.0319
     43  N         39.7970  -29.8740   27.0340 N.3   152  TYR152     -0.1228
     44  CA        40.2590  -29.4270   28.3530 C.3   152  TYR152      0.1721
     45  C         41.0320  -28.1210   28.2620 C.2   152  TYR152      0.2437
     46  O         41.9220  -27.9990   27.4200 O.2   152  TYR152     -0.2733
     47  CB        41.1300  -30.4770   29.0650 C.3   152  TYR152      0.0547
     48  CG        40.4040  -31.7490   29.4270 C.ar  152  TYR152     -0.0200
     49  CD1       39.1830  -31.7160   30.1110 C.ar  152  TYR152     -0.0009
     50  CD2       40.9490  -32.9920   29.1270 C.ar  152  TYR152     -0.0009
     51  CE1       38.5110  -32.8920   30.4580 C.ar  152  TYR152      0.0417
     52  CE2       40.2770  -34.1770   29.4590 C.ar  152  TYR152      0.0417
     53  CZ        39.0690  -34.1200   30.1390 C.ar  152  TYR152      0.1957
     54  OH        38.4140  -35.2790   30.4540 O.3   152  TYR152     -0.2866
     55  N         40.7800  -27.1480   29.1520 N.am  153  PRO153     -0.2718
     56  CA        41.5890  -25.9210   29.1320 C.3   153  PRO153      0.1535
     57  C         43.0260  -26.1970   29.5800 C.2   153  PRO153      0.2598
     58  O         43.2780  -27.1350   30.3390 O.2   153  PRO153     -0.2715
     59  CB        40.8500  -24.9960   30.0940 C.3   153  PRO153      0.0310
     60  CG        40.2010  -25.8860   31.0230 C.3   153  PRO153      0.0237
     61  CD        39.8050  -27.1180   30.2490 C.3   153  PRO153      0.0939
     62  N         43.9560  -25.3800   29.0700 N.am  154  LEU154     -0.1964
     63  CA        45.4160  -25.3850   29.2840 C.3   154  LEU154      0.1728
     64  C         46.1920  -26.3420   28.3580 C.2   154  LEU154      0.2616
     65  O         47.4280  -26.4360   28.4800 O.2   154  LEU154     -0.2715
     66  CB        45.8340  -25.6120   30.7460 C.3   154  LEU154      0.0311
     67  CG        45.1380  -24.8030   31.8100 C.3   154  LEU154      0.0022
     68  CD1       45.6720  -25.1650   33.1580 C.3   154  LEU154      0.0001
     69  CD2       45.2170  -23.3170   31.5390 C.3   154  LEU154      0.0001
     70  N         45.4650  -27.0240   27.4150 N.am  155  VAL155     -0.1977
     71  CA        46.0330  -27.9800   26.4360 C.3   155  VAL155      0.1596
     72  C         45.4790  -27.7830   24.9900 C.2   155  VAL155      0.2287
     73  O         45.3390  -28.7670   24.2690 O.2   155  VAL155     -0.2864
     74  CB        45.8770  -29.4530   26.9180 C.3   155  VAL155      0.0276
     75  CG1       47.0210  -29.8700   27.8400 C.3   155  VAL155      0.0022
     76  CG2       44.5320  -29.6710   27.5810 C.3   155  VAL155      0.0022
     77  N         47.8490  -29.0290   22.2390 N.3   158  TYR158     -0.1241
     78  CA        47.9910  -30.4690   22.4880 C.3   158  TYR158      0.1605
     79  C         46.7520  -31.2120   21.9850 C.2   158  TYR158      0.2264
     80  O         46.8810  -32.1730   21.2200 O.2   158  TYR158     -0.2867
     81  CB        48.2240  -30.7190   23.9700 C.3   158  TYR158      0.0534
     82  CG        48.3810  -32.1670   24.3350 C.ar  158  TYR158     -0.0201
     83  CD1       49.6170  -32.8030   24.2380 C.ar  158  TYR158     -0.0009
     84  CD2       47.3270  -32.8780   24.8830 C.ar  158  TYR158     -0.0009
     85  CE1       49.7900  -34.1240   24.6450 C.ar  158  TYR158      0.0417
     86  CE2       47.4730  -34.2130   25.2580 C.ar  158  TYR158      0.0417
     87  CZ        48.7100  -34.8340   25.1360 C.ar  158  TYR158      0.1957
     88  OH        48.8880  -36.1360   25.5440 O.3   158  TYR158     -0.2866
     89  N         44.3100  -42.0480   26.5110 N.3   190  LEU190     -0.1231
     90  CA        44.7590  -42.1780   27.8860 C.3   190  LEU190      0.1693
     91  C         44.3400  -41.0150   28.7680 C.2   190  LEU190      0.2593
     92  O         44.2300  -39.8820   28.2770 O.2   190  LEU190     -0.2718
     93  CB        46.2860  -42.2900   27.9280 C.3   190  LEU190      0.0284
     94  CG        46.9360  -43.3020   27.0500 C.3   190  LEU190      0.0019
     95  CD1       48.4180  -43.1880   27.1630 C.3   190  LEU190      0.0001
     96  CD2       46.5010  -44.6960   27.3970 C.3   190  LEU190      0.0001
     97  N         44.1770  -41.2970   30.0680 N.am  191  GLY191     -0.1942
     98  CA        43.9770  -40.2830   31.0910 C.3   191  GLY191      0.2014
     99  C         45.3440  -39.9600   31.6770 C.2   191  GLY191      0.2638
    100  O         46.3610  -40.3860   31.1200 O.2   191  GLY191     -0.2714
    101  N         45.4200  -39.2480   32.8090 N.am  192  LEU192     -0.1977
    102  CA        46.7470  -38.9480   33.3910 C.3   192  LEU192      0.1596
    103  C         47.5090  -40.1960   33.8070 C.2   192  LEU192      0.2287
    104  O         46.9710  -41.0850   34.4640 O.2   192  LEU192     -0.2864
    105  CB        46.6050  -38.0640   34.6120 C.3   192  LEU192      0.0297
    106  CG        47.4320  -36.8200   34.6460 C.3   192  LEU192      0.0022
    107  CD1       47.0050  -35.8300   33.4950 C.3   192  LEU192      0.0001
    108  CD2       47.3080  -36.1830   36.0230 C.3   192  LEU192      0.0001
    109  N         57.0350  -36.5340   33.6480 N.3   197  THR197     -0.1203
    110  CA        56.7180  -35.3780   32.8100 C.3   197  THR197      0.1994
    111  C         55.3660  -34.8330   33.1700 C.2   197  THR197      0.2617
    112  O         55.2460  -33.6400   33.4370 O.2   197  THR197     -0.2717
    113  CB        56.8180  -35.7230   31.3510 C.3   197  THR197      0.1784
    114  OG1       58.1180  -36.2410   31.1160 O.3   197  THR197     -0.2211
    115  CG2       56.5560  -34.5200   30.4660 C.3   197  THR197      0.0376
    116  N         54.3630  -35.7230   33.2110 N.am  198  ALA198     -0.1979
    117  CA        53.0070  -35.4030   33.5910 C.3   198  ALA198      0.1597
    118  C         52.9790  -34.8780   35.0190 C.2   198  ALA198      0.2287
    119  O         52.5390  -33.7530   35.2600 O.2   198  ALA198     -0.2864
    120  CB        52.1520  -36.6490   33.4970 C.3   198  ALA198      0.0319
    121  N         54.1780  -31.4030   35.1840 N.3   201  ALA201     -0.1231
    122  CA        53.3210  -30.4850   34.4510 C.3   201  ALA201      0.1694
    123  C         52.0710  -30.1920   35.2040 C.2   201  ALA201      0.2591
    124  O         51.4670  -29.1440   34.9860 O.2   201  ALA201     -0.2718
    125  CB        52.9460  -31.0930   33.1000 C.3   201  ALA201      0.0304
    126  N         51.6590  -31.1370   36.0570 N.am  202  VAL202     -0.1980
    127  CA        50.3870  -31.1200   36.7490 C.3   202  VAL202      0.1595
    128  C         50.5090  -31.0120   38.2910 C.2   202  VAL202      0.2287
    129  O         49.4890  -30.8560   38.9640 O.2   202  VAL202     -0.2864
    130  CB        49.6170  -32.3790   36.2630 C.3   202  VAL202      0.0276
    131  CG1       49.8950  -33.6200   37.1170 C.3   202  VAL202      0.0022
    132  CG2       48.1400  -32.1010   36.1470 C.3   202  VAL202      0.0022
    133  N         45.9100  -28.2390   38.7760 N.3   206  VAL206     -0.1245
    134  CA        45.0510  -29.2890   39.3470 C.3   206  VAL206      0.1561
    135  C         45.5750  -30.6960   39.0000 C.2   206  VAL206      0.2260
    136  O         45.6430  -31.0740   37.8180 O.2   206  VAL206     -0.2867
    137  CB        43.4890  -29.2170   39.1260 C.3   206  VAL206      0.0252
    138  CG1       42.7580  -30.1610   40.0950 C.3   206  VAL206      0.0019
    139  CG2       42.9420  -27.7950   39.2640 C.3   206  VAL206      0.0019
    140  N         44.7950  -34.7100   39.4820 N.3   208  MET208     -0.1245
    141  CA        43.5720  -35.4790   39.4410 C.3   208  MET208      0.1570
    142  C         43.7890  -36.9790   39.6820 C.2   208  MET208      0.2261
    143  O         42.8950  -37.7670   39.3500 O.2   208  MET208     -0.2867
    144  CB        42.8380  -35.2220   38.0800 C.3   208  MET208      0.0387
    145  CG        41.9930  -33.9070   38.0190 C.3   208  MET208      0.0595
    146  SD        41.0150  -33.3600   39.5090 S.3   208  MET208     -0.1393
    147  CE        39.2640  -33.7150   38.9850 C.3   208  MET208      0.0692
@<TRIPOS>BOND
     1    80    79    2
     2     1     2    1
     3     2     3    1
     4     2     5    1
     5     3     4    2
     6    79    78    1
     7     7     5    1
     8    77    78    1
     9    78    81    1
    10     5     6    1
    11    41    40    2
    12    24    25    1
    13    40    39    1
    14    81    82    1
    15     6     8    1
    16    27    26    2
    17    83    82   ar
    18    83    85   ar
    19    73    72    2
    20    82    84   ar
    21    14    13    1
    22    85    87   ar
    23    84    86   ar
    24    72    71    1
    25    25    26    1
    26    25    28    1
    27    26    30   am
    28    87    86   ar
    29    87    88    1
    30    28    29    1
    31    39    42    1
    32    39    38    1
    33    33    32    2
    34    38    32   am
    35    32    31    1
    36    13    15    1
    37    13    10    1
    38    30    31    1
    39     9    10    1
    40    71    74    1
    41    71    70    1
    42    89    90    1
    43    10    11    1
    44    31    34    1
    45    74    76    1
    46    74    75    1
    47    43    44    1
    48    94    95    1
    49    94    96    1
    50    94    93    1
    51    70    64   am
    52    46    45    2
    53    90    93    1
    54    90    91    1
    55    11    12    2
    56    34    35    1
    57    45    44    1
    58    45    55   am
    59    92    91    2
    60    44    47    1
    61    64    65    2
    62    64    63    1
    63    36    35    1
    64    91    97   am
    65    35    37    1
    66    47    48    1
    67    62    63    1
    68    62    57   am
    69    50    48   ar
    70    50    52   ar
    71    56    55    1
    72    56    57    1
    73    56    59    1
    74    55    61    1
    75    63    66    1
    76    48    49   ar
    77    52    53   ar
    78    57    58    2
    79    97    98    1
    80    59    60    1
    81    49    51   ar
    82    53    54    1
    83    53    51   ar
    84    61    60    1
    85   115   113    1
    86    66    67    1
    87    16    17    1
    88    98    99    1
    89   114   113    1
    90   100    99    2
    91    23    21    1
    92    17    18    1
    93    17    20    1
    94    18    19    2
    95   113   110    1
    96    69    67    1
    97    99   101   am
    98    67    68    1
    99    21    20    1
   100    21    22    1
   101   101   102    1
   102   110   111    1
   103   110   109    1
   104   125   122    1
   105   111   116   am
   106   111   112    2
   107   116   117    1
   108   102   103    1
   109   102   105    1
   110   107   106    1
   111   120   117    1
   112   117   118    1
   113   103   104    2
   114   122   121    1
   115   122   123    1
   116   105   106    1
   117   106   108    1
   118   124   123    2
   119   118   119    2
   120   123   126   am
   121   126   127    1
   122   132   130    1
   123   130   127    1
   124   130   131    1
   125   127   128    1
   126   136   135    2
   127   145   144    1
   128   145   146    1
   129   144   141    1
   130   128   129    2
   131   133   134    1
   132   147   146    1
   133   135   134    1
   134   137   139    1
   135   137   134    1
   136   137   138    1
   137   143   142    2
   138   141   140    1
   139   141   142    1
