@<TRIPOS>MOLECULE
tmp/4yz3B00.pdb
 189 180 0 0 0
SMALL
GASTEIGER

@<TRIPOS>ATOM
      1  N        -21.4570   35.3920    3.8450 N.3   208  ARG208     -0.1231
      2  CA       -22.5490   34.5150    4.2300 C.3   208  ARG208      0.1694
      3  C        -22.2150   33.0660    3.8370 C.2   208  ARG208      0.2591
      4  O        -21.2310   32.8150    3.1310 O.2   208  ARG208     -0.2718
      5  CB       -23.8550   34.9590    3.5510 C.3   208  ARG208      0.0321
      6  CG       -24.6200   36.1030    4.2760 C.3   208  ARG208      0.0489
      7  CD       -26.1210   36.0820    3.9650 C.3   208  ARG208      0.2205
      8  NE       -26.6610   34.7650    4.2720 N.pl3 208  ARG208     -0.0865
      9  CZ       -27.7820   34.2270    3.7810 C.cat 208  ARG208      0.5346
     10  NH1      -28.5700   34.8920    2.9240 N.pl3 208  ARG208      0.1354
     11  NH2      -28.1280   32.9990    4.1560 N.pl3 208  ARG208      0.1354
     12  N        -23.0290   32.1240    4.3090 N.am  209  ILE209     -0.1980
     13  CA       -22.9670   30.7240    3.8640 C.3   209  ILE209      0.1595
     14  C        -21.6250   30.0430    4.2010 C.2   209  ILE209      0.2287
     15  O        -20.8860   29.6640    3.3200 O.2   209  ILE209     -0.2864
     16  CB       -23.2580   30.5220    2.3490 C.3   209  ILE209      0.0276
     17  CG1      -24.2580   31.5370    1.7780 C.3   209  ILE209      0.0022
     18  CG2      -23.7150   29.0780    2.1020 C.3   209  ILE209      0.0022
     19  CD1      -25.6410   31.4700    2.3770 C.3   209  ILE209      0.0001
     20  N        -19.2430   38.0410   -0.2080 N.3   227  ARG227     -0.1245
     21  CA       -20.2710   38.7820   -0.9180 C.3   227  ARG227      0.1563
     22  C        -19.9750   40.2690   -0.8190 C.2   227  ARG227      0.2260
     23  O        -20.0490   40.8590    0.2650 O.2   227  ARG227     -0.2867
     24  CB       -21.6200   38.4880   -0.3050 C.3   227  ARG227      0.0307
     25  CG       -21.9810   37.0290   -0.2910 C.3   227  ARG227      0.0489
     26  CD       -23.4520   36.9140    0.0310 C.3   227  ARG227      0.2205
     27  NE       -23.9460   35.5790   -0.2040 N.pl3 227  ARG227     -0.0865
     28  CZ       -25.2220   35.1890   -0.0970 C.cat 227  ARG227      0.5346
     29  NH1      -26.1840   36.0390    0.2630 N.pl3 227  ARG227      0.1354
     30  NH2      -25.5430   33.8960   -0.3480 N.pl3 227  ARG227      0.1354
     31  N        -28.3140   37.7400   -1.7670 N.3   233  ASP233     -0.1225
     32  CA       -28.1370   36.5780   -2.6400 C.3   233  ASP233      0.1805
     33  C        -27.9770   36.9700   -4.0970 C.2   233  ASP233      0.2597
     34  O        -27.1280   36.4030   -4.7990 O.2   233  ASP233     -0.2718
     35  CB       -29.2970   35.5880   -2.5120 C.3   233  ASP233      0.1424
     36  CG       -29.1360   34.7330   -1.3360 C.2   233  ASP233      0.3668
     37  OD1      -28.2040   33.9070   -1.3890 O.co2 233  ASP233     -0.2456
     38  OD2      -29.8820   34.9460   -0.3510 O.co2 233  ASP233     -0.2456
     39  N        -28.7920   37.9210   -4.5410 N.am  234  PHE234     -0.1976
     40  CA       -28.6750   38.4180   -5.9000 C.3   234  PHE234      0.1639
     41  C        -29.3350   39.7600   -5.9380 C.2   234  PHE234      0.2290
     42  O        -30.0860   40.0760   -5.0540 O.2   234  PHE234     -0.2864
     43  CB       -29.4480   37.5170   -6.8260 C.3   234  PHE234      0.0560
     44  CG       -30.9280   37.5040   -6.5280 C.ar  234  PHE234     -0.0200
     45  CD1      -31.4380   36.6650   -5.5520 C.ar  234  PHE234     -0.0042
     46  CD2      -31.8060   38.3510   -7.2300 C.ar  234  PHE234     -0.0042
     47  CE1      -32.7920   36.6550   -5.3000 C.ar  234  PHE234     -0.0003
     48  CE2      -33.1570   38.3470   -6.9850 C.ar  234  PHE234     -0.0003
     49  CZ       -33.6490   37.5020   -6.0150 C.ar  234  PHE234     -0.0000
     50  N        -21.7330   31.0390   -5.8920 N.3   289  ILE289     -0.1231
     51  CA       -22.4830   31.1060   -4.6470 C.3   289  ILE289      0.1692
     52  C        -22.7420   29.6890   -4.1270 C.2   289  ILE289      0.2592
     53  O        -22.8380   28.7570   -4.9200 O.2   289  ILE289     -0.2718
     54  CB       -23.7620   31.9200   -4.8730 C.3   289  ILE289      0.0266
     55  CG1      -24.6440   31.9330   -3.6230 C.3   289  ILE289      0.0019
     56  CG2      -24.5330   31.4000   -6.0790 C.3   289  ILE289      0.0020
     57  CD1      -25.8670   32.8310   -3.7300 C.3   289  ILE289      0.0001
     58  N        -22.8010   29.5220   -2.8030 N.am  290  ASP290     -0.1974
     59  CA       -23.2850   28.2680   -2.1320 C.3   290  ASP290      0.1709
     60  C        -22.3630   27.0380   -2.3160 C.2   290  ASP290      0.2293
     61  O        -22.6440   26.1450   -3.1220 O.2   290  ASP290     -0.2864
     62  CB       -24.7550   27.9250   -2.5120 C.3   290  ASP290      0.1436
     63  CG       -25.7520   28.9460   -1.9810 C.2   290  ASP290      0.3671
     64  OD1      -25.3910   29.6840   -1.0730 O.co2 290  ASP290     -0.2456
     65  OD2      -26.8990   29.0310   -2.4420 O.co2 290  ASP290     -0.2456
     66  N        -22.4960   27.0080   -7.0960 N.3   306  ASP306     -0.1239
     67  CA       -23.4320   27.4690   -8.0920 C.3   306  ASP306      0.1674
     68  C        -22.6740   28.5360   -8.8600 C.2   306  ASP306      0.2266
     69  O        -21.8670   29.2550   -8.2930 O.2   306  ASP306     -0.2867
     70  CB       -24.6850   28.1080   -7.5110 C.3   306  ASP306      0.1410
     71  CG       -25.5300   27.1740   -6.7180 C.2   306  ASP306      0.3668
     72  OD1      -25.3810   25.9500   -6.7400 O.co2 306  ASP306     -0.2456
     73  OD2      -26.4250   27.6970   -6.0420 O.co2 306  ASP306     -0.2456
     74  N        -23.3440   31.6350  -11.5930 N.3   308  MET308     -0.1245
     75  CA       -24.3540   32.5450  -12.1160 C.3   308  MET308      0.1570
     76  C        -23.6810   33.5460  -13.0070 C.2   308  MET308      0.2261
     77  O        -22.8200   34.2680  -12.5320 O.2   308  MET308     -0.2867
     78  CB       -25.0210   33.3110  -10.9750 C.3   308  MET308      0.0387
     79  CG       -25.5130   32.4240   -9.8440 C.3   308  MET308      0.0595
     80  SD       -27.1000   31.7730  -10.3180 S.3   308  MET308     -0.1393
     81  CE       -27.5100   30.8850   -8.8130 C.3   308  MET308      0.0692
     82  N        -31.3390   34.6110  -10.0190 N.3   314  PHE314     -0.1241
     83  CA       -31.9190   33.2640   -9.7970 C.3   314  PHE314      0.1605
     84  C        -33.4780   33.2040   -9.8820 C.2   314  PHE314      0.2264
     85  O        -34.0660   32.1590   -9.6130 O.2   314  PHE314     -0.2867
     86  CB       -31.4340   32.6870   -8.4590 C.3   314  PHE314      0.0534
     87  CG       -32.0750   31.4130   -7.9680 C.ar  314  PHE314     -0.0203
     88  CD1      -33.3600   31.3360   -7.5000 C.ar  314  PHE314     -0.0042
     89  CD2      -31.2540   30.2690   -7.7830 C.ar  314  PHE314     -0.0042
     90  CE1      -33.8700   30.2100   -6.9140 C.ar  314  PHE314     -0.0003
     91  CE2      -31.7670   29.1360   -7.2030 C.ar  314  PHE314     -0.0003
     92  CZ       -33.0620   29.1070   -6.7390 C.ar  314  PHE314     -0.0000
     93  N        -29.7840   23.7790   -7.5700 N.3   449  TYR449     -0.1241
     94  CA       -29.0960   24.7160   -6.7140 C.3   449  TYR449      0.1605
     95  C        -28.5760   23.8760   -5.5750 C.2   449  TYR449      0.2264
     96  O        -29.3160   23.0280   -5.0560 O.2   449  TYR449     -0.2867
     97  CB       -30.0770   25.7720   -6.1880 C.3   449  TYR449      0.0534
     98  CG       -30.8050   26.5090   -7.2640 C.ar  449  TYR449     -0.0201
     99  CD1      -30.2070   27.5760   -7.9200 C.ar  449  TYR449     -0.0009
    100  CD2      -32.1120   26.1160   -7.6570 C.ar  449  TYR449     -0.0009
    101  CE1      -30.8780   28.2500   -8.9380 C.ar  449  TYR449      0.0417
    102  CE2      -32.7950   26.7800   -8.6690 C.ar  449  TYR449      0.0417
    103  CZ       -32.1740   27.8470   -9.3050 C.ar  449  TYR449      0.1957
    104  OH       -32.8360   28.5050  -10.3210 O.3   449  TYR449     -0.2866
    105  N        -31.1760   21.0000   -4.9570 N.3   469  TYR469     -0.1241
    106  CA       -32.6220   21.1050   -5.0870 C.3   469  TYR469      0.1605
    107  C        -33.0430   22.0260   -6.2210 C.2   469  TYR469      0.2264
    108  O        -32.2620   22.8640   -6.6960 O.2   469  TYR469     -0.2867
    109  CB       -33.2440   21.6230   -3.7770 C.3   469  TYR469      0.0534
    110  CG       -32.8720   23.0430   -3.4650 C.ar  469  TYR469     -0.0201
    111  CD1      -31.6350   23.3310   -2.9240 C.ar  469  TYR469     -0.0009
    112  CD2      -33.7250   24.0960   -3.7550 C.ar  469  TYR469     -0.0009
    113  CE1      -31.2580   24.6210   -2.6350 C.ar  469  TYR469      0.0417
    114  CE2      -33.3580   25.4070   -3.4550 C.ar  469  TYR469      0.0417
    115  CZ       -32.1140   25.6620   -2.9000 C.ar  469  TYR469      0.1957
    116  OH       -31.6900   26.9400   -2.6070 O.3   469  TYR469     -0.2866
    117  N        -36.3710   23.5740   -6.1500 N.3   471  GLY471     -0.1225
    118  CA       -37.5140   24.3490   -5.7160 C.3   471  GLY471      0.1811
    119  C        -38.7890   23.4930   -5.6170 C.2   471  GLY471      0.2280
    120  O        -39.6670   23.7840   -4.8040 O.2   471  GLY471     -0.2866
    121  N        -37.5070   24.9850   -0.5820 N.3   498  SER498     -0.1217
    122  CA       -36.1390   25.3760   -0.8750 C.3   498  SER498      0.1889
    123  C        -35.2760   24.3000   -0.2330 C.2   498  SER498      0.2288
    124  O        -34.6960   24.5270    0.8020 O.2   498  SER498     -0.2866
    125  CB       -35.8440   26.7800   -0.2970 C.3   498  SER498      0.2089
    126  OG       -36.7300   27.7250   -0.8760 O.3   498  SER498     -0.2183
    127  N        -32.6560   22.7670    0.5820 N.3   500  GLU500     -0.1245
    128  CA       -31.2670   22.6710    1.0560 C.3   500  GLU500      0.1567
    129  C        -31.1660   21.4690    1.9970 C.2   500  GLU500      0.2260
    130  O        -31.8730   21.4020    3.0040 O.2   500  GLU500     -0.2867
    131  CB       -30.8560   23.9300    1.8090 C.3   500  GLU500      0.0388
    132  CG       -30.6690   25.1270    0.9120 C.3   500  GLU500      0.1160
    133  CD       -30.7090   26.4630    1.6410 C.2   500  GLU500      0.3649
    134  OE1      -31.4110   26.6460    2.6790 O.co2 500  GLU500     -0.2457
    135  OE2      -30.0480   27.3750    1.1270 O.co2 500  GLU500     -0.2457
    136  N        -34.5380   21.6260    4.5210 N.3   516  ARG516     -0.1245
    137  CA       -35.4040   22.7650    4.6940 C.3   516  ARG516      0.1563
    138  C        -36.7330   22.5100    3.9180 C.2   516  ARG516      0.2260
    139  O        -36.7340   21.8060    2.8980 O.2   516  ARG516     -0.2867
    140  CB       -34.6630   24.0120    4.1810 C.3   516  ARG516      0.0307
    141  CG       -35.4050   25.3480    4.2260 C.3   516  ARG516      0.0489
    142  CD       -34.5380   26.4180    3.6020 C.3   516  ARG516      0.2205
    143  NE       -35.2000   27.7210    3.3810 N.pl3 516  ARG516     -0.0865
    144  CZ       -34.5440   28.8450    3.0310 C.cat 516  ARG516      0.5346
    145  NH1      -33.2180   28.8280    2.8530 N.pl3 516  ARG516      0.1354
    146  NH2      -35.1920   29.9950    2.8890 N.pl3 516  ARG516      0.1354
    147  N        -35.0570   33.8510   12.2470 N.3   578  ARG578     -0.1245
    148  CA       -33.8470   33.0350   12.2450 C.3   578  ARG578      0.1563
    149  C        -33.1170   33.3170   13.5310 C.2   578  ARG578      0.2260
    150  O        -32.2180   34.1660   13.5790 O.2   578  ARG578     -0.2867
    151  CB       -32.9660   33.2910   11.0170 C.3   578  ARG578      0.0307
    152  CG       -33.6440   32.7610    9.7770 C.3   578  ARG578      0.0489
    153  CD       -32.7450   32.8150    8.5670 C.3   578  ARG578      0.2205
    154  NE       -33.3200   32.0550    7.4710 N.pl3 578  ARG578     -0.0865
    155  CZ       -32.9090   32.1380    6.2190 C.cat 578  ARG578      0.5346
    156  NH1      -31.9310   32.9710    5.8640 N.pl3 578  ARG578      0.1354
    157  NH2      -33.4720   31.3810    5.3030 N.pl3 578  ARG578      0.1354
    158  N        -27.8090   30.5250    8.7040 N.3   611  TYR611     -0.1241
    159  CA       -27.0620   29.4000    8.1490 C.3   611  TYR611      0.1605
    160  C        -25.8680   29.0060    9.0720 C.2   611  TYR611      0.2264
    161  O        -25.2100   29.8650    9.6740 O.2   611  TYR611     -0.2867
    162  CB       -26.5510   29.7210    6.7460 C.3   611  TYR611      0.0534
    163  CG       -27.5650   29.6340    5.6190 C.ar  611  TYR611     -0.0201
    164  CD1      -28.8580   30.1620    5.7480 C.ar  611  TYR611     -0.0009
    165  CD2      -27.2280   29.0290    4.4070 C.ar  611  TYR611     -0.0009
    166  CE1      -29.7760   30.0930    4.7100 C.ar  611  TYR611      0.0417
    167  CE2      -28.1500   28.9450    3.3560 C.ar  611  TYR611      0.0417
    168  CZ       -29.4210   29.4880    3.5100 C.ar  611  TYR611      0.1957
    169  OH       -30.3420   29.3930    2.4950 O.3   611  TYR611     -0.2866
    170  N        -30.4840   36.3120    8.6170 N.3   631  SER631     -0.1202
    171  CA       -30.1060   36.5780    7.2170 C.3   631  SER631      0.2020
    172  C        -31.2790   36.6520    6.2580 C.2   631  SER631      0.2618
    173  O        -31.0880   36.9040    5.0830 O.2   631  SER631     -0.2717
    174  CB       -29.0620   35.5680    6.7350 C.3   631  SER631      0.2103
    175  OG       -29.5710   34.2440    6.7470 O.3   631  SER631     -0.2182
    176  N        -32.4860   36.4050    6.7520 N.am  632  TRP632     -0.1975
    177  CA       -33.7250   36.5850    5.9850 C.3   632  TRP632      0.1640
    178  C        -34.2460   38.0200    6.1250 C.2   632  TRP632      0.2290
    179  O        -34.6790   38.6380    5.1600 O.2   632  TRP632     -0.2864
    180  CB       -34.7730   35.5720    6.4670 C.3   632  TRP632      0.0576
    181  CG       -36.0270   35.4700    5.6460 C.ar  632  TRP632      0.0006
    182  CD1      -37.2480   35.9930    5.9550 C.ar  632  TRP632      0.0946
    183  CD2      -36.1920   34.7800    4.4100 C.ar  632  TRP632      0.0152
    184  NE1      -38.1590   35.6890    4.9780 N.ar  632  TRP632     -0.2442
    185  CE2      -37.5440   34.9530    4.0130 C.ar  632  TRP632      0.0810
    186  CE3      -35.3310   34.0660    3.5780 C.ar  632  TRP632      0.0012
    187  CZ2      -38.0510   34.4210    2.8460 C.ar  632  TRP632      0.0191
    188  CZ3      -35.8390   33.5520    2.3810 C.ar  632  TRP632      0.0001
    189  CH2      -37.1730   33.7130    2.0370 C.ar  632  TRP632      0.0015
@<TRIPOS>BOND
     1    76    77    2
     2    76    75    1
     3    75    74    1
     4    75    78    1
     5    78    79    1
     6   104   103    1
     7    80    79    1
     8    80    81    1
     9    82    83    1
    10    84    83    1
    11    84    85    2
    12    83    86    1
    13   103   101   ar
    14   103   102   ar
    15   101    99   ar
    16    68    69    2
    17    68    67    1
    18   102   100   ar
    19    86    87    1
    20    67    70    1
    21    67    66    1
    22    87    89   ar
    23    87    88   ar
    24    99    98   ar
    25    89    91   ar
    26   100    98   ar
    27    93    94    1
    28    70    71    1
    29    88    90   ar
    30    98    97    1
    31    46    48   ar
    32    46    44   ar
    33    91    92   ar
    34    48    49   ar
    35    90    92   ar
    36    43    44    1
    37    43    40    1
    38    72    71   ar
    39    71    73   ar
    40    94    97    1
    41    94    95    1
    42   108   107    2
    43    44    45   ar
    44   107   106    1
    45   117   118    1
    46    56    54    1
    47    49    47   ar
    48    41    40    1
    49    41    42    2
    50    40    39    1
    51    50    51    1
    52   118   119    1
    53   119   120    2
    54    95    96    2
    55    45    47   ar
    56   106   105    1
    57   106   109    1
    58    53    52    2
    59    54    51    1
    60    54    55    1
    61    34    33    2
    62    51    52    1
    63    39    33   am
    64    52    58   am
    65    33    32    1
    66   109   110    1
    67   112   110   ar
    68   112   114   ar
    69    57    55    1
    70   110   111   ar
    71   114   115   ar
    72    61    60    2
    73   111   113   ar
    74   115   113   ar
    75   115   116    1
    76    58    59    1
    77    32    35    1
    78    32    31    1
    79    35    36    1
    80    62    59    1
    81    62    63    1
    82    65    63   ar
    83    60    59    1
    84    63    64   ar
    85    37    36   ar
    86    36    38   ar
    87    21    22    1
    88    21    24    1
    89    21    20    1
    90   126   125    1
    91   122   121    1
    92   122   125    1
    93   122   123    1
    94    22    23    2
    95    30    28    1
    96    24    25    1
    97    25    26    1
    98   123   124    2
    99    27    28    2
   100    27    26    1
   101    28    29    1
   102   127   128    1
   103   132   133    1
   104   132   131    1
   105   128   131    1
   106   128   129    1
   107   135   133   ar
   108   133   134   ar
   109    17    16    1
   110    17    19    1
   111   129   130    2
   112   189   188   ar
   113   189   187   ar
   114    18    16    1
   115    16    13    1
   116   188   186   ar
   117   169   168    1
   118   187   185   ar
   119   145   144    1
   120   146   144    1
   121   139   138    2
   122    10     9    1
   123   144   143    2
   124     4     3    2
   125    15    14    2
   126   167   168   ar
   127   167   165   ar
   128   143   142    1
   129   168   166   ar
   130     5     2    1
   131     5     6    1
   132   186   183   ar
   133   142   141    1
   134     9    11    1
   135     9     8    2
   136     3     2    1
   137     3    12   am
   138     1     2    1
   139    13    14    1
   140    13    12    1
   141   138   137    1
   142     7     8    1
   143     7     6    1
   144   185   183   ar
   145   185   184   ar
   146   140   141    1
   147   140   137    1
   148   165   163   ar
   149   183   181   ar
   150   136   137    1
   151   166   164   ar
   152   184   182   ar
   153   173   172    2
   154   179   178    2
   155   157   155    1
   156   163   164   ar
   157   163   162    1
   158   181   182   ar
   159   181   180    1
   160   156   155    1
   161   177   178    1
   162   177   180    1
   163   177   176    1
   164   155   154    2
   165   172   176   am
   166   172   171    1
   167   174   175    1
   168   174   171    1
   169   162   159    1
   170   171   170    1
   171   154   153    1
   172   159   158    1
   173   159   160    1
   174   153   152    1
   175   160   161    2
   176   152   151    1
   177   151   148    1
   178   148   147    1
   179   148   149    1
   180   149   150    2
