@<TRIPOS>MOLECULE
tmp/4yz5B00.pdb
 100 93 0 0 0
SMALL
GASTEIGER

@<TRIPOS>ATOM
      1  N        -35.3780   46.0610   27.5840 N.3    46  LEU46      -0.1245
      2  CA       -34.4940   47.0790   27.0800 C.3    46  LEU46       0.1561
      3  C        -33.6580   47.5740   28.2450 C.2    46  LEU46       0.2260
      4  O        -34.2160   48.0010   29.2530 O.2    46  LEU46      -0.2867
      5  CB       -35.3180   48.2230   26.5180 C.3    46  LEU46       0.0270
      6  CG       -34.5740   49.4580   26.0290 C.3    46  LEU46       0.0019
      7  CD1      -33.5800   49.0960   24.9310 C.3    46  LEU46       0.0001
      8  CD2      -35.6080   50.4310   25.5200 C.3    46  LEU46       0.0001
      9  N        -38.4940   62.8450   28.0490 N.3    61  ASN61      -0.1240
     10  CA       -37.9060   62.6840   26.7140 C.3    61  ASN61       0.1653
     11  C        -36.6510   63.5060   26.4920 C.2    61  ASN61       0.2266
     12  O        -36.3500   63.8690   25.3510 O.2    61  ASN61      -0.2867
     13  CB       -38.9430   63.0190   25.6330 C.3    61  ASN61       0.1155
     14  CG       -40.1200   62.0660   25.6430 C.2    61  ASN61       0.2627
     15  OD1      -40.0500   60.9550   26.1890 O.2    61  ASN61      -0.2716
     16  ND2      -41.2080   62.4860   25.0240 N.am   61  ASN61      -0.0877
     17  N        -32.9120   62.9840   27.2680 N.3    63  TYR63      -0.1241
     18  CA       -31.7970   62.1720   27.7240 C.3    63  TYR63       0.1605
     19  C        -30.9020   61.6450   26.6120 C.2    63  TYR63       0.2264
     20  O        -31.2670   61.6620   25.4420 O.2    63  TYR63      -0.2867
     21  CB       -32.3110   60.9860   28.5410 C.3    63  TYR63       0.0534
     22  CG       -33.1930   60.0520   27.7660 C.ar   63  TYR63      -0.0201
     23  CD1      -34.5640   60.2790   27.6650 C.ar   63  TYR63      -0.0009
     24  CD2      -32.6610   58.9230   27.1300 C.ar   63  TYR63      -0.0009
     25  CE1      -35.3810   59.4100   26.9650 C.ar   63  TYR63       0.0417
     26  CE2      -33.4740   58.0490   26.4220 C.ar   63  TYR63       0.0417
     27  CZ       -34.8250   58.2900   26.3470 C.ar   63  TYR63       0.1957
     28  OH       -35.6300   57.4340   25.6380 O.3    63  TYR63      -0.2866
     29  N        -28.0720   51.6510   24.8190 N.3    67  PHE67      -0.1241
     30  CA       -28.9300   50.5470   25.2310 C.3    67  PHE67       0.1605
     31  C        -28.5900   49.2120   24.5720 C.2    67  PHE67       0.2264
     32  O        -27.9540   49.1670   23.5290 O.2    67  PHE67      -0.2867
     33  CB       -30.4120   50.8940   25.0180 C.3    67  PHE67       0.0534
     34  CG       -30.7880   51.1630   23.5830 C.ar   67  PHE67      -0.0203
     35  CD1      -31.1140   50.1220   22.7280 C.ar   67  PHE67      -0.0042
     36  CD2      -30.8400   52.4730   23.1010 C.ar   67  PHE67      -0.0042
     37  CE1      -31.4820   50.3630   21.4170 C.ar   67  PHE67      -0.0003
     38  CE2      -31.2040   52.7280   21.7930 C.ar   67  PHE67      -0.0003
     39  CZ       -31.5340   51.6630   20.9470 C.ar   67  PHE67      -0.0000
     40  N        -30.7320   45.5250   23.5560 N.3    69  ARG69      -0.1245
     41  CA       -31.9780   44.7750   23.4470 C.3    69  ARG69       0.1563
     42  C        -31.6850   43.2950   23.6850 C.2    69  ARG69       0.2260
     43  O        -30.5240   42.8940   23.7290 O.2    69  ARG69      -0.2867
     44  CB       -32.6040   44.9890   22.0860 C.3    69  ARG69       0.0307
     45  CG       -33.0170   46.4270   21.8260 C.3    69  ARG69       0.0489
     46  CD       -34.0280   46.5200   20.6780 C.3    69  ARG69       0.2205
     47  NE       -34.1330   47.8700   20.1250 N.pl3  69  ARG69      -0.0865
     48  CZ       -34.9530   48.8350   20.5450 C.cat  69  ARG69       0.5346
     49  NH1      -35.7920   48.6640   21.5570 N.pl3  69  ARG69       0.1354
     50  NH2      -34.9220   50.0100   19.9340 N.pl3  69  ARG69       0.1354
     51  N        -29.7650   56.4750   22.1800 N.3    77  GLU77      -0.1245
     52  CA       -30.7230   57.5600   21.9470 C.3    77  GLU77       0.1567
     53  C        -30.1190   58.8760   22.4020 C.2    77  GLU77       0.2260
     54  O        -29.2550   58.9040   23.2870 O.2    77  GLU77      -0.2867
     55  CB       -32.0600   57.3350   22.6740 C.3    77  GLU77       0.0388
     56  CG       -32.7110   55.9900   22.4240 C.3    77  GLU77       0.1160
     57  CD       -34.1850   55.9680   22.8180 C.2    77  GLU77       0.3649
     58  OE1      -34.5090   55.4090   23.8890 O.co2  77  GLU77      -0.2457
     59  OE2      -35.0210   56.4990   22.0570 O.co2  77  GLU77      -0.2457
     60  N        -32.2050   62.5670   22.9400 N.3    79  ARG79      -0.1245
     61  CA       -33.5340   63.1540   22.8250 C.3    79  ARG79       0.1563
     62  C        -33.6330   64.4400   23.6410 C.2    79  ARG79       0.2260
     63  O        -33.0100   64.5520   24.7040 O.2    79  ARG79      -0.2867
     64  CB       -34.5760   62.1570   23.3310 C.3    79  ARG79       0.0307
     65  CG       -34.5130   60.7880   22.6690 C.3    79  ARG79       0.0489
     66  CD       -35.5970   59.8760   23.2120 C.3    79  ARG79       0.2205
     67  NE       -36.9410   60.3420   22.8730 N.pl3  79  ARG79      -0.0865
     68  CZ       -38.0750   59.8400   23.3590 C.cat  79  ARG79       0.5346
     69  NH1      -38.0690   58.8460   24.2410 N.pl3  79  ARG79       0.1354
     70  NH2      -39.2330   60.3420   22.9600 N.pl3  79  ARG79       0.1354
     71  N        -32.1430   58.1800   17.2570 N.3    88  LEU88      -0.1245
     72  CA       -31.8900   56.7910   17.5800 C.3    88  LEU88       0.1561
     73  C        -30.9650   56.2360   16.5130 C.2    88  LEU88       0.2260
     74  O        -31.3120   56.2340   15.3360 O.2    88  LEU88      -0.2867
     75  CB       -33.1880   55.9990   17.6310 C.3    88  LEU88       0.0270
     76  CG       -33.1290   54.6560   18.3790 C.3    88  LEU88       0.0019
     77  CD1      -34.5160   54.2530   18.8760 C.3    88  LEU88       0.0001
     78  CD2      -32.5420   53.5450   17.5200 C.3    88  LEU88       0.0001
     79  N        -35.8940   59.0850   34.5440 N.3   155  ARG155     -0.1245
     80  CA       -36.9680   59.7720   33.8320 C.3   155  ARG155      0.1563
     81  C        -38.0880   60.0660   34.8120 C.2   155  ARG155      0.2260
     82  O        -38.6130   59.1440   35.4450 O.2   155  ARG155     -0.2867
     83  CB       -37.4960   58.8980   32.7080 C.3   155  ARG155      0.0307
     84  CG       -36.4210   58.4560   31.7260 C.3   155  ARG155      0.0489
     85  CD       -36.9970   57.5730   30.6430 C.3   155  ARG155      0.2205
     86  NE       -37.7130   58.3490   29.6420 N.pl3 155  ARG155     -0.0865
     87  CZ       -38.5100   57.8440   28.7040 C.cat 155  ARG155      0.5346
     88  NH1      -38.7290   56.5220   28.6250 N.pl3 155  ARG155      0.1354
     89  NH2      -39.0990   58.6740   27.8360 N.pl3 155  ARG155      0.1354
     90  N        -35.1740   51.5970   32.0450 N.3   161  PHE161     -0.1241
     91  CA       -34.2510   50.7400   31.2720 C.3   161  PHE161      0.1605
     92  C        -33.1690   50.0990   32.1470 C.2   161  PHE161      0.2264
     93  O        -32.0010   50.0560   31.7700 O.2   161  PHE161     -0.2867
     94  CB       -33.6010   51.5320   30.1130 C.3   161  PHE161      0.0534
     95  CG       -34.5520   52.4260   29.3590 C.ar  161  PHE161     -0.0203
     96  CD1      -35.7630   51.9380   28.8790 C.ar  161  PHE161     -0.0042
     97  CD2      -34.2280   53.7590   29.1090 C.ar  161  PHE161     -0.0042
     98  CE1      -36.6290   52.7690   28.1810 C.ar  161  PHE161     -0.0003
     99  CE2      -35.0960   54.5950   28.4100 C.ar  161  PHE161     -0.0003
    100  CZ       -36.2990   54.1010   27.9470 C.ar  161  PHE161     -0.0000
@<TRIPOS>BOND
     1    74    73    2
     2    73    72    1
     3    71    72    1
     4    78    76    1
     5    72    75    1
     6    75    76    1
     7    76    77    1
     8    50    48    1
     9    47    48    2
    10    47    46    1
    11    48    49    1
    12    46    45    1
    13    39    37   ar
    14    39    38   ar
    15    37    35   ar
    16    38    36   ar
    17    45    44    1
    18    52    51    1
    19    52    53    1
    20    52    55    1
    21    59    57   ar
    22    44    41    1
    23    53    54    2
    24    56    55    1
    25    56    57    1
    26    65    66    1
    27    65    64    1
    28    35    34   ar
    29    57    58   ar
    30    61    60    1
    31    61    64    1
    32    61    62    1
    33    67    66    1
    34    67    68    2
    35    70    68    1
    36    36    34   ar
    37    68    69    1
    38    41    40    1
    39    41    42    1
    40    32    31    2
    41    34    33    1
    42    62    63    2
    43    42    43    2
    44    31    30    1
    45    29    30    1
    46     7     6    1
    47    33    30    1
    48    16    14   am
    49    12    11    2
    50    20    19    2
    51     8     6    1
    52    13    14    1
    53    13    10    1
    54    28    27    1
    55    14    15    2
    56     6     5    1
    57    27    26   ar
    58    27    25   ar
    59    26    24   ar
    60    11    10    1
    61     5     2    1
    62    19    18    1
    63    10     9    1
    64    25    23   ar
    65     2     1    1
    66     2     3    1
    67    24    22   ar
    68    17    18    1
    69    23    22   ar
    70    18    21    1
    71    22    21    1
    72    89    87    1
    73   100    98   ar
    74   100    99   ar
    75    98    96   ar
    76     3     4    2
    77    99    97   ar
    78    88    87    1
    79    87    86    2
    80    96    95   ar
    81    97    95   ar
    82    95    94    1
    83    86    85    1
    84    94    91    1
    85    85    84    1
    86    91    90    1
    87    91    92    1
    88    84    83    1
    89    93    92    2
    90    83    80    1
    91    80    79    1
    92    80    81    1
    93    81    82    2
