@<TRIPOS>MOLECULE
tmp/4yz5B01.pdb
 185 177 0 0 0
SMALL
GASTEIGER

@<TRIPOS>ATOM
      1  N        -21.2930   35.4680    3.9750 N.3   208  ARG208     -0.1231
      2  CA       -22.4250   34.6200    4.3310 C.3   208  ARG208      0.1694
      3  C        -22.1110   33.1670    3.9680 C.2   208  ARG208      0.2591
      4  O        -21.1060   32.8810    3.3100 O.2   208  ARG208     -0.2718
      5  CB       -23.7060   35.0940    3.6030 C.3   208  ARG208      0.0321
      6  CG       -24.4630   36.2210    4.3350 C.3   208  ARG208      0.0489
      7  CD       -25.9580   36.2280    4.0280 C.3   208  ARG208      0.2205
      8  NE       -26.4790   34.9100    4.3340 N.pl3 208  ARG208     -0.0865
      9  CZ       -27.6230   34.3930    3.9160 C.cat 208  ARG208      0.5346
     10  NH1      -28.4590   35.0810    3.1440 N.pl3 208  ARG208      0.1354
     11  NH2      -27.9450   33.1570    4.2980 N.pl3 208  ARG208      0.1354
     12  N        -22.9760   32.2530    4.3820 N.am  209  ILE209     -0.1980
     13  CA       -22.8710   30.8370    3.9680 C.3   209  ILE209      0.1595
     14  C        -21.5130   30.1890    4.3350 C.2   209  ILE209      0.2287
     15  O        -20.7330   29.8410    3.4510 O.2   209  ILE209     -0.2864
     16  CB       -23.1080   30.6430    2.4380 C.3   209  ILE209      0.0276
     17  CG1      -24.1760   31.5980    1.8800 C.3   209  ILE209      0.0022
     18  CG2      -23.4540   29.1770    2.1300 C.3   209  ILE209      0.0022
     19  CD1      -25.5870   31.4210    2.4190 C.3   209  ILE209      0.0001
     20  N        -19.1650   38.1030   -0.1500 N.3   227  ARG227     -0.1245
     21  CA       -20.1950   38.8840   -0.8310 C.3   227  ARG227      0.1563
     22  C        -19.8640   40.3770   -0.7740 C.2   227  ARG227      0.2260
     23  O        -19.9060   40.9910    0.2880 O.2   227  ARG227     -0.2867
     24  CB       -21.5520   38.6180   -0.1980 C.3   227  ARG227      0.0307
     25  CG       -21.9460   37.1640   -0.2110 C.3   227  ARG227      0.0489
     26  CD       -23.4170   37.0220    0.0870 C.3   227  ARG227      0.2205
     27  NE       -23.8550   35.6490   -0.0950 N.pl3 227  ARG227     -0.0865
     28  CZ       -25.1150   35.2240    0.0230 C.cat 227  ARG227      0.5346
     29  NH1      -26.1010   36.0710    0.3100 N.pl3 227  ARG227      0.1354
     30  NH2      -25.3940   33.9270   -0.1520 N.pl3 227  ARG227      0.1354
     31  N        -28.4320   37.8270   -1.5190 N.3   233  ASP233     -0.1225
     32  CA       -28.2600   36.5610   -2.2530 C.3   233  ASP233      0.1805
     33  C        -28.0810   36.9050   -3.7440 C.2   233  ASP233      0.2597
     34  O        -27.2290   36.3150   -4.4330 O.2   233  ASP233     -0.2718
     35  CB       -29.4570   35.6040   -2.0820 C.3   233  ASP233      0.1424
     36  CG       -29.7080   35.2120   -0.6340 C.2   233  ASP233      0.3668
     37  OD1      -28.7290   35.0110    0.1210 O.co2 233  ASP233     -0.2456
     38  OD2      -30.8970   35.0960   -0.2510 O.co2 233  ASP233     -0.2456
     39  N        -28.8890   37.8650   -4.2110 N.am  234  PHE234     -0.1976
     40  CA       -28.8200   38.3270   -5.5720 C.3   234  PHE234      0.1639
     41  C        -29.4770   39.6780   -5.7080 C.2   234  PHE234      0.2290
     42  O        -30.2060   40.0810   -4.8190 O.2   234  PHE234     -0.2864
     43  CB       -29.5620   37.3650   -6.4760 C.3   234  PHE234      0.0560
     44  CG       -30.9460   37.0090   -5.9780 C.ar  234  PHE234     -0.0200
     45  CD1      -32.0190   37.8790   -6.1590 C.ar  234  PHE234     -0.0042
     46  CD2      -31.1710   35.7900   -5.3430 C.ar  234  PHE234     -0.0042
     47  CE1      -33.2870   37.5510   -5.7070 C.ar  234  PHE234     -0.0003
     48  CE2      -32.4400   35.4540   -4.8760 C.ar  234  PHE234     -0.0003
     49  CZ       -33.4990   36.3360   -5.0520 C.ar  234  PHE234     -0.0000
     50  N        -21.5750   31.0050   -5.8310 N.3   289  ILE289     -0.1231
     51  CA       -22.4110   31.0710   -4.6240 C.3   289  ILE289      0.1692
     52  C        -22.7260   29.6490   -4.1030 C.2   289  ILE289      0.2592
     53  O        -22.9050   28.7370   -4.9090 O.2   289  ILE289     -0.2718
     54  CB       -23.6980   31.8930   -4.9000 C.3   289  ILE289      0.0266
     55  CG1      -24.5530   32.0300   -3.6250 C.3   289  ILE289      0.0019
     56  CG2      -24.5100   31.2980   -6.0530 C.3   289  ILE289      0.0020
     57  CD1      -25.7730   32.9370   -3.7370 C.3   289  ILE289      0.0001
     58  N        -22.7500   29.4800   -2.7660 N.am  290  ASP290     -0.1974
     59  CA       -23.1850   28.2510   -2.0620 C.3   290  ASP290      0.1709
     60  C        -22.2580   27.0560   -2.3120 C.2   290  ASP290      0.2293
     61  O        -22.4720   26.2860   -3.2520 O.2   290  ASP290     -0.2864
     62  CB       -24.6450   27.8510   -2.4220 C.3   290  ASP290      0.1436
     63  CG       -25.6760   28.8720   -1.9680 C.2   290  ASP290      0.3671
     64  OD1      -25.3360   29.7950   -1.1980 O.co2 290  ASP290     -0.2456
     65  OD2      -26.8440   28.7570   -2.3930 O.co2 290  ASP290     -0.2456
     66  N        -22.3770   26.8900   -7.0930 N.3   306  ASP306     -0.1239
     67  CA       -23.2720   27.3690   -8.1310 C.3   306  ASP306      0.1674
     68  C        -22.5170   28.4710   -8.8780 C.2   306  ASP306      0.2266
     69  O        -21.7370   29.2020   -8.2750 O.2   306  ASP306     -0.2867
     70  CB       -24.5540   28.0220   -7.5750 C.3   306  ASP306      0.1410
     71  CG       -25.4430   27.0860   -6.7950 C.2   306  ASP306      0.3668
     72  OD1      -25.2920   25.8510   -6.8020 O.co2 306  ASP306     -0.2456
     73  OD2      -26.3770   27.6110   -6.1810 O.co2 306  ASP306     -0.2456
     74  N        -23.3230   31.7540  -11.4740 N.3   308  MET308     -0.1245
     75  CA       -24.3190   32.6650  -12.0370 C.3   308  MET308      0.1570
     76  C        -23.6320   33.6110  -12.9890 C.2   308  MET308      0.2261
     77  O        -22.6890   34.2820  -12.5800 O.2   308  MET308     -0.2867
     78  CB       -24.9410   33.5210  -10.9330 C.3   308  MET308      0.0387
     79  CG       -25.5300   32.7380   -9.7690 C.3   308  MET308      0.0595
     80  SD       -26.8520   31.5870  -10.1570 S.3   308  MET308     -0.1393
     81  CE       -27.6980   32.4120  -11.4680 C.3   308  MET308      0.0692
     82  N        -31.0410   32.9880   -8.7020 N.3   314  PHE314     -0.1241
     83  CA       -32.1690   32.0830   -8.4190 C.3   314  PHE314      0.1605
     84  C        -33.4830   32.5830   -9.0540 C.2   314  PHE314      0.2264
     85  O        -34.3040   31.7730   -9.4720 O.2   314  PHE314     -0.2867
     86  CB       -32.3720   31.8710   -6.9030 C.3   314  PHE314      0.0534
     87  CG       -33.4800   30.8840   -6.5610 C.ar  314  PHE314     -0.0203
     88  CD1      -34.8110   31.3090   -6.4490 C.ar  314  PHE314     -0.0042
     89  CD2      -33.1940   29.5350   -6.3460 C.ar  314  PHE314     -0.0042
     90  CE1      -35.8250   30.4110   -6.1450 C.ar  314  PHE314     -0.0003
     91  CE2      -34.2100   28.6300   -6.0440 C.ar  314  PHE314     -0.0003
     92  CZ       -35.5250   29.0700   -5.9390 C.ar  314  PHE314     -0.0000
     93  N        -29.6800   23.6940   -7.6060 N.3   447  TYR447     -0.1241
     94  CA       -29.0170   24.6320   -6.7260 C.3   447  TYR447      0.1605
     95  C        -28.4490   23.8290   -5.5600 C.2   447  TYR447      0.2264
     96  O        -29.1670   23.0200   -4.9560 O.2   447  TYR447     -0.2867
     97  CB       -30.0260   25.6720   -6.2310 C.3   447  TYR447      0.0534
     98  CG       -30.6970   26.4540   -7.3460 C.ar  447  TYR447     -0.0201
     99  CD1      -30.0200   27.4820   -7.9900 C.ar  447  TYR447     -0.0009
    100  CD2      -32.0110   26.1760   -7.7500 C.ar  447  TYR447     -0.0009
    101  CE1      -30.6230   28.2090   -9.0150 C.ar  447  TYR447      0.0417
    102  CE2      -32.6250   26.9030   -8.7760 C.ar  447  TYR447      0.0417
    103  CZ       -31.9210   27.9150   -9.4040 C.ar  447  TYR447      0.1957
    104  OH       -32.4710   28.6560  -10.4180 O.3   447  TYR447     -0.2866
    105  N        -31.1270   21.0490   -4.8540 N.3   467  TYR467     -0.1241
    106  CA       -32.5660   21.2240   -4.9340 C.3   467  TYR467      0.1605
    107  C        -32.9540   22.1230   -6.1080 C.2   467  TYR467      0.2264
    108  O        -32.1590   22.9480   -6.5800 O.2   467  TYR467     -0.2867
    109  CB       -33.1090   21.8210   -3.6170 C.3   467  TYR467      0.0534
    110  CG       -32.6490   23.2390   -3.3410 C.ar  467  TYR467     -0.0201
    111  CD1      -31.3980   23.4890   -2.7920 C.ar  467  TYR467     -0.0009
    112  CD2      -33.4610   24.3230   -3.6350 C.ar  467  TYR467     -0.0009
    113  CE1      -30.9720   24.7830   -2.5300 C.ar  467  TYR467      0.0417
    114  CE2      -33.0440   25.6220   -3.3810 C.ar  467  TYR467      0.0417
    115  CZ       -31.7920   25.8480   -2.8350 C.ar  467  TYR467      0.1957
    116  OH       -31.3830   27.1460   -2.5900 O.3   467  TYR467     -0.2866
    117  N        -37.4340   25.0130   -0.5660 N.3   496  SER496     -0.1217
    118  CA       -36.0160   25.3310   -0.8150 C.3   496  SER496      0.1889
    119  C        -35.1920   24.2800   -0.1130 C.2   496  SER496      0.2288
    120  O        -34.6300   24.5330    0.9250 O.2   496  SER496     -0.2866
    121  CB       -35.6590   26.7270   -0.2790 C.3   496  SER496      0.2089
    122  OG       -36.4140   27.7150   -0.9660 O.3   496  SER496     -0.2183
    123  N        -32.5050   22.7970    0.6650 N.3   498  GLU498     -0.1245
    124  CA       -31.1220   22.7430    1.1530 C.3   498  GLU498      0.1567
    125  C        -31.0210   21.5740    2.1420 C.2   498  GLU498      0.2260
    126  O        -31.7190   21.5500    3.1710 O.2   498  GLU498     -0.2867
    127  CB       -30.7690   24.0370    1.8760 C.3   498  GLU498      0.0388
    128  CG       -30.6870   25.2480    0.9760 C.3   498  GLU498      0.1160
    129  CD       -30.6530   26.5650    1.7270 C.2   498  GLU498      0.3649
    130  OE1      -31.4010   26.7590    2.7130 O.co2 498  GLU498     -0.2457
    131  OE2      -29.8980   27.4370    1.3040 O.co2 498  GLU498     -0.2457
    132  N        -34.4310   21.6990    4.6520 N.3   514  ARG514     -0.1245
    133  CA       -35.3110   22.8430    4.8310 C.3   514  ARG514      0.1563
    134  C        -36.5900   22.5930    4.0250 C.2   514  ARG514      0.2260
    135  O        -36.5430   21.9310    2.9870 O.2   514  ARG514     -0.2867
    136  CB       -34.5800   24.1040    4.3300 C.3   514  ARG514      0.0307
    137  CG       -35.3690   25.4010    4.2260 C.3   514  ARG514      0.0489
    138  CD       -34.4940   26.4570    3.6040 C.3   514  ARG514      0.2205
    139  NE       -35.1780   27.7220    3.3630 N.pl3 514  ARG514     -0.0865
    140  CZ       -34.5720   28.8380    2.9330 C.cat 514  ARG514      0.5346
    141  NH1      -33.2550   28.8500    2.6810 N.pl3 514  ARG514      0.1354
    142  NH2      -35.2730   29.9540    2.7580 N.pl3 514  ARG514      0.1354
    143  N        -35.0160   33.9500   12.1370 N.3   576  ARG576     -0.1245
    144  CA       -33.8060   33.1420   12.1380 C.3   576  ARG576      0.1563
    145  C        -33.0700   33.4420   13.4200 C.2   576  ARG576      0.2260
    146  O        -32.1880   34.3030   13.4680 O.2   576  ARG576     -0.2867
    147  CB       -32.9690   33.3790   10.8900 C.3   576  ARG576      0.0307
    148  CG       -33.6420   32.7970    9.6650 C.3   576  ARG576      0.0489
    149  CD       -32.7770   32.9150    8.4360 C.3   576  ARG576      0.2205
    150  NE       -33.3160   32.1820    7.3100 N.pl3 576  ARG576     -0.0865
    151  CZ       -32.9100   32.3280    6.0470 C.cat 576  ARG576      0.5346
    152  NH1      -31.9630   33.2110    5.7180 N.pl3 576  ARG576      0.1354
    153  NH2      -33.4600   31.5880    5.0890 N.pl3 576  ARG576      0.1354
    154  N        -27.6380   30.6300    8.7520 N.3   609  TYR609     -0.1241
    155  CA       -26.9170   29.4890    8.2000 C.3   609  TYR609      0.1605
    156  C        -25.7460   29.0770    9.1320 C.2   609  TYR609      0.2264
    157  O        -25.1140   29.9180    9.7640 O.2   609  TYR609     -0.2867
    158  CB       -26.3990   29.7920    6.7800 C.3   609  TYR609      0.0534
    159  CG       -27.4490   29.7280    5.6740 C.ar  609  TYR609     -0.0201
    160  CD1      -28.7500   30.2120    5.8690 C.ar  609  TYR609     -0.0009
    161  CD2      -27.1340   29.1920    4.4170 C.ar  609  TYR609     -0.0009
    162  CE1      -29.7000   30.1520    4.8640 C.ar  609  TYR609      0.0417
    163  CE2      -28.0840   29.1250    3.3990 C.ar  609  TYR609      0.0417
    164  CZ       -29.3600   29.6150    3.6240 C.ar  609  TYR609      0.1957
    165  OH       -30.3240   29.5640    2.6510 O.3   609  TYR609     -0.2866
    166  N        -30.4200   36.4310    8.6860 N.3   629  SER629     -0.1202
    167  CA       -30.0830   36.6770    7.2710 C.3   629  SER629      0.2020
    168  C        -31.2920   36.7840    6.3380 C.2   629  SER629      0.2618
    169  O        -31.1210   37.0540    5.1690 O.2   629  SER629     -0.2717
    170  CB       -29.0840   35.6310    6.7590 C.3   629  SER629      0.2103
    171  OG       -29.6500   34.3230    6.6660 O.3   629  SER629     -0.2182
    172  N        -32.4910   36.5550    6.8520 N.am  630  TRP630     -0.1975
    173  CA       -33.7510   36.7310    6.1020 C.3   630  TRP630      0.1640
    174  C        -34.3150   38.1380    6.2280 C.2   630  TRP630      0.2290
    175  O        -34.9020   38.6790    5.2880 O.2   630  TRP630     -0.2864
    176  CB       -34.8020   35.7480    6.6410 C.3   630  TRP630      0.0576
    177  CG       -36.1270   35.8090    5.9590 C.ar  630  TRP630      0.0006
    178  CD1      -37.2290   36.5080    6.3670 C.ar  630  TRP630      0.0946
    179  CD2      -36.4900   35.1500    4.7550 C.ar  630  TRP630      0.0152
    180  NE1      -38.2530   36.3240    5.4920 N.ar  630  TRP630     -0.2442
    181  CE2      -37.8300   35.4880    4.4900 C.ar  630  TRP630      0.0810
    182  CE3      -35.8110   34.3100    3.8670 C.ar  630  TRP630      0.0012
    183  CZ2      -38.5080   35.0160    3.3710 C.ar  630  TRP630      0.0191
    184  CZ3      -36.4800   33.8420    2.7510 C.ar  630  TRP630      0.0001
    185  CH2      -37.8170   34.1930    2.5110 C.ar  630  TRP630      0.0015
@<TRIPOS>BOND
     1    76    77    2
     2    76    75    1
     3    75    74    1
     4    75    78    1
     5    81    80    1
     6    78    79    1
     7   104   103    1
     8    80    79    1
     9    85    84    2
    10   103   101   ar
    11   103   102   ar
    12    84    83    1
    13   101    99   ar
    14    68    69    2
    15    68    67    1
    16   102   100   ar
    17    82    83    1
    18    83    86    1
    19    67    70    1
    20    67    66    1
    21    99    98   ar
    22   100    98   ar
    23    93    94    1
    24    70    71    1
    25    98    97    1
    26    86    87    1
    27    72    71   ar
    28    71    73   ar
    29    94    97    1
    30    94    95    1
    31   108   107    2
    32    87    88   ar
    33    87    89   ar
    34    43    44    1
    35    43    40    1
    36    88    90   ar
    37    89    91   ar
    38    45    44   ar
    39    45    47   ar
    40    90    92   ar
    41   107   106    1
    42    56    54    1
    43    91    92   ar
    44    44    46   ar
    45    50    51    1
    46    41    40    1
    47    41    42    2
    48    47    49   ar
    49    40    39    1
    50    95    96    2
    51    46    48   ar
    52    49    48   ar
    53   106   105    1
    54   106   109    1
    55    53    52    2
    56    54    51    1
    57    54    55    1
    58    51    52    1
    59    34    33    2
    60    39    33   am
    61    52    58   am
    62    33    32    1
    63    57    55    1
    64   112   114   ar
    65   112   110   ar
    66   109   110    1
    67   114   115   ar
    68   110   111   ar
    69    61    60    2
    70   115   116    1
    71   115   113   ar
    72   111   113   ar
    73    58    59    1
    74    62    59    1
    75    62    63    1
    76    65    63   ar
    77    60    59    1
    78    32    35    1
    79    32    31    1
    80    35    36    1
    81    63    64   ar
    82   122   121    1
    83    21    22    1
    84    21    24    1
    85    21    20    1
    86   118   117    1
    87   118   121    1
    88   118   119    1
    89    22    23    2
    90    36    38   ar
    91    36    37   ar
    92    25    24    1
    93    25    26    1
    94    30    28    1
    95   119   120    2
    96    27    28    2
    97    27    26    1
    98    28    29    1
    99   123   124    1
   100   128   129    1
   101   128   127    1
   102   124   127    1
   103   124   125    1
   104   131   129   ar
   105   129   130   ar
   106    17    19    1
   107    17    16    1
   108    18    16    1
   109   125   126    2
   110    16    13    1
   111   185   184   ar
   112   185   183   ar
   113   165   164    1
   114   141   140    1
   115   184   182   ar
   116   142   140    1
   117   140   139    2
   118   135   134    2
   119    10     9    1
   120     4     3    2
   121   139   138    1
   122   183   181   ar
   123   163   164   ar
   124   163   161   ar
   125    15    14    2
   126     5     2    1
   127     5     6    1
   128   138   137    1
   129   164   162   ar
   130   182   179   ar
   131     9    11    1
   132     9     8    2
   133     3     2    1
   134     3    12   am
   135    13    14    1
   136    13    12    1
   137     1     2    1
   138   134   133    1
   139     7     8    1
   140     7     6    1
   141   137   136    1
   142   136   133    1
   143   161   159   ar
   144   181   179   ar
   145   181   180   ar
   146   132   133    1
   147   179   177   ar
   148   162   160   ar
   149   153   151    1
   150   169   168    2
   151   175   174    2
   152   180   178   ar
   153   159   160   ar
   154   159   158    1
   155   152   151    1
   156   177   178   ar
   157   177   176    1
   158   151   150    2
   159   173   174    1
   160   173   176    1
   161   173   172    1
   162   168   172   am
   163   168   167    1
   164   171   170    1
   165   170   167    1
   166   158   155    1
   167   167   166    1
   168   150   149    1
   169   155   154    1
   170   155   156    1
   171   149   148    1
   172   156   157    2
   173   148   147    1
   174   147   144    1
   175   143   144    1
   176   144   145    1
   177   145   146    2
