@<TRIPOS>MOLECULE
tmp/4yz7B00.pdb
 108 100 0 0 0
SMALL
GASTEIGER

@<TRIPOS>ATOM
      1  N          9.5070   12.7620    4.1450 N.3     2  LEU2       -0.1245
      2  CA         9.9220   11.3780    3.9390 C.3     2  LEU2        0.1561
      3  C          8.7780   10.4140    4.2400 C.2     2  LEU2        0.2260
      4  O          8.7850    9.2760    3.7730 O.2     2  LEU2       -0.2867
      5  CB        11.1580   11.0280    4.7760 C.3     2  LEU2        0.0270
      6  CG        12.3640   11.9650    4.6280 C.3     2  LEU2        0.0019
      7  CD1       13.5650   11.4200    5.4000 C.3     2  LEU2        0.0001
      8  CD2       12.7190   12.2010    3.1580 C.3     2  LEU2        0.0001
      9  N          7.2070   10.0110    1.0130 N.3     5  LEU5       -0.1231
     10  CA         8.1990    9.3390    0.1800 C.3     5  LEU5        0.1693
     11  C          8.2030    7.8530    0.4670 C.2     5  LEU5        0.2592
     12  O          8.1000    7.0400   -0.4480 O.2     5  LEU5       -0.2718
     13  CB         9.5860    9.9170    0.4320 C.3     5  LEU5        0.0284
     14  CG        10.7240    9.2660   -0.3540 C.3     5  LEU5        0.0019
     15  CD1       10.4760    9.4100   -1.8380 C.3     5  LEU5        0.0001
     16  CD2       12.0490    9.8730    0.0350 C.3     5  LEU5        0.0001
     17  N          8.3000    7.5120    1.7490 N.am    6  GLY6       -0.1957
     18  CA         8.2550    6.1310    2.1880 C.3     6  GLY6        0.1869
     19  C          7.0300    5.4240    1.6620 C.2     6  GLY6        0.2309
     20  O          7.1290    4.3360    1.1140 O.2     6  GLY6       -0.2863
     21  N          7.1840    4.6980   -2.0920 N.3     9  ILE9       -0.1245
     22  CA         8.1400    3.6460   -2.4310 C.3     9  ILE9        0.1561
     23  C          7.4830    2.2930   -2.2210 C.2     9  ILE9        0.2260
     24  O          7.5610    1.4040   -3.0710 O.2     9  ILE9       -0.2867
     25  CB         9.4250    3.7830   -1.5950 C.3     9  ILE9        0.0252
     26  CG1       10.1240    5.1040   -1.9420 C.3     9  ILE9        0.0019
     27  CG2       10.3640    2.5990   -1.8370 C.3     9  ILE9        0.0019
     28  CD1       11.4690    5.3230   -1.2420 C.3     9  ILE9        0.0001
     29  N         10.8000    0.2500    2.3020 N.3    17  PRO17      -0.2102
     30  CA        11.6570    1.3250    1.7850 C.3    17  PRO17       0.1504
     31  C         13.0250    1.4100    2.4650 C.2    17  PRO17       0.2575
     32  O         14.0340    1.5130    1.7790 O.2    17  PRO17      -0.2718
     33  CB        10.8380    2.5900    2.0590 C.3    17  PRO17       0.0282
     34  CG         9.4220    2.1130    2.0990 C.3    17  PRO17       0.0208
     35  CD         9.4880    0.7600    2.7470 C.3    17  PRO17       0.0893
     36  N         13.0640    1.3520    3.7890 N.am   18  ALA18      -0.1980
     37  CA        14.3340    1.4590    4.4870 C.3    18  ALA18       0.1597
     38  C         15.2480    0.2610    4.1890 C.2    18  ALA18       0.2287
     39  O         16.4570    0.4210    3.9920 O.2    18  ALA18      -0.2864
     40  CB        14.0960    1.5900    5.9630 C.3    18  ALA18       0.0319
     41  N         16.2460    0.7840    0.4470 N.3    21  TYR21      -0.1227
     42  CA        16.7120    2.0950   -0.0090 C.3    21  TYR21       0.1736
     43  C         17.1530    3.0640    1.0840 C.2    21  TYR21       0.2596
     44  O         17.4380    4.2270    0.7970 O.2    21  TYR21      -0.2718
     45  CB        15.6330    2.7630   -0.8730 C.3    21  TYR21       0.0548
     46  CG        15.1080    1.8630   -1.9650 C.ar   21  TYR21      -0.0200
     47  CD1       15.9060    1.5320   -3.0550 C.ar   21  TYR21      -0.0009
     48  CD2       13.8220    1.3380   -1.9030 C.ar   21  TYR21      -0.0009
     49  CE1       15.4450    0.7090   -4.0530 C.ar   21  TYR21       0.0417
     50  CE2       13.3460    0.5120   -2.9040 C.ar   21  TYR21       0.0417
     51  CZ        14.1700    0.1980   -3.9750 C.ar   21  TYR21       0.1957
     52  OH        13.7110   -0.6080   -4.9760 O.3    21  TYR21      -0.2866
     53  N         17.1890    2.6060    2.3290 N.am   22  GLY22      -0.1957
     54  CA        17.6080    3.4610    3.4290 C.3    22  GLY22       0.1869
     55  C         19.1160    3.6300    3.4390 C.2    22  GLY22       0.2309
     56  O         19.6510    4.6120    3.9490 O.2    22  GLY22      -0.2863
     57  N         23.8510    6.9910   -3.0170 N.3    27  ASN27      -0.1240
     58  CA        22.8360    8.0450   -3.0780 C.3    27  ASN27       0.1653
     59  C         21.5250    7.7820   -2.3720 C.2    27  ASN27       0.2266
     60  O         20.7840    8.7180   -2.0790 O.2    27  ASN27      -0.2867
     61  CB        22.5290    8.3920   -4.5250 C.3    27  ASN27       0.1155
     62  CG        23.6900    9.0240   -5.2100 C.2    27  ASN27       0.2627
     63  OD1       23.8880   10.2150   -5.0910 O.2    27  ASN27      -0.2716
     64  ND2       24.4720    8.2330   -5.9300 N.am   27  ASN27      -0.0877
     65  N         19.4530    7.0470    0.7290 N.3    29  GLY29      -0.1225
     66  CA        19.5010    7.0870    2.1700 C.3    29  GLY29       0.1811
     67  C         20.1530    8.3680    2.6200 C.2    29  GLY29       0.2280
     68  O         19.9400    9.4210    2.0160 O.2    29  GLY29      -0.2866
     69  N         18.0400    7.7050   -6.7640 N.3    44  CYS44      -0.1235
     70  CA        18.2310    8.4360   -5.5240 C.3    44  CYS44       0.1677
     71  C         19.0610    9.6940   -5.7230 C.2    44  CYS44       0.2270
     72  O         18.8260   10.7140   -5.0730 O.2    44  CYS44      -0.2867
     73  CB        18.8790    7.5240   -4.5060 C.3    44  CYS44       0.0956
     74  SG        17.7830    6.1910   -4.0440 S.3    44  CYS44      -0.0801
     75  N         16.8570   12.0940   -7.3720 N.3    47  HIS47      -0.1226
     76  CA        15.9180   12.4790   -6.3390 C.3    47  HIS47       0.1752
     77  C         16.5360   13.5450   -5.4530 C.2    47  HIS47       0.2595
     78  O         15.9120   14.5570   -5.1570 O.2    47  HIS47      -0.2718
     79  CB        15.5500   11.2610   -5.5000 C.3    47  HIS47       0.0759
     80  CG        14.5200   11.5360   -4.4530 C.ar   47  HIS47       0.0818
     81  ND1       14.7500   11.3180   -3.1120 N.ar   47  HIS47      -0.2268
     82  CD2       13.2520   11.9980   -4.5470 C.ar   47  HIS47       0.1154
     83  CE1       13.6710   11.6430   -2.4240 C.ar   47  HIS47       0.1986
     84  NE2       12.7450   12.0550   -3.2730 N.ar   47  HIS47      -0.2212
     85  N         17.7780   13.3330   -5.0460 N.am   48  LYS48      -0.1980
     86  CA        18.4190   14.3010   -4.1660 C.3    48  LYS48       0.1596
     87  C         18.6720   15.6300   -4.8730 C.2    48  LYS48       0.2287
     88  O         18.5710   16.7070   -4.2680 O.2    48  LYS48      -0.2864
     89  CB        19.6840   13.7190   -3.5440 C.3    48  LYS48       0.0298
     90  CG        19.3600   12.7460   -2.4260 C.3    48  LYS48       0.0038
     91  CD        20.5990   12.1780   -1.7710 C.3    48  LYS48       0.0206
     92  CE        20.2040   11.3150   -0.5800 C.3    48  LYS48       0.1093
     93  NZ        21.3780   10.5960   -0.0260 N.3    48  LYS48      -0.1314
     94  N         11.0680    9.4140   -7.8950 N.3    92  VAL92      -0.1245
     95  CA        12.0390    8.4550   -7.3750 C.3    92  VAL92       0.1561
     96  C         11.3810    7.1150   -7.0720 C.2    92  VAL92       0.2260
     97  O         11.9880    6.0660   -7.2790 O.2    92  VAL92      -0.2867
     98  CB        12.8230    8.9640   -6.1550 C.3    92  VAL92       0.0252
     99  CG1       11.9400    8.9980   -4.9250 C.3    92  VAL92       0.0019
    100  CG2       14.0360    8.0670   -5.8940 C.3    92  VAL92       0.0019
    101  N         12.5700    3.8360   -8.7480 N.3    96  LEU96      -0.1245
    102  CA        13.0040    2.6990   -7.9500 C.3    96  LEU96       0.1561
    103  C         12.3100    1.4160   -8.4090 C.2    96  LEU96       0.2260
    104  O         12.9670    0.4000   -8.5930 O.2    96  LEU96      -0.2867
    105  CB        12.8070    2.9570   -6.4490 C.3    96  LEU96       0.0270
    106  CG        13.7310    4.0090   -5.8130 C.3    96  LEU96       0.0019
    107  CD1       13.4170    4.1880   -4.3360 C.3    96  LEU96       0.0001
    108  CD2       15.2090    3.6630   -5.9980 C.3    96  LEU96       0.0001
@<TRIPOS>BOND
     1   101   102    1
     2   104   103    2
     3   103   102    1
     4   102   105    1
     5    94    95    1
     6    95    96    1
     7    95    98    1
     8    75    76    1
     9    97    96    2
    10    69    70    1
    11   105   106    1
    12    76    79    1
    13    76    77    1
    14    98   100    1
    15    98    99    1
    16   108   106    1
    17    64    62   am
    18   106   107    1
    19    71    70    1
    20    71    72    2
    21    70    73    1
    22    79    80    1
    23    77    78    2
    24    77    85   am
    25    62    63    2
    26    62    61    1
    27    85    86    1
    28    52    51    1
    29    87    88    2
    30    87    86    1
    31    82    80   ar
    32    82    84   ar
    33    61    58    1
    34    73    74    1
    35    80    81   ar
    36    86    89    1
    37    49    51   ar
    38    49    47   ar
    39    51    50   ar
    40    89    90    1
    41    84    83   ar
    42    81    83   ar
    43    58    57    1
    44    58    59    1
    45    24    23    2
    46    47    46   ar
    47    50    48   ar
    48    22    23    1
    49    22    21    1
    50    22    25    1
    51    90    91    1
    52    59    60    2
    53    46    48   ar
    54    46    45    1
    55    26    25    1
    56    26    28    1
    57    15    14    1
    58    27    25    1
    59    91    92    1
    60    45    42    1
    61    92    93    1
    62    12    11    2
    63    14    16    1
    64    14    13    1
    65    42    41    1
    66    42    43    1
    67    10    13    1
    68    10    11    1
    69    10     9    1
    70    11    17   am
    71    65    66    1
    72    44    43    2
    73    43    53   am
    74    20    19    2
    75    19    18    1
    76    17    18    1
    77    32    31    2
    78    30    33    1
    79    30    29    1
    80    30    31    1
    81    68    67    2
    82    33    34    1
    83    34    35    1
    84    66    67    1
    85    29    35    1
    86    53    54    1
    87    31    36   am
    88     8     6    1
    89    54    55    1
    90    55    56    2
    91     4     3    2
    92    36    37    1
    93     2     1    1
    94     2     3    1
    95     2     5    1
    96    39    38    2
    97    38    37    1
    98    37    40    1
    99     6     5    1
   100     6     7    1
