@<TRIPOS>MOLECULE
tmp/4yz9A00.pdb
 193 181 0 0 0
SMALL
GASTEIGER

@<TRIPOS>ATOM
      1  N        -72.5920   25.5340   -7.8950 N.3    20  ALA20      -0.1231
      2  CA       -72.4380   26.2110   -9.1930 C.3    20  ALA20       0.1694
      3  C        -73.6980   26.6510   -9.9540 C.2    20  ALA20       0.2591
      4  O        -74.2090   25.8910  -10.7820 O.2    20  ALA20      -0.2718
      5  CB       -71.5340   25.3830  -10.1130 C.3    20  ALA20       0.0304
      6  N        -74.2480   27.8370   -9.6310 N.am   21  GLU21      -0.1979
      7  CA       -75.3910   28.4280  -10.3450 C.3    21  GLU21       0.1602
      8  C        -76.7190   27.7670  -10.0300 C.2    21  GLU21       0.2287
      9  O        -77.5660   27.6060  -10.9150 O.2    21  GLU21      -0.2864
     10  CB       -75.1920   28.3530  -11.8770 C.3    21  GLU21       0.0415
     11  CG       -73.9190   28.9820  -12.4140 C.3    21  GLU21       0.1163
     12  CD       -73.8860   30.4800  -12.2290 C.2    21  GLU21       0.3649
     13  OE1      -74.8430   31.1500  -12.6700 O.co2  21  GLU21      -0.2457
     14  OE2      -72.9120   30.9890  -11.6340 O.co2  21  GLU21      -0.2457
     15  N        -77.4710   24.8240   -9.3760 N.3    23  THR23      -0.1218
     16  CA       -77.6330   23.4570   -9.8390 C.3    23  THR23       0.1862
     17  C        -77.7300   22.5150   -8.6520 C.2    23  THR23       0.2287
     18  O        -76.9760   22.6350   -7.6820 O.2    23  THR23      -0.2866
     19  CB       -76.4610   23.0480  -10.7270 C.3    23  THR23       0.1770
     20  OG1      -76.4080   23.8970  -11.8810 O.3    23  THR23      -0.2211
     21  CG2      -76.6130   21.6060  -11.1780 C.3    23  THR23       0.0375
     22  N        -78.5130   16.1440  -12.8010 N.3    38  LYS38      -0.1245
     23  CA       -78.3910   17.5720  -12.5300 C.3    38  LYS38       0.1561
     24  C        -79.6220   18.3060  -13.0420 C.2    38  LYS38       0.2260
     25  O        -80.1060   18.0300  -14.1440 O.2    38  LYS38      -0.2867
     26  CB       -77.1400   18.1480  -13.1960 C.3    38  LYS38       0.0271
     27  CG       -75.8570   17.4200  -12.8450 C.3    38  LYS38       0.0035
     28  CD       -74.6270   18.2450  -13.1910 C.3    38  LYS38       0.0206
     29  CE       -74.4540   18.3730  -14.6910 C.3    38  LYS38       0.1093
     30  NZ       -73.1080   18.9060  -15.0460 N.3    38  LYS38      -0.1314
     31  N        -80.7450   21.8660  -14.2240 N.3    40  ILE40      -0.1245
     32  CA       -80.2290   23.1460  -14.6930 C.3    40  ILE40       0.1561
     33  C        -81.3430   24.1830  -14.6100 C.2    40  ILE40       0.2260
     34  O        -82.4380   23.9770  -15.1460 O.2    40  ILE40      -0.2867
     35  CB       -79.7000   23.0280  -16.1320 C.3    40  ILE40       0.0252
     36  CG1      -78.7730   21.8140  -16.2730 C.3    40  ILE40       0.0019
     37  CG2      -78.9790   24.3100  -16.5410 C.3    40  ILE40       0.0019
     38  CD1      -77.5440   21.8510  -15.3690 C.3    40  ILE40       0.0001
     39  N        -78.8210   29.1440  -16.0250 N.3    44  CYS44      -0.1235
     40  CA       -77.6740   28.3560  -16.4510 C.3    44  CYS44       0.1677
     41  C        -77.8580   27.6790  -17.8080 C.2    44  CYS44       0.2270
     42  O        -76.9310   27.0040  -18.2700 O.2    44  CYS44      -0.2867
     43  CB       -77.3630   27.3040  -15.3880 C.3    44  CYS44       0.0956
     44  SG       -75.6820   26.6920  -15.4400 S.3    44  CYS44      -0.0801
     45  N        -75.0290   28.4450  -20.3830 N.3    47  PHE47      -0.1227
     46  CA       -73.7670   27.8300  -19.9870 C.3    47  PHE47       0.1736
     47  C        -73.7920   26.3280  -20.2450 C.2    47  PHE47       0.2595
     48  O        -72.8590   25.7700  -20.8340 O.2    47  PHE47      -0.2718
     49  CB       -73.4860   28.1080  -18.5090 C.3    47  PHE47       0.0547
     50  CG       -73.5110   29.5640  -18.1420 C.ar   47  PHE47      -0.0202
     51  CD1      -73.1540   30.5340  -19.0600 C.ar   47  PHE47      -0.0042
     52  CD2      -73.8910   29.9590  -16.8680 C.ar   47  PHE47      -0.0042
     53  CE1      -73.1790   31.8710  -18.7180 C.ar   47  PHE47      -0.0003
     54  CE2      -73.9160   31.2930  -16.5210 C.ar   47  PHE47      -0.0003
     55  CZ       -73.5600   32.2510  -17.4460 C.ar   47  PHE47      -0.0000
     56  N        -74.8580   25.6590  -19.8020 N.am   48  ALA48      -0.1980
     57  CA       -75.0030   24.2240  -20.0220 C.3    48  ALA48       0.1597
     58  C        -74.8490   23.8690  -21.4980 C.2    48  ALA48       0.2287
     59  O        -73.9390   23.1250  -21.8770 O.2    48  ALA48      -0.2864
     60  CB       -76.3560   23.7470  -19.4850 C.3    48  ALA48       0.0319
     61  N        -71.4500   23.9280  -23.0540 N.3    51  GLU51      -0.1231
     62  CA       -70.4910   22.9650  -22.5320 C.3    51  GLU51       0.1699
     63  C        -70.8610   21.5370  -22.9180 C.2    51  GLU51       0.2592
     64  O        -69.9800   20.7500  -23.2780 O.2    51  GLU51      -0.2718
     65  CB       -70.3870   23.1170  -21.0160 C.3    51  GLU51       0.0402
     66  CG       -69.7430   24.4300  -20.6030 C.3    51  GLU51       0.1161
     67  CD       -69.6400   24.5940  -19.1020 C.2    51  GLU51       0.3649
     68  OE1      -70.2210   23.7630  -18.3730 O.co2  51  GLU51      -0.2457
     69  OE2      -68.9720   25.5500  -18.6510 O.co2  51  GLU51      -0.2457
     70  N        -72.1490   21.1850  -22.8560 N.am   52  VAL52      -0.1980
     71  CA       -72.5850   19.8690  -23.3210 C.3    52  VAL52       0.1595
     72  C        -72.1430   19.6480  -24.7630 C.2    52  VAL52       0.2287
     73  O        -71.5470   18.6170  -25.0990 O.2    52  VAL52      -0.2864
     74  CB       -74.1120   19.7200  -23.1770 C.3    52  VAL52       0.0276
     75  CG1      -74.6260   18.5180  -23.9700 C.3    52  VAL52       0.0022
     76  CG2      -74.4990   19.5820  -21.7230 C.3    52  VAL52       0.0022
     77  N        -68.3600   19.2570  -25.0260 N.3    55  LEU55      -0.1245
     78  CA       -67.9410   17.9580  -24.5170 C.3    55  LEU55       0.1561
     79  C        -68.3710   16.8410  -25.4590 C.2    55  LEU55       0.2260
     80  O        -67.6170   15.8920  -25.6950 O.2    55  LEU55      -0.2867
     81  CB       -68.5260   17.7520  -23.1160 C.3    55  LEU55       0.0270
     82  CG       -67.6160   17.3140  -21.9660 C.3    55  LEU55       0.0019
     83  CD1      -66.3170   18.1020  -21.8970 C.3    55  LEU55       0.0001
     84  CD2      -68.3840   17.4610  -20.6600 C.3    55  LEU55       0.0001
     85  N        -62.6600   13.1600  -16.7710 N.3    64  VAL64      -0.1231
     86  CA       -63.7960   14.0770  -16.7260 C.3    64  VAL64       0.1692
     87  C        -65.0640   13.2500  -16.5690 C.2    64  VAL64       0.2591
     88  O        -65.2740   12.2820  -17.3090 O.2    64  VAL64      -0.2718
     89  CB       -63.8750   14.9550  -17.9860 C.3    64  VAL64       0.0266
     90  CG1      -65.0570   15.9040  -17.8890 C.3    64  VAL64       0.0020
     91  CG2      -62.5870   15.7400  -18.1700 C.3    64  VAL64       0.0020
     92  N        -65.9190   13.6480  -15.6210 N.am   65  ILE65      -0.1980
     93  CA       -67.1270   12.8870  -15.3300 C.3    65  ILE65       0.1595
     94  C        -67.9370   12.7270  -16.6080 C.2    65  ILE65       0.2287
     95  O        -68.0160   13.6410  -17.4380 O.2    65  ILE65      -0.2864
     96  CB       -67.9400   13.5790  -14.2200 C.3    65  ILE65       0.0276
     97  CG1      -68.8320   12.5720  -13.4980 C.3    65  ILE65       0.0022
     98  CG2      -68.7620   14.7360  -14.7720 C.3    65  ILE65       0.0022
     99  CD1      -69.5560   13.1560  -12.2960 C.3    65  ILE65       0.0001
    100  N        -70.8510   12.2000  -19.3970 N.3    67  TYR67      -0.1241
    101  CA       -72.1540   12.7570  -19.7220 C.3    67  TYR67       0.1605
    102  C        -72.9550   11.7290  -20.5110 C.2    67  TYR67       0.2264
    103  O        -72.4630   11.1660  -21.4940 O.2    67  TYR67      -0.2867
    104  CB       -71.9980   14.0530  -20.5120 C.3    67  TYR67       0.0534
    105  CG       -73.2000   14.4390  -21.3360 C.ar   67  TYR67      -0.0201
    106  CD1      -74.3200   15.0030  -20.7450 C.ar   67  TYR67      -0.0009
    107  CD2      -73.2010   14.2640  -22.7110 C.ar   67  TYR67      -0.0009
    108  CE1      -75.4180   15.3690  -21.5020 C.ar   67  TYR67       0.0417
    109  CE2      -74.2870   14.6270  -23.4760 C.ar   67  TYR67       0.0417
    110  CZ       -75.3930   15.1810  -22.8670 C.ar   67  TYR67       0.1957
    111  OH       -76.4820   15.5430  -23.6260 O.3    67  TYR67      -0.2866
    112  N        -79.8940   16.7100  -16.7390 N.3    79  ILE79      -0.1245
    113  CA       -78.7070   16.0980  -17.3300 C.3    79  ILE79       0.1561
    114  C        -78.3050   14.9230  -16.4510 C.2    79  ILE79       0.2260
    115  O        -78.1210   15.0820  -15.2370 O.2    79  ILE79      -0.2867
    116  CB       -77.5530   17.1060  -17.4710 C.3    79  ILE79       0.0252
    117  CG1      -77.9580   18.2340  -18.4280 C.3    79  ILE79       0.0019
    118  CG2      -76.2850   16.4010  -17.9630 C.3    79  ILE79       0.0019
    119  CD1      -76.9040   19.3070  -18.6250 C.3    79  ILE79       0.0001
    120  N        -75.5460   12.3470  -15.3420 N.3    81  ILE81      -0.1245
    121  CA       -74.0910   12.2740  -15.2910 C.3    81  ILE81       0.1561
    122  C        -73.6820   11.0380  -14.4990 C.2    81  ILE81       0.2260
    123  O        -74.4700   10.4490  -13.7560 O.2    81  ILE81      -0.2867
    124  CB       -73.4610   13.5390  -14.6720 C.3    81  ILE81       0.0252
    125  CG1      -74.0890   13.9200  -13.3580 C.3    81  ILE81       0.0019
    126  CG2      -73.5570   14.7150  -15.6750 C.3    81  ILE81       0.0019
    127  CD1      -74.0270   12.8800  -12.2540 C.3    81  ILE81       0.0001
    128  N        -60.3100   19.9500  -20.2760 N.3   118  LEU118     -0.1245
    129  CA       -61.3060   21.0150  -20.2740 C.3   118  LEU118      0.1561
    130  C        -60.7260   22.2930  -20.8640 C.2   118  LEU118      0.2260
    131  O        -61.3420   22.9290  -21.7270 O.2   118  LEU118     -0.2867
    132  CB       -61.8240   21.2590  -18.8520 C.3   118  LEU118      0.0270
    133  CG       -62.7240   20.1810  -18.2310 C.3   118  LEU118      0.0019
    134  CD1      -63.1540   20.5940  -16.8310 C.3   118  LEU118      0.0001
    135  CD2      -63.9450   19.9020  -19.0880 C.3   118  LEU118      0.0001
    136  N        -63.0010   25.5710  -21.8500 N.3   123  ILE123     -0.1231
    137  CA       -63.8860   25.4760  -20.6940 C.3   123  ILE123      0.1692
    138  C        -63.0530   25.7390  -19.4490 C.2   123  ILE123      0.2592
    139  O        -61.9910   25.1330  -19.2670 O.2   123  ILE123     -0.2718
    140  CB       -64.5700   24.1000  -20.6040 C.3   123  ILE123      0.0266
    141  CG1      -65.4250   23.8410  -21.8470 C.3   123  ILE123      0.0019
    142  CG2      -65.4260   24.0130  -19.3400 C.3   123  ILE123      0.0020
    143  CD1      -66.0660   22.4490  -21.8900 C.3   123  ILE123      0.0001
    144  N        -63.5410   26.6310  -18.5910 N.am  124  VAL124     -0.1966
    145  CA       -62.9040   26.9500  -17.3190 C.3   124  VAL124      0.1727
    146  C        -63.8460   26.5230  -16.2030 C.2   124  VAL124      0.2616
    147  O        -65.0330   26.8700  -16.2160 O.2   124  VAL124     -0.2715
    148  CB       -62.5700   28.4490  -17.2150 C.3   124  VAL124      0.0290
    149  CG1      -61.8930   28.7540  -15.8850 C.3   124  VAL124      0.0023
    150  CG2      -61.6780   28.8670  -18.3740 C.3   124  VAL124      0.0023
    151  N        -63.3160   25.7690  -15.2430 N.am  125  HIS125     -0.1959
    152  CA       -64.1400   25.2320  -14.1680 C.3   125  HIS125      0.1787
    153  C        -64.6890   26.3510  -13.2890 C.2   125  HIS125      0.2620
    154  O        -65.9040   26.4790  -13.1030 O.2   125  HIS125     -0.2715
    155  CB       -63.2950   24.2530  -13.3510 C.3   125  HIS125      0.0785
    156  CG       -64.0930   23.3030  -12.5170 C.ar  125  HIS125      0.0821
    157  ND1      -64.9840   23.7190  -11.5530 N.ar  125  HIS125     -0.2267
    158  CD2      -64.1190   21.9510  -12.4930 C.ar  125  HIS125      0.1154
    159  CE1      -65.5350   22.6650  -10.9790 C.ar  125  HIS125      0.1986
    160  NE2      -65.0270   21.5790  -11.5320 N.ar  125  HIS125     -0.2212
    161  N        -63.7870   27.1600  -12.7330 N.am  126  ARG126     -0.1977
    162  CA       -64.0360   28.3140  -11.8700 C.3   126  ARG126      0.1597
    163  C        -64.4420   27.9300  -10.4510 C.2   126  ARG126      0.2287
    164  O        -64.3200   28.7490   -9.5360 O.2   126  ARG126     -0.2864
    165  CB       -65.1490   29.2070  -12.4330 C.3   126  ARG126      0.0334
    166  CG       -65.0860   29.5330  -13.9200 C.3   126  ARG126      0.0492
    167  CD       -66.4580   29.9960  -14.4140 C.3   126  ARG126      0.2205
    168  NE       -67.0230   31.0150  -13.5280 N.pl3 126  ARG126     -0.0865
    169  CZ       -67.1460   32.3100  -13.8140 C.cat 126  ARG126      0.5346
    170  NH1      -66.7680   32.7910  -14.9910 N.pl3 126  ARG126      0.1354
    171  NH2      -67.6650   33.1350  -12.9140 N.pl3 126  ARG126      0.1354
    172  N        -62.8620   15.1120  -12.7400 N.3   148  ILE148     -0.1231
    173  CA       -63.3500   16.4780  -12.5950 C.3   148  ILE148      0.1692
    174  C        -64.8660   16.5010  -12.7520 C.2   148  ILE148      0.2593
    175  O        -65.4300   15.8760  -13.6610 O.2   148  ILE148     -0.2718
    176  CB       -62.6930   17.4000  -13.6360 C.3   148  ILE148      0.0266
    177  CG1      -61.1770   17.4310  -13.4610 C.3   148  ILE148      0.0019
    178  CG2      -63.2750   18.8040  -13.5520 C.3   148  ILE148      0.0020
    179  CD1      -60.7070   18.0430  -12.1630 C.3   148  ILE148      0.0001
    180  N        -65.5280   17.2500  -11.8760 N.am  149  SER149     -0.1938
    181  CA       -66.9700   17.4360  -11.9320 C.3   149  SER149      0.2055
    182  C        -67.3030   18.8480  -11.4740 C.2   149  SER149      0.2643
    183  O        -66.5530   19.4560  -10.7060 O.2   149  SER149     -0.2714
    184  CB       -67.6920   16.4200  -11.0520 C.3   149  SER149      0.2130
    185  OG       -69.0820   16.6600  -11.0450 O.3   149  SER149     -0.2179
    186  N        -68.4410   19.3640  -11.9420 N.am  150  ASP150     -0.1971
    187  CA       -68.8630   20.6890  -11.5050 C.3   150  ASP150      0.1709
    188  C        -69.5070   20.6650  -10.1270 C.2   150  ASP150      0.2293
    189  O        -69.4970   21.6810   -9.4220 O.2   150  ASP150     -0.2864
    190  CB       -69.8390   21.3000  -12.4990 C.3   150  ASP150      0.1436
    191  CG       -70.4830   22.5600  -11.9590 C.2   150  ASP150      0.3671
    192  OD1      -69.7580   23.5630  -11.7710 O.co2 150  ASP150     -0.2456
    193  OD2      -71.7050   22.5360  -11.6920 O.co2 150  ASP150     -0.2456
@<TRIPOS>BOND
     1    80    79    2
     2    79    78    1
     3    73    72    2
     4    77    78    1
     5    72    71    1
     6    78    81    1
     7    75    74    1
     8   111   110    1
     9   109   110   ar
    10   109   107   ar
    11    71    74    1
    12    71    70    1
    13    64    63    2
    14    74    76    1
    15    81    82    1
    16    61    62    1
    17    63    70   am
    18    63    62    1
    19   110   108   ar
    20   107   105   ar
    21    62    65    1
    22    82    83    1
    23    82    84    1
    24   143   141    1
    25    59    58    2
    26   136   137    1
    27   141   140    1
    28   131   130    2
    29   108   106   ar
    30    58    57    1
    31   103   102    2
    32   105   106   ar
    33   105   104    1
    34    65    66    1
    35   130   129    1
    36    48    47    2
    37   137   140    1
    38   137   138    1
    39   140   142    1
    40    66    67    1
    41   104   101    1
    42   102   101    1
    43    45    46    1
    44   128   129    1
    45   129   132    1
    46    47    46    1
    47    47    56   am
    48    57    56    1
    49    57    60    1
    50    46    49    1
    51   101   100    1
    52   138   139    2
    53   138   144   am
    54    67    69   ar
    55    67    68   ar
    56   135   133    1
    57    51    53   ar
    58    51    50   ar
    59   132   133    1
    60    53    55   ar
    61   119   117    1
    62   144   145    1
    63    49    50    1
    64   117   116    1
    65   150   148    1
    66    42    41    2
    67   133   134    1
    68    91    89    1
    69    50    52   ar
    70    89    90    1
    71    89    86    1
    72   118   116    1
    73    41    40    1
    74   116   113    1
    75    55    54   ar
    76    95    94    2
    77   113   112    1
    78   113   114    1
    79   145   148    1
    80   145   146    1
    81    88    87    2
    82   148   149    1
    83    52    54   ar
    84    85    86    1
    85    86    87    1
    86    94    93    1
    87    87    92   am
    88    37    35    1
    89   114   115    2
    90    40    39    1
    91    40    43    1
    92    36    35    1
    93    36    38    1
    94   147   146    2
    95   146   151   am
    96    35    32    1
    97   126   124    1
    98    92    93    1
    99    44    43    1
   100   120   121    1
   101    93    96    1
   102   121   124    1
   103   121   122    1
   104   151   152    1
   105    34    33    2
   106    30    29    1
   107   170   169    1
   108    98    96    1
   109    32    33    1
   110    32    31    1
   111    29    28    1
   112   124   125    1
   113   122   123    2
   114   167   166    1
   115   167   168    1
   116    96    97    1
   117   152   155    1
   118   152   153    1
   119    25    24    2
   120   166   165    1
   121   169   168    2
   122   169   171    1
   123   175   174    2
   124   176   178    1
   125   176   177    1
   126   176   173    1
   127    97    99    1
   128   177   179    1
   129   125   127    1
   130   155   156    1
   131   153   154    2
   132   153   161   am
   133    26    27    1
   134    26    23    1
   135    28    27    1
   136    24    23    1
   137    22    23    1
   138   174   173    1
   139   174   180   am
   140   172   173    1
   141   161   162    1
   142    13    12   ar
   143   156   158   ar
   144   156   157   ar
   145   190   191    1
   146   190   187    1
   147   158   160   ar
   148   165   162    1
   149    11    12    1
   150    11    10    1
   151    12    14   ar
   152   191   192   ar
   153   191   193   ar
   154   186   187    1
   155   186   182   am
   156   181   180    1
   157   181   182    1
   158   181   184    1
   159    20    19    1
   160    10     7    1
   161   162   163    1
   162   157   159   ar
   163   160   159   ar
   164   187   188    1
   165   182   183    2
   166    21    19    1
   167   184   185    1
   168     9     8    2
   169     4     3    2
   170    19    16    1
   171   163   164    2
   172     7     8    1
   173     7     6    1
   174   188   189    2
   175     5     2    1
   176     3     6   am
   177     3     2    1
   178    16    15    1
   179    16    17    1
   180     2     1    1
   181    17    18    2
