@<TRIPOS>MOLECULE
tmp/4yzaA09.pdb
 79 73 0 0 0
SMALL
GASTEIGER

@<TRIPOS>ATOM
      1  N        -14.3270  -33.4900   12.9740 N.3    42  GLN42      -0.1245
      2  CA       -13.0720  -33.6540   13.7080 C.3    42  GLN42       0.1566
      3  C        -11.8540  -33.9570   12.8570 C.2    42  GLN42       0.2260
      4  O        -10.7750  -34.2240   13.3870 O.2    42  GLN42      -0.2867
      5  CB       -13.2840  -34.6650   14.8930 C.3    42  GLN42       0.0367
      6  CG       -14.1720  -34.0440   15.9360 C.3    42  GLN42       0.0905
      7  CD       -13.4840  -32.8740   16.6210 C.2    42  GLN42       0.2608
      8  OE1      -12.4390  -33.0210   17.2070 O.2    42  GLN42      -0.2717
      9  NE2      -14.0230  -31.6360   16.4800 N.am   42  GLN42      -0.0878
     10  N         -8.5660  -33.4530   10.9790 N.3    44  GLU44      -0.1245
     11  CA        -7.4470  -32.5500   11.2840 C.3    44  GLU44       0.1567
     12  C         -6.8780  -31.8070   10.0940 C.2    44  GLU44       0.2260
     13  O         -5.8960  -31.0380   10.2640 O.2    44  GLU44      -0.2867
     14  CB        -6.2820  -33.2960   11.9940 C.3    44  GLU44       0.0388
     15  CG        -6.6250  -33.8970   13.3300 C.3    44  GLU44       0.1160
     16  CD        -6.8470  -32.9150   14.4890 C.2    44  GLU44       0.3649
     17  OE1       -7.0960  -33.4030   15.6020 O.co2  44  GLU44      -0.2457
     18  OE2       -6.8460  -31.6840   14.3630 O.co2  44  GLU44      -0.2457
     19  N        -13.3940  -28.0020   13.9730 N.3    89  GLU89      -0.1231
     20  CA       -12.5040  -28.9750   14.6200 C.3    89  GLU89       0.1699
     21  C        -12.1090  -28.4370   16.0180 C.2    89  GLU89       0.2592
     22  O        -12.1650  -29.1700   17.0020 O.2    89  GLU89      -0.2718
     23  CB       -11.3150  -29.2850   13.7680 C.3    89  GLU89       0.0402
     24  CG       -10.6410  -30.5980   14.1520 C.3    89  GLU89       0.1161
     25  CD        -9.6750  -30.5500   15.3220 C.2    89  GLU89       0.3649
     26  OE1       -9.6730  -31.4570   16.1280 O.co2  89  GLU89      -0.2457
     27  OE2       -8.8350  -29.5710   15.3430 O.co2  89  GLU89      -0.2457
     28  N        -11.7310  -27.1470   16.0300 N.am   90  ASP90      -0.1974
     29  CA       -11.5470  -26.3570   17.2320 C.3    90  ASP90       0.1709
     30  C        -11.8290  -24.9010   16.8250 C.2    90  ASP90       0.2293
     31  O        -12.0220  -24.6320   15.6500 O.2    90  ASP90      -0.2864
     32  CB       -10.1930  -26.5660   17.8950 C.3    90  ASP90       0.1436
     33  CG        -9.0240  -26.6400   16.9440 C.2    90  ASP90       0.3671
     34  OD1       -9.0450  -26.1020   15.8000 O.co2  90  ASP90      -0.2456
     35  OD2       -8.0090  -27.3610   17.2470 O.co2  90  ASP90      -0.2456
     36  N        -15.1680  -31.2650   20.4340 N.3   112  ASP112     -0.1225
     37  CA       -13.9350  -31.5790   21.2230 C.3   112  ASP112      0.1805
     38  C        -13.5060  -30.2820   21.8450 C.2   112  ASP112      0.2597
     39  O        -14.2390  -29.7380   22.6970 O.2   112  ASP112     -0.2718
     40  CB       -12.9230  -32.3300   20.3450 C.3   112  ASP112      0.1424
     41  CG       -11.6770  -32.8560   21.0840 C.2   112  ASP112      0.3668
     42  OD1      -11.7430  -32.9340   22.3060 O.co2 112  ASP112     -0.2456
     43  OD2      -10.6280  -33.1020   20.3260 O.co2 112  ASP112     -0.2456
     44  N        -12.3190  -29.7540   21.5550 N.am  113  ALA113     -0.1979
     45  CA       -11.8520  -28.5360   22.2270 C.3   113  ALA113      0.1597
     46  C        -12.3410  -27.2640   21.5630 C.2   113  ALA113      0.2287
     47  O        -12.5180  -27.2040   20.3520 O.2   113  ALA113     -0.2864
     48  CB       -10.3280  -28.5300   22.2040 C.3   113  ALA113      0.0319
     49  N         -7.4390  -26.9870   25.7340 N.3   138  ARG138     -0.1245
     50  CA        -6.5910  -28.1580   25.7160 C.3   138  ARG138      0.1563
     51  C         -5.1900  -27.7090   25.3450 C.2   138  ARG138      0.2260
     52  O         -4.9460  -27.2680   24.2020 O.2   138  ARG138     -0.2867
     53  CB        -7.0940  -29.1950   24.7340 C.3   138  ARG138      0.0307
     54  CG        -6.2410  -30.4640   24.6160 C.3   138  ARG138      0.0489
     55  CD        -6.1070  -31.2320   25.9350 C.3   138  ARG138      0.2205
     56  NE        -5.6240  -32.5970   25.8240 N.pl3 138  ARG138     -0.0865
     57  CZ        -4.5480  -33.0450   26.4750 C.cat 138  ARG138      0.5346
     58  NH1       -3.6570  -32.2760   27.0240 N.pl3 138  ARG138      0.1354
     59  NH2       -4.3200  -34.3760   26.4890 N.pl3 138  ARG138      0.1354
     60  N         -1.8210  -28.8660   23.9030 N.3   140  ASN140     -0.1225
     61  CA        -1.6160  -30.0070   23.0400 C.3   140  ASN140      0.1785
     62  C         -1.1270  -31.2220   23.8410 C.2   140  ASN140      0.2598
     63  O         -0.2290  -31.1420   24.6780 O.2   140  ASN140     -0.2718
     64  CB        -0.5700  -29.6530   21.9870 C.3   140  ASN140      0.1169
     65  CG        -0.5630  -30.5710   20.7700 C.2   140  ASN140      0.2627
     66  OD1       -1.4390  -31.4140   20.5640 O.2   140  ASN140     -0.2716
     67  ND2        0.4820  -30.4310   20.0130 N.am  140  ASN140     -0.0877
     68  N         -1.7150  -32.3720   23.6000 N.am  141  GLY141     -0.1942
     69  CA        -1.4680  -33.5830   24.3170 C.3   141  GLY141      0.2014
     70  C         -0.0150  -33.9410   24.3890 C.2   141  GLY141      0.2638
     71  O          0.7410  -33.8840   23.4080 O.2   141  GLY141     -0.2714
     72  N          0.3750  -34.3520   25.6100 N.am  142  ASN142     -0.1972
     73  CA         1.7320  -34.8820   25.8370 C.3   142  ASN142      0.1688
     74  C          2.8050  -33.8670   25.6780 C.2   142  ASN142      0.2292
     75  O          3.9810  -34.2270   25.6410 O.2   142  ASN142     -0.2864
     76  CB         1.9940  -36.1490   25.0300 C.3   142  ASN142      0.1181
     77  CG         0.9780  -37.2460   25.3120 C.2   142  ASN142      0.2629
     78  OD1        0.5100  -37.4450   26.4570 O.2   142  ASN142     -0.2716
     79  ND2        0.5440  -37.8840   24.2650 N.am  142  ASN142     -0.0877
@<TRIPOS>BOND
     1    12    13    2
     2    12    11    1
     3    10    11    1
     4    11    14    1
     5    14    15    1
     6     3     4    2
     7     3     2    1
     8     1     2    1
     9    15    16    1
    10     2     5    1
    11    23    24    1
    12    23    20    1
    13    19    20    1
    14    24    25    1
    15    18    16   ar
    16    16    17   ar
    17    20    21    1
    18     5     6    1
    19    25    27   ar
    20    25    26   ar
    21    31    30    2
    22    34    33   ar
    23     6     7    1
    24    21    28   am
    25    21    22    2
    26    28    29    1
    27     9     7   am
    28     7     8    2
    29    30    29    1
    30    33    35   ar
    31    33    32    1
    32    29    32    1
    33    67    65   am
    34    43    41   ar
    35    40    41    1
    36    40    37    1
    37    47    46    2
    38    36    37    1
    39    66    65    2
    40    65    64    1
    41    41    42   ar
    42    37    38    1
    43    44    38   am
    44    44    45    1
    45    46    45    1
    46    38    39    2
    47    64    61    1
    48    48    45    1
    49    61    62    1
    50    61    60    1
    51    71    70    2
    52    68    62   am
    53    68    69    1
    54    62    63    2
    55    52    51    2
    56    79    77   am
    57    69    70    1
    58    70    72   am
    59    54    53    1
    60    54    55    1
    61    53    50    1
    62    76    77    1
    63    76    73    1
    64    77    78    2
    65    51    50    1
    66    72    73    1
    67    75    74    2
    68    74    73    1
    69    50    49    1
    70    56    55    1
    71    56    57    2
    72    57    59    1
    73    57    58    1
