@<TRIPOS>MOLECULE
tmp/4yzbB00.pdb
 198 184 0 0 0
SMALL
GASTEIGER

@<TRIPOS>ATOM
      1  N        -35.2980  -47.7790  -51.4630 N.3    27  LEU27      -0.1231
      2  CA       -36.0000  -47.4260  -50.2160 C.3    27  LEU27       0.1693
      3  C        -36.4360  -45.9770  -50.2410 C.2    27  LEU27       0.2593
      4  O        -37.4540  -45.6100  -49.6750 O.2    27  LEU27      -0.2718
      5  CB       -35.0710  -47.6180  -49.0220 C.3    27  LEU27       0.0284
      6  CG       -34.7560  -49.0620  -48.6010 C.3    27  LEU27       0.0019
      7  CD1      -33.2540  -49.2840  -48.6460 C.3    27  LEU27       0.0001
      8  CD2      -35.3450  -49.3860  -47.2260 C.3    27  LEU27       0.0001
      9  N        -35.6050  -45.1530  -50.8560 N.am   28  GLY28      -0.1942
     10  CA       -35.9070  -43.7590  -51.0540 C.3    28  GLY28       0.2014
     11  C        -34.8930  -43.1480  -51.9890 C.2    28  GLY28       0.2638
     12  O        -33.8210  -43.7190  -52.2580 O.2    28  GLY28      -0.2714
     13  N        -35.2490  -41.9740  -52.4800 N.am   29  LYS29      -0.1977
     14  CA       -34.4700  -41.2780  -53.4830 C.3    29  LYS29       0.1596
     15  C        -34.3180  -39.8360  -52.9920 C.2    29  LYS29       0.2287
     16  O        -35.2640  -39.2400  -52.4650 O.2    29  LYS29      -0.2864
     17  CB       -35.1670  -41.4120  -54.8490 C.3    29  LYS29       0.0298
     18  CG       -34.6530  -40.5210  -55.9770 C.3    29  LYS29       0.0038
     19  CD       -35.4240  -39.2020  -56.1150 C.3    29  LYS29       0.0206
     20  CE       -35.0170  -38.4500  -57.3810 C.3    29  LYS29       0.1093
     21  NZ       -35.5120  -39.0980  -58.6390 N.3    29  LYS29      -0.1314
     22  N        -29.2210  -36.0480  -53.7370 N.3    32  PHE32      -0.1241
     23  CA       -27.8870  -36.6700  -53.6950 C.3    32  PHE32       0.1605
     24  C        -27.6710  -37.9010  -54.5860 C.2    32  PHE32       0.2264
     25  O        -26.6130  -38.0610  -55.1900 O.2    32  PHE32      -0.2867
     26  CB       -27.6030  -37.0930  -52.2470 C.3    32  PHE32       0.0534
     27  CG       -28.6880  -37.9530  -51.6220 C.ar   32  PHE32      -0.0203
     28  CD1      -29.6730  -37.3780  -50.8150 C.ar   32  PHE32      -0.0042
     29  CD2      -28.7160  -39.3400  -51.8190 C.ar   32  PHE32      -0.0042
     30  CE1      -30.6600  -38.1620  -50.2210 C.ar   32  PHE32      -0.0003
     31  CE2      -29.7060  -40.1220  -51.2450 C.ar   32  PHE32      -0.0003
     32  CZ       -30.6820  -39.5370  -50.4460 C.ar   32  PHE32      -0.0000
     33  N        -31.1300  -44.2880  -51.7220 N.3    35  VAL35      -0.1245
     34  CA       -30.8820  -45.2930  -50.6920 C.3    35  VAL35       0.1561
     35  C        -31.4420  -46.6530  -51.1340 C.2    35  VAL35       0.2260
     36  O        -32.6300  -46.8050  -51.3970 O.2    35  VAL35      -0.2867
     37  CB       -31.4620  -44.8880  -49.3290 C.3    35  VAL35       0.0252
     38  CG1      -31.0280  -45.8560  -48.2450 C.3    35  VAL35       0.0019
     39  CG2      -30.9670  -43.5170  -48.9490 C.3    35  VAL35       0.0019
     40  N        -28.6990  -51.2620  -45.8810 N.3    48  ALA48      -0.1245
     41  CA       -29.2390  -50.1230  -46.6160 C.3    48  ALA48       0.1562
     42  C        -28.0670  -49.2680  -46.9930 C.2    48  ALA48       0.2260
     43  O        -27.2960  -48.8530  -46.1280 O.2    48  ALA48      -0.2867
     44  CB       -30.2080  -49.3220  -45.7400 C.3    48  ALA48       0.0290
     45  N        -26.6820  -45.8090  -48.6580 N.3    50  LYS50      -0.1245
     46  CA       -26.9010  -44.4800  -49.2250 C.3    50  LYS50       0.1561
     47  C        -25.8260  -44.2490  -50.2740 C.2    50  LYS50       0.2260
     48  O        -24.6350  -44.2960  -49.9910 O.2    50  LYS50      -0.2867
     49  CB       -26.8420  -43.4240  -48.1670 C.3    50  LYS50       0.0271
     50  CG       -26.7320  -42.0300  -48.7340 C.3    50  LYS50       0.0035
     51  CD       -27.3400  -40.9990  -47.7990 C.3    50  LYS50       0.0206
     52  CE       -26.9020  -39.6120  -48.2000 C.3    50  LYS50       0.1093
     53  NZ       -27.8110  -38.6100  -47.5950 N.3    50  LYS50      -0.1314
     54  N        -19.1740  -34.2800  -46.4370 N.3    63  LEU63      -0.1245
     55  CA       -19.6280  -35.6190  -46.1370 C.3    63  LEU63       0.1561
     56  C        -18.7070  -36.2740  -45.1210 C.2    63  LEU63       0.2260
     57  O        -19.1720  -36.7370  -44.0830 O.2    63  LEU63      -0.2867
     58  CB       -19.6230  -36.4530  -47.4160 C.3    63  LEU63       0.0270
     59  CG       -20.1390  -37.8860  -47.3280 C.3    63  LEU63       0.0019
     60  CD1      -21.6450  -37.9250  -47.0270 C.3    63  LEU63       0.0001
     61  CD2      -19.8110  -38.6000  -48.6250 C.3    63  LEU63       0.0001
     62  N        -20.0130  -35.7360  -41.8490 N.3    66  GLU66      -0.1182
     63  CA       -21.2420  -36.4570  -41.4430 C.3    66  GLU66       0.1915
     64  C        -20.8640  -37.8980  -41.0410 C.2    66  GLU66       0.2634
     65  O        -21.4480  -38.4550  -40.1100 O.2    66  GLU66      -0.2714
     66  CB       -22.3290  -36.4860  -42.5630 C.2    66  GLU66       0.0085
     67  CG       -23.7580  -36.9120  -42.0950 C.2    66  GLU66       0.0835
     68  CD       -24.8020  -37.3460  -43.2020 C.2    66  GLU66       0.3877
     69  OE1      -25.6770  -38.2140  -42.8960 O.co2  66  GLU66      -0.2406
     70  OE2      -24.7810  -36.8450  -44.3650 O.co2  66  GLU66      -0.2406
     71  N        -19.8970  -38.4930  -41.7480 N.am   67  VAL67      -0.1977
     72  CA       -19.4660  -39.8500  -41.4680 C.3    67  VAL67       0.1596
     73  C        -18.7520  -39.9000  -40.1210 C.2    67  VAL67       0.2287
     74  O        -19.0280  -40.7770  -39.2860 O.2    67  VAL67      -0.2864
     75  CB       -18.5310  -40.4090  -42.5620 C.3    67  VAL67       0.0276
     76  CG1      -17.8430  -41.6990  -42.0850 C.3    67  VAL67       0.0022
     77  CG2      -19.2880  -40.6620  -43.8610 C.3    67  VAL67       0.0022
     78  N        -20.9790  -39.7640  -37.2360 N.3    70  LEU70      -0.1245
     79  CA       -21.7330  -40.9830  -37.0430 C.3    70  LEU70       0.1561
     80  C        -20.9010  -42.1030  -36.4520 C.2    70  LEU70       0.2260
     81  O        -21.4410  -42.9280  -35.6940 O.2    70  LEU70      -0.2867
     82  CB       -22.3360  -41.4710  -38.3430 C.3    70  LEU70       0.0270
     83  CG       -23.6980  -40.8700  -38.6340 C.3    70  LEU70       0.0019
     84  CD1      -24.1420  -41.3590  -39.9930 C.3    70  LEU70       0.0001
     85  CD2      -24.7470  -41.2330  -37.6000 C.3    70  LEU70       0.0001
     86  N        -28.7970  -44.2500  -35.5600 N.3    79  MET79      -0.1245
     87  CA       -28.4170  -44.9970  -36.7090 C.3    79  MET79       0.1570
     88  C        -27.0350  -45.5830  -36.5500 C.2    79  MET79       0.2261
     89  O        -26.1250  -44.9110  -36.1410 O.2    79  MET79      -0.2867
     90  CB       -28.3810  -44.0330  -37.8680 C.3    79  MET79       0.0387
     91  CG       -28.8590  -44.6040  -39.1400 C.3    79  MET79       0.0595
     92  SD       -28.1360  -43.6100  -40.4560 S.3    79  MET79      -0.1393
     93  CE       -27.9510  -41.9830  -39.7840 C.3    79  MET79       0.0692
     94  N        -23.7920  -47.2420  -38.5150 N.3    81  LEU81      -0.1245
     95  CA       -23.0590  -47.2070  -39.7820 C.3    81  LEU81       0.1561
     96  C        -22.0950  -48.3660  -39.8120 C.2    81  LEU81       0.2260
     97  O        -21.3580  -48.5190  -38.8490 O.2    81  LEU81      -0.2867
     98  CB       -22.2620  -45.8930  -39.8520 C.3    81  LEU81       0.0270
     99  CG       -21.3870  -45.5760  -41.0810 C.3    81  LEU81       0.0019
    100  CD1      -22.1700  -45.4370  -42.3920 C.3    81  LEU81       0.0001
    101  CD2      -20.6300  -44.2770  -40.8240 C.3    81  LEU81       0.0001
    102  N        -22.5270  -45.5710  -48.5230 N.3    93  LEU93      -0.1245
    103  CA       -22.4780  -45.5240  -47.0970 C.3    93  LEU93       0.1561
    104  C        -23.3310  -46.6320  -46.6410 C.2    93  LEU93       0.2260
    105  O        -24.5280  -46.4510  -46.5070 O.2    93  LEU93      -0.2867
    106  CB       -23.0610  -44.2130  -46.5680 C.3    93  LEU93       0.0270
    107  CG       -22.1000  -43.0300  -46.4520 C.3    93  LEU93       0.0019
    108  CD1      -20.8770  -43.4220  -45.6440 C.3    93  LEU93       0.0001
    109  CD2      -21.6730  -42.5320  -47.8290 C.3    93  LEU93       0.0001
    110  N        -25.1790  -49.2470  -44.2590 N.3    95  THR95      -0.1203
    111  CA       -25.6100  -49.1710  -42.8800 C.3    95  THR95       0.1994
    112  C        -26.6130  -50.1850  -42.5350 C.2    95  THR95       0.2618
    113  O        -27.0860  -50.9150  -43.3910 O.2    95  THR95      -0.2717
    114  CB       -26.2200  -47.8170  -42.5480 C.3    95  THR95       0.1784
    115  OG1      -27.6180  -47.8110  -42.8490 O.3    95  THR95      -0.2211
    116  CG2      -25.5940  -46.7030  -43.3680 C.3    95  THR95       0.0376
    117  N        -26.9130  -50.3000  -41.2570 N.am   96  GLU96      -0.1965
    118  CA       -27.9070  -51.2470  -40.7960 C.3    96  GLU96       0.1733
    119  C        -29.1620  -50.7740  -41.4580 C.2    96  GLU96       0.2616
    120  O        -29.1910  -49.6770  -41.9210 O.2    96  GLU96      -0.2715
    121  CB       -28.0000  -51.1860  -39.2750 C.3    96  GLU96       0.0429
    122  CG       -29.0910  -52.0250  -38.6400 C.3    96  GLU96       0.1163
    123  CD       -28.9490  -52.0960  -37.1200 C.2    96  GLU96       0.3649
    124  OE1      -28.0170  -51.4840  -36.5460 O.co2  96  GLU96      -0.2457
    125  OE2      -29.7930  -52.7390  -36.4880 O.co2  96  GLU96      -0.2457
    126  N        -30.1570  -51.6220  -41.5370 N.am   97  VAL97      -0.1963
    127  CA       -31.3670  -51.3030  -42.2320 C.3    97  VAL97       0.1727
    128  C        -32.5140  -51.5120  -41.2700 C.2    97  VAL97       0.2616
    129  O        -32.5520  -52.4920  -40.5360 O.2    97  VAL97      -0.2715
    130  CB       -31.5770  -52.2140  -43.4510 C.3    97  VAL97       0.0290
    131  CG1      -31.2460  -53.6340  -43.0900 C.3    97  VAL97       0.0023
    132  CG2      -33.0160  -52.1320  -43.9930 C.3    97  VAL97       0.0023
    133  N        -33.4340  -50.5740  -41.2770 N.am   98  TYR98      -0.1974
    134  CA       -34.5900  -50.6500  -40.4510 C.3    98  TYR98       0.1639
    135  C        -35.7140  -50.8050  -41.4370 C.2    98  TYR98       0.2290
    136  O        -35.8710  -50.0200  -42.3660 O.2    98  TYR98      -0.2864
    137  CB       -34.6860  -49.3940  -39.6240 C.3    98  TYR98       0.0560
    138  CG       -33.3690  -49.1260  -38.9550 C.ar   98  TYR98      -0.0198
    139  CD1      -33.0530  -49.6770  -37.7070 C.ar   98  TYR98      -0.0009
    140  CD2      -32.4130  -48.3900  -39.5840 C.ar   98  TYR98      -0.0009
    141  CE1      -31.8570  -49.4280  -37.1030 C.ar   98  TYR98       0.0417
    142  CE2      -31.2010  -48.1470  -38.9740 C.ar   98  TYR98       0.0417
    143  CZ       -30.9510  -48.6880  -37.7450 C.ar   98  TYR98       0.1957
    144  OH       -29.7840  -48.4880  -37.1240 O.3    98  TYR98      -0.2866
    145  N        -40.0000  -48.7290  -41.5640 N.3   101  GLY101     -0.1210
    146  CA       -40.3890  -47.5210  -42.2550 C.3   101  GLY101      0.1956
    147  C        -40.4060  -46.3100  -41.3540 C.2   101  GLY101      0.2614
    148  O        -40.0460  -46.3990  -40.1660 O.2   101  GLY101     -0.2717
    149  N        -40.8410  -45.1850  -41.9330 N.am  102  GLU102     -0.1933
    150  CA       -40.8230  -43.8940  -41.2630 C.3   102  GLU102      0.1818
    151  C        -41.9580  -43.8010  -40.2570 C.2   102  GLU102      0.2332
    152  O        -43.0670  -44.2510  -40.4990 O.2   102  GLU102     -0.2860
    153  CB       -40.9600  -42.7230  -42.2930 C.2   102  GLU102      0.0097
    154  CG       -39.8430  -42.5980  -43.3640 C.2   102  GLU102      0.0837
    155  CD       -40.0140  -41.4340  -44.3510 C.2   102  GLU102      0.3877
    156  OE1      -41.0180  -40.6760  -44.2690 O.co2 102  GLU102     -0.2406
    157  OE2      -39.1070  -41.2760  -45.2020 O.co2 102  GLU102     -0.2406
    158  N        -40.1610  -38.0500  -40.3700 N.3   145  GLU145     -0.1231
    159  CA       -39.5690  -38.5160  -41.6280 C.3   145  GLU145      0.1699
    160  C        -38.1900  -39.0580  -41.3500 C.2   145  GLU145      0.2592
    161  O        -37.7270  -39.9460  -42.0680 O.2   145  GLU145     -0.2718
    162  CB       -39.4910  -37.3960  -42.6740 C.3   145  GLU145      0.0402
    163  CG       -40.8340  -36.9170  -43.2190 C.3   145  GLU145      0.1161
    164  CD       -41.6380  -35.9730  -42.2920 C.2   145  GLU145      0.3649
    165  OE1      -41.4930  -36.0840  -41.0320 O.co2 145  GLU145     -0.2457
    166  OE2      -42.4470  -35.1350  -42.8180 O.co2 145  GLU145     -0.2457
    167  N        -37.5530  -38.5490  -40.2880 N.am  146  ASN146     -0.1974
    168  CA       -36.1860  -38.9430  -39.9250 C.3   146  ASN146      0.1688
    169  C        -36.1080  -39.8270  -38.6830 C.2   146  ASN146      0.2292
    170  O        -35.0700  -39.9170  -38.0070 O.2   146  ASN146     -0.2864
    171  CB       -35.3340  -37.7040  -39.7730 C.3   146  ASN146      0.1181
    172  CG       -34.7380  -37.2620  -41.0940 C.2   146  ASN146      0.2629
    173  OD1      -34.4650  -38.0900  -41.9770 O.2   146  ASN146     -0.2716
    174  ND2      -34.5280  -35.9280  -41.2480 N.am  146  ASN146     -0.0877
    175  N        -36.9970  -43.8650  -37.9180 N.3   148  LEU148     -0.1245
    176  CA       -37.3600  -45.1550  -38.4590 C.3   148  LEU148      0.1561
    177  C        -37.6490  -46.1580  -37.3730 C.2   148  LEU148      0.2260
    178  O        -37.0030  -46.1720  -36.3290 O.2   148  LEU148     -0.2867
    179  CB       -36.2220  -45.6420  -39.3190 C.3   148  LEU148      0.0270
    180  CG       -35.7920  -44.5810  -40.3380 C.3   148  LEU148      0.0019
    181  CD1      -34.7320  -45.1420  -41.2850 C.3   148  LEU148      0.0001
    182  CD2      -37.0000  -44.1230  -41.1310 C.3   148  LEU148      0.0001
    183  N        -32.3040  -40.9080  -37.6990 N.3   161  ILE161     -0.1231
    184  CA       -31.4220  -40.9680  -38.8620 C.3   161  ILE161      0.1692
    185  C        -31.0330  -39.5930  -39.4010 C.2   161  ILE161      0.2592
    186  O        -31.4760  -38.5840  -38.8720 O.2   161  ILE161     -0.2718
    187  CB       -32.0730  -41.7590  -39.9840 C.3   161  ILE161      0.0266
    188  CG1      -33.4500  -41.2070  -40.2650 C.3   161  ILE161      0.0019
    189  CG2      -32.2600  -43.1770  -39.5650 C.3   161  ILE161      0.0020
    190  CD1      -34.0080  -41.5950  -41.6030 C.3   161  ILE161      0.0001
    191  N        -30.1990  -39.5910  -40.4430 N.am  162  ASP162     -0.1974
    192  CA       -29.8950  -38.4350  -41.2930 C.3   162  ASP162      0.1709
    193  C        -29.2770  -37.2970  -40.5030 C.2   162  ASP162      0.2293
    194  O        -29.8740  -36.2710  -40.1590 O.2   162  ASP162     -0.2864
    195  CB       -31.1120  -37.9850  -42.1380 C.3   162  ASP162      0.1436
    196  CG       -30.7220  -37.6460  -43.5690 C.2   162  ASP162      0.3671
    197  OD1      -30.0100  -36.6340  -43.7100 O.co2 162  ASP162     -0.2456
    198  OD2      -31.0910  -38.4040  -44.5180 O.co2 162  ASP162     -0.2456
@<TRIPOS>BOND
     1    21    20    1
     2    20    19    1
     3    19    18    1
     4    18    17    1
     5    25    24    2
     6    17    14    1
     7    24    23    1
     8    22    23    1
     9    23    26    1
    10    14    15    1
    11    14    13    1
    12    15    16    2
    13    13    11   am
    14    12    11    2
    15    26    27    1
    16    11    10    1
    17    29    27   ar
    18    29    31   ar
    19    33    34    1
    20    27    28   ar
    21     1     2    1
    22    36    35    2
    23    31    32   ar
    24    35    34    1
    25    10     9    1
    26     9     3   am
    27    28    30   ar
    28    34    37    1
    29    32    30   ar
    30    47    48    2
    31    47    46    1
    32     3     2    1
    33     3     4    2
    34     2     5    1
    35    37    39    1
    36    37    38    1
    37    46    45    1
    38    46    49    1
    39     5     6    1
    40    50    49    1
    41    50    51    1
    42     7     6    1
    43    61    59    1
    44     6     8    1
    45   102   103    1
    46    52    51    1
    47    52    53    1
    48   109   107    1
    49    58    59    1
    50    58    55    1
    51    59    60    1
    52   103   104    1
    53   103   106    1
    54    42    41    1
    55    42    43    2
    56   104   105    2
    57    41    40    1
    58    41    44    1
    59   106   107    1
    60   107   108    1
    61    54    55    1
    62    55    56    1
    63   157   155   ar
    64    56    57    2
    65   198   196   ar
    66    70    68   ar
    67   155   156   ar
    68   155   154    1
    69   110   111    1
    70   132   130    1
    71    77    75    1
    72   197   196   ar
    73   196   195    1
    74   130   131    1
    75   130   127    1
    76   113   112    2
    77   116   114    1
    78   154   153    2
    79   163   162    1
    80   163   164    1
    81    68    69   ar
    82    68    67    1
    83   111   114    1
    84   111   112    1
    85   115   114    1
    86   166   164   ar
    87   162   159    1
    88    66    67    2
    89    66    63    1
    90    75    76    1
    91    75    72    1
    92   112   117   am
    93   100    99    1
    94   136   135    2
    95   153   150    1
    96   164   165   ar
    97   146   145    1
    98   146   147    1
    99   127   126    1
   100   127   128    1
   101   195   192    1
   102   161   160    2
   103   173   172    2
   104   149   147   am
   105   149   150    1
   106   120   119    2
   107    62    63    1
   108    71    72    1
   109    71    64   am
   110   159   160    1
   111   159   158    1
   112   190   188    1
   113   126   119   am
   114    72    73    1
   115   119   118    1
   116    63    64    1
   117   135   134    1
   118   147   148    2
   119   160   167   am
   120   192   193    1
   121   192   191    1
   122   181   180    1
   123   133   128   am
   124   133   134    1
   125   128   129    2
   126   150   151    1
   127   117   118    1
   128   174   172   am
   129   182   180    1
   130   172   171    1
   131    99   101    1
   132    99    98    1
   133    64    65    2
   134   118   121    1
   135   193   194    2
   136   152   151    2
   137    92    93    1
   138    92    91    1
   139   134   137    1
   140   191   185   am
   141   180   179    1
   142   167   168    1
   143   188   187    1
   144    73    74    2
   145    84    83    1
   146   187   189    1
   147   187   184    1
   148   168   171    1
   149   168   169    1
   150    98    95    1
   151    96    95    1
   152    96    97    2
   153    95    94    1
   154   137   138    1
   155   140   142   ar
   156   140   138   ar
   157   185   186    2
   158   185   184    1
   159   179   176    1
   160   121   122    1
   161    91    90    1
   162   142   143   ar
   163   138   139   ar
   164   184   183    1
   165   169   170    2
   166   122   123    1
   167    83    82    1
   168    83    85    1
   169   176   175    1
   170   176   177    1
   171    82    79    1
   172    90    87    1
   173   143   144    1
   174   143   141   ar
   175   139   141   ar
   176   177   178    2
   177    78    79    1
   178   123   124   ar
   179   123   125   ar
   180    79    80    1
   181    87    88    1
   182    87    86    1
   183    88    89    2
   184    80    81    2
