@<TRIPOS>MOLECULE
tmp/4yzcA00.pdb
 168 158 0 0 0
SMALL
GASTEIGER

@<TRIPOS>ATOM
      1  N        -22.9410   36.3370  -58.9230 N.3    16  LEU16      -0.1231
      2  CA       -22.9790   35.3780  -57.8290 C.3    16  LEU16       0.1693
      3  C        -23.0180   36.0810  -56.4790 C.2    16  LEU16       0.2593
      4  O        -23.6480   35.5780  -55.5420 O.2    16  LEU16      -0.2718
      5  CB       -21.7750   34.4370  -57.9240 C.3    16  LEU16       0.0284
      6  CG       -21.6500   33.7010  -59.2600 C.3    16  LEU16       0.0019
      7  CD1      -20.3810   32.8600  -59.3070 C.3    16  LEU16       0.0001
      8  CD2      -22.8720   32.8300  -59.5210 C.3    16  LEU16       0.0001
      9  N        -22.3870   37.2430  -56.3710 N.am   17  GLY17      -0.1942
     10  CA       -22.4120   38.0030  -55.1370 C.3    17  GLY17       0.2014
     11  C        -21.5100   39.2090  -55.2390 C.2    17  GLY17       0.2639
     12  O        -20.7750   39.3930  -56.2150 O.2    17  GLY17      -0.2714
     13  N        -21.5860   40.0440  -54.2060 N.am   18  HIS18      -0.1959
     14  CA       -20.7630   41.2410  -54.0890 C.3    18  HIS18       0.1787
     15  C        -19.7670   41.0670  -52.9520 C.2    18  HIS18       0.2620
     16  O        -20.1360   40.6290  -51.8580 O.2    18  HIS18      -0.2715
     17  CB       -21.6220   42.4820  -53.8380 C.3    18  HIS18       0.0785
     18  CG       -22.5550   42.8100  -54.9600 C.ar   18  HIS18       0.0821
     19  ND1      -22.2670   43.7650  -55.9110 N.ar   18  HIS18      -0.2267
     20  CD2      -23.7730   42.3140  -55.2820 C.ar   18  HIS18       0.1154
     21  CE1      -23.2670   43.8420  -56.7710 C.ar   18  HIS18       0.1986
     22  NE2      -24.1930   42.9720  -56.4120 N.ar   18  HIS18      -0.2212
     23  N        -18.5140   41.4100  -53.2170 N.am   19  GLY19      -0.1954
     24  CA       -17.4710   41.4240  -52.2120 C.3    19  GLY19       0.1869
     25  C        -17.3600   42.7720  -51.5370 C.2    19  GLY19       0.2309
     26  O        -18.3410   43.5110  -51.4010 O.2    19  GLY19      -0.2863
     27  N        -15.5870   44.7860  -55.1610 N.3    23  THR23      -0.1218
     28  CA       -15.4000   43.4660  -55.7450 C.3    23  THR23       0.1862
     29  C        -16.7520   42.8540  -56.0890 C.2    23  THR23       0.2287
     30  O        -17.6550   42.8030  -55.2480 O.2    23  THR23      -0.2866
     31  CB       -14.6420   42.5560  -54.7770 C.3    23  THR23       0.1770
     32  OG1      -13.3510   43.1140  -54.4990 O.3    23  THR23      -0.2211
     33  CG2      -14.4690   41.1540  -55.3670 C.3    23  THR23       0.0375
     34  N        -18.3420   39.2900  -58.2170 N.3    25  VAL25      -0.1245
     35  CA       -18.0680   37.9980  -58.8310 C.3    25  VAL25       0.1561
     36  C        -19.2450   37.6510  -59.7340 C.2    25  VAL25       0.2260
     37  O        -20.4050   37.8010  -59.3360 O.2    25  VAL25      -0.2867
     38  CB       -17.8270   36.9010  -57.7740 C.3    25  VAL25       0.0252
     39  CG1      -18.9600   36.8550  -56.7580 C.3    25  VAL25       0.0019
     40  CG2      -17.6230   35.5430  -58.4380 C.3    25  VAL25       0.0019
     41  N        -16.4340   31.0140  -62.4230 N.3    36  ALA36      -0.1245
     42  CA       -16.7240   32.2590  -61.7310 C.3    36  ALA36       0.1562
     43  C        -15.6570   33.2800  -62.0960 C.2    36  ALA36       0.2260
     44  O        -14.4810   32.9370  -62.2480 O.2    36  ALA36      -0.2867
     45  CB       -16.7590   32.0540  -60.2170 C.3    36  ALA36       0.0290
     46  N        -14.0550   36.8670  -60.9310 N.3    38  LYS38      -0.1245
     47  CA       -13.9130   37.8120  -59.8280 C.3    38  LYS38       0.1561
     48  C        -13.2740   39.0850  -60.3700 C.2    38  LYS38       0.2260
     49  O        -12.1000   39.0840  -60.7520 O.2    38  LYS38      -0.2867
     50  CB       -13.0680   37.2160  -58.7050 C.3    38  LYS38       0.0271
     51  CG       -12.9610   38.1050  -57.4740 C.3    38  LYS38       0.0035
     52  CD       -11.9400   37.5740  -56.4820 C.3    38  LYS38       0.0206
     53  CE       -11.9670   38.3690  -55.1840 C.3    38  LYS38       0.1093
     54  NZ       -11.0180   37.8350  -54.1670 N.3    38  LYS38      -0.1314
     55  N        -10.3420   26.3260  -53.6900 N.3    59  ILE59      -0.1245
     56  CA       -10.9160   26.6810  -54.9830 C.3    59  ILE59       0.1561
     57  C         -9.8260   26.6760  -56.0480 C.2    59  ILE59       0.2260
     58  O         -8.6990   27.1360  -55.8210 O.2    59  ILE59      -0.2867
     59  CB       -11.6210   28.0490  -54.8900 C.3    59  ILE59       0.0252
     60  CG1      -12.9270   28.0400  -55.6760 C.3    59  ILE59       0.0019
     61  CG2      -10.7210   29.1960  -55.3320 C.3    59  ILE59       0.0019
     62  CD1      -14.0460   27.3730  -54.9320 C.3    59  ILE59       0.0001
     63  N        -11.9950   31.5970  -61.8330 N.3    75  ILE75      -0.1231
     64  CA       -11.8680   30.6060  -60.7720 C.3    75  ILE75       0.1692
     65  C        -13.0170   29.6140  -60.9010 C.2    75  ILE75       0.2592
     66  O        -13.9840   29.8360  -61.6340 O.2    75  ILE75      -0.2718
     67  CB       -11.8580   31.2560  -59.3710 C.3    75  ILE75       0.0266
     68  CG1      -12.9990   32.2730  -59.2510 C.3    75  ILE75       0.0019
     69  CG2      -10.5040   31.9030  -59.1170 C.3    75  ILE75       0.0020
     70  CD1      -12.9870   33.1140  -57.9850 C.3    75  ILE75       0.0001
     71  N        -12.8910   28.4990  -60.1830 N.am   76  GLU76      -0.1966
     72  CA       -13.8620   27.4190  -60.2900 C.3    76  GLU76       0.1733
     73  C        -15.2480   27.8900  -59.8680 C.2    76  GLU76       0.2616
     74  O        -15.4140   28.5240  -58.8230 O.2    76  GLU76      -0.2715
     75  CB       -13.4230   26.2340  -59.4320 C.3    76  GLU76       0.0429
     76  CG       -14.3540   25.0350  -59.5150 C.3    76  GLU76       0.1163
     77  CD       -13.8390   23.8420  -58.7360 C.2    76  GLU76       0.3649
     78  OE1      -12.7050   23.9110  -58.2170 O.co2  76  GLU76      -0.2457
     79  OE2      -14.5740   22.8360  -58.6340 O.co2  76  GLU76      -0.2457
     80  N        -16.2410   27.5840  -60.6980 N.am   77  LEU77      -0.1963
     81  CA       -17.6300   27.8680  -60.3720 C.3    77  LEU77       0.1728
     82  C        -18.1740   26.7890  -59.4480 C.2    77  LEU77       0.2616
     83  O        -17.9490   25.5960  -59.6700 O.2    77  LEU77      -0.2715
     84  CB       -18.4760   27.9330  -61.6440 C.3    77  LEU77       0.0311
     85  CG       -19.9850   28.1190  -61.4570 C.3    77  LEU77       0.0022
     86  CD1      -20.2860   29.4700  -60.8360 C.3    77  LEU77       0.0001
     87  CD2      -20.7070   27.9590  -62.7850 C.3    77  LEU77       0.0001
     88  N        -18.8920   27.2090  -58.4110 N.am   78  CYS78      -0.1954
     89  CA       -19.4890   26.2820  -57.4630 C.3    78  CYS78       0.1843
     90  C        -21.0060   26.4040  -57.4950 C.2    78  CYS78       0.2625
     91  O        -21.5740   27.2590  -58.1790 O.2    78  CYS78      -0.2714
     92  CB       -18.9590   26.5430  -56.0480 C.3    78  CYS78       0.0997
     93  SG       -17.1970   26.2100  -55.8740 S.3    78  CYS78      -0.0797
     94  N        -21.6590   25.5250  -56.7320 N.am   79  ALA79      -0.1963
     95  CA       -23.1160   25.4930  -56.6990 C.3    79  ALA79       0.1728
     96  C        -23.6900   26.5380  -55.7520 C.2    79  ALA79       0.2616
     97  O        -24.6780   27.2020  -56.0840 O.2    79  ALA79      -0.2715
     98  CB       -23.5970   24.0980  -56.3000 C.3    79  ALA79       0.0334
     99  N        -23.0960   26.6910  -54.5770 N.am   80  ALA80      -0.1963
    100  CA       -23.7010   27.4650  -53.4960 C.3    80  ALA80       0.1728
    101  C        -22.6380   27.7170  -52.4300 C.2    80  ALA80       0.2616
    102  O        -21.4550   27.4060  -52.6200 O.2    80  ALA80      -0.2715
    103  CB       -24.9220   26.7400  -52.9290 C.3    80  ALA80       0.0334
    104  N        -23.0680   28.2860  -51.3060 N.am   81  THR81      -0.1951
    105  CA       -22.2300   28.5320  -50.1420 C.3    81  THR81       0.1897
    106  C        -22.7050   27.6560  -48.9920 C.2    81  THR81       0.2313
    107  O        -23.8560   27.2160  -48.9540 O.2    81  THR81      -0.2863
    108  CB       -22.2770   30.0040  -49.7060 C.3    81  THR81       0.1794
    109  OG1      -23.5110   30.2720  -49.0310 O.3    81  THR81      -0.2208
    110  CG2      -22.1340   30.9420  -50.8870 C.3    81  THR81       0.0378
    111  N        -26.0440   28.9270  -47.2420 N.3    84  GLU84      -0.1245
    112  CA       -27.3100   28.5350  -47.8470 C.3    84  GLU84       0.1567
    113  C        -27.4910   27.0210  -47.9210 C.2    84  GLU84       0.2260
    114  O        -28.6140   26.5660  -48.1620 O.2    84  GLU84      -0.2867
    115  CB       -27.4380   29.1510  -49.2430 C.3    84  GLU84       0.0388
    116  CG       -26.3010   28.8370  -50.1960 C.3    84  GLU84       0.1160
    117  CD       -26.2640   29.7810  -51.3810 C.2    84  GLU84       0.3649
    118  OE1      -25.2100   29.8650  -52.0440 O.co2  84  GLU84      -0.2457
    119  OE2      -27.2900   30.4430  -51.6510 O.co2  84  GLU84      -0.2457
    120  N        -16.1530   31.7690  -42.4590 N.3   115  LYS115     -0.1245
    121  CA       -17.5570   31.7360  -42.0900 C.3   115  LYS115      0.1561
    122  C        -18.3230   30.8400  -43.0530 C.2   115  LYS115      0.2260
    123  O        -17.7460   30.3390  -44.0250 O.2   115  LYS115     -0.2867
    124  CB       -18.1190   33.1580  -42.1030 C.3   115  LYS115      0.0271
    125  CG       -17.7840   33.9130  -43.3800 C.3   115  LYS115      0.0035
    126  CD       -18.2510   35.3520  -43.3370 C.3   115  LYS115      0.0206
    127  CE       -17.7940   36.0980  -44.5790 C.3   115  LYS115      0.1093
    128  NZ       -18.3160   37.4900  -44.6260 N.3   115  LYS115     -0.1314
    129  N        -20.4940   31.8270  -45.2260 N.3   117  HIS117     -0.1226
    130  CA       -20.6320   32.5100  -46.5070 C.3   117  HIS117      0.1752
    131  C        -19.3670   32.3840  -47.3470 C.2   117  HIS117      0.2596
    132  O        -19.4400   32.4040  -48.5810 O.2   117  HIS117     -0.2718
    133  CB       -20.9770   33.9830  -46.2810 C.3   117  HIS117      0.0759
    134  CG       -21.9530   34.2160  -45.1670 C.ar  117  HIS117      0.0818
    135  ND1      -21.5610   34.3790  -43.8550 N.ar  117  HIS117     -0.2268
    136  CD2      -23.3030   34.3180  -45.1700 C.ar  117  HIS117      0.1154
    137  CE1      -22.6270   34.5700  -43.0980 C.ar  117  HIS117      0.1986
    138  NE2      -23.6970   34.5370  -43.8710 N.ar  117  HIS117     -0.2212
    139  N        -18.2030   32.2480  -46.7050 N.am  118  ASN118     -0.1974
    140  CA       -16.9530   32.0740  -47.4360 C.3   118  ASN118      0.1688
    141  C        -16.7850   30.6570  -47.9690 C.2   118  ASN118      0.2292
    142  O        -16.1350   30.4630  -49.0010 O.2   118  ASN118     -0.2864
    143  CB       -15.7610   32.4180  -46.5400 C.3   118  ASN118      0.1181
    144  CG       -15.3910   33.8900  -46.5810 C.2   118  ASN118      0.2629
    145  OD1      -15.7680   34.6180  -47.4990 O.2   118  ASN118     -0.2716
    146  ND2      -14.6290   34.3300  -45.5820 N.am  118  ASN118     -0.0877
    147  N        -17.6840   27.3170  -49.8460 N.3   120  LEU120     -0.1245
    148  CA       -18.4830   27.0330  -51.0280 C.3   120  LEU120      0.1561
    149  C        -18.6900   25.5330  -51.1960 C.2   120  LEU120      0.2260
    150  O        -17.8150   24.7250  -50.8740 O.2   120  LEU120     -0.2867
    151  CB       -17.8200   27.6040  -52.2860 C.3   120  LEU120      0.0270
    152  CG       -17.6500   29.1240  -52.2940 C.3   120  LEU120      0.0019
    153  CD1      -16.9810   29.5790  -53.5730 C.3   120  LEU120      0.0001
    154  CD2      -18.9890   29.8220  -52.1230 C.3   120  LEU120      0.0001
    155  N        -12.5400   29.6540  -50.2710 N.3   135  SER135     -0.1202
    156  CA       -12.4190   30.6940  -51.2850 C.3   135  SER135      0.2020
    157  C        -12.2610   32.0390  -50.5840 C.2   135  SER135      0.2618
    158  O        -12.1350   32.1100  -49.3580 O.2   135  SER135     -0.2717
    159  CB       -13.6350   30.6840  -52.2170 C.3   135  SER135      0.2103
    160  OG       -14.8240   30.9120  -51.4830 O.3   135  SER135     -0.2182
    161  N        -12.2740   33.1100  -51.3770 N.am  136  ASP136     -0.1973
    162  CA       -12.1860   34.4810  -50.8800 C.3   136  ASP136      0.1709
    163  C        -10.9090   34.6740  -50.0580 C.2   136  ASP136      0.2293
    164  O        -10.9320   34.9010  -48.8470 O.2   136  ASP136     -0.2864
    165  CB       -13.4390   34.8490  -50.0790 C.3   136  ASP136      0.1436
    166  CG       -13.6490   36.3500  -49.9850 C.2   136  ASP136      0.3671
    167  OD1      -12.7380   37.1090  -50.3830 O.co2 136  ASP136     -0.2456
    168  OD2      -14.7230   36.7720  -49.5100 O.co2 136  ASP136     -0.2456
@<TRIPOS>BOND
     1    87    85    1
     2    41    42    1
     3    44    43    2
     4    43    42    1
     5    63    64    1
     6    42    45    1
     7    84    85    1
     8    84    81    1
     9    66    65    2
    10    85    86    1
    11    46    47    1
    12    65    64    1
    13    65    71   am
    14    64    67    1
    15    49    48    2
    16    80    81    1
    17    80    73   am
    18    81    82    1
    19    48    47    1
    20    72    71    1
    21    72    73    1
    22    72    75    1
    23    73    74    2
    24    47    50    1
    25    36    37    2
    26    36    35    1
    27    83    82    2
    28     8     6    1
    29    76    75    1
    30    76    77    1
    31    82    88   am
    32    67    68    1
    33    67    69    1
    34     7     6    1
    35     6     5    1
    36    68    70    1
    37     1     2    1
    38    35    34    1
    39    35    38    1
    40    77    79   ar
    41    77    78   ar
    42    50    51    1
    43    40    38    1
    44    88    89    1
    45    91    90    2
    46     5     2    1
    47     2     3    1
    48    38    39    1
    49    90    89    1
    50    90    94   am
    51    51    52    1
    52    89    92    1
    53    21    22   ar
    54    21    19   ar
    55    94    95    1
    56    95    98    1
    57    95    96    1
    58    52    53    1
    59     3     9   am
    60     3     4    2
    61    22    20   ar
    62     9    10    1
    63    12    11    2
    64    29    28    1
    65    29    30    2
    66    97    96    2
    67    57    58    2
    68    57    56    1
    69    92    93    1
    70    19    18   ar
    71    96    99   am
    72    28    27    1
    73    28    31    1
    74    60    62    1
    75    60    59    1
    76    33    31    1
    77    61    59    1
    78    20    18   ar
    79    11    10    1
    80    11    13   am
    81    53    54    1
    82    56    59    1
    83    56    55    1
    84    18    17    1
    85    31    32    1
    86    99   100    1
    87    13    14    1
    88    14    17    1
    89    14    15    1
    90   153   152    1
    91   100   103    1
    92   100   101    1
    93    23    15   am
    94    23    24    1
    95    15    16    2
    96   102   101    2
    97   101   104   am
    98   152   151    1
    99   152   154    1
   100   151   148    1
   101   159   160    1
   102   159   156    1
   103    24    25    1
   104   118   117   ar
   105   119   117   ar
   106    25    26    2
   107   117   116    1
   108   161   162    1
   109   161   157   am
   110   104   105    1
   111   156   157    1
   112   156   155    1
   113   149   148    1
   114   149   150    2
   115   148   147    1
   116   110   108    1
   117   162   165    1
   118   162   163    1
   119   157   158    2
   120   167   166   ar
   121   116   115    1
   122   105   108    1
   123   105   106    1
   124   165   166    1
   125   163   164    2
   126   166   168   ar
   127   108   109    1
   128   115   112    1
   129   142   141    2
   130   106   107    2
   131   132   131    2
   132   114   113    2
   133   141   140    1
   134   113   112    1
   135   112   111    1
   136   145   144    2
   137   140   139    1
   138   140   143    1
   139   131   139   am
   140   131   130    1
   141   144   143    1
   142   144   146   am
   143   130   133    1
   144   130   129    1
   145   133   134    1
   146   136   134   ar
   147   136   138   ar
   148   134   135   ar
   149   128   127    1
   150   127   126    1
   151   123   122    2
   152   138   137   ar
   153   135   137   ar
   154   125   126    1
   155   125   124    1
   156   122   121    1
   157   120   121    1
   158   124   121    1
