@<TRIPOS>MOLECULE
tmp/4yzfD00.pdb
 188 177 0 0 0
SMALL
GASTEIGER

@<TRIPOS>ATOM
      1  N        -86.6110  -15.0590   80.6420 N.3    38  SER38      -0.1203
      2  CA       -85.1430  -14.9530   80.6950 C.3    38  SER38       0.2005
      3  C        -84.5920  -14.7900   82.1370 C.2    38  SER38       0.2460
      4  O        -83.6870  -15.5310   82.5490 O.2    38  SER38      -0.2732
      5  CB       -84.6640  -13.8000   79.7930 C.3    38  SER38       0.2103
      6  OG       -83.2810  -13.8990   79.4700 O.3    38  SER38      -0.2182
      7  N        -85.1420  -13.8420   82.9240 N.am   39  PRO39      -0.2728
      8  CA       -84.6590  -13.7850   84.3080 C.3    39  PRO39       0.1401
      9  C        -85.1140  -14.9800   85.1460 C.2    39  PRO39       0.2269
     10  O        -84.4370  -15.3270   86.1100 O.2    39  PRO39      -0.2865
     11  CB       -85.2610  -12.4790   84.8370 C.3    39  PRO39       0.0296
     12  CG       -86.4890  -12.2890   84.0330 C.3    39  PRO39       0.0237
     13  CD       -86.1340  -12.7850   82.6570 C.3    39  PRO39       0.0939
     14  N        -82.3300  -17.5470   84.2480 N.3    42  THR42      -0.1203
     15  CA       -81.0250  -17.1580   84.8070 C.3    42  THR42       0.1994
     16  C        -81.0020  -17.2360   86.3370 C.2    42  THR42       0.2617
     17  O        -80.1300  -17.8840   86.9360 O.2    42  THR42      -0.2717
     18  CB       -80.6360  -15.7160   84.3900 C.3    42  THR42       0.1784
     19  OG1      -81.0900  -15.4520   83.0570 O.3    42  THR42      -0.2211
     20  CG2      -79.1220  -15.5000   84.4700 C.3    42  THR42       0.0376
     21  N        -81.9930  -16.6090   86.9600 N.am   43  PHE43      -0.1975
     22  CA       -82.1060  -16.5790   88.4090 C.3    43  PHE43       0.1639
     23  C        -82.3240  -17.9710   88.9590 C.2    43  PHE43       0.2290
     24  O        -81.7790  -18.3130   89.9960 O.2    43  PHE43      -0.2864
     25  CB       -83.2390  -15.6500   88.8340 C.3    43  PHE43       0.0560
     26  CG       -82.8070  -14.2280   89.0110 C.ar   43  PHE43      -0.0200
     27  CD1      -81.5160  -13.9350   89.4160 C.ar   43  PHE43      -0.0042
     28  CD2      -83.6580  -13.1830   88.6890 C.ar   43  PHE43      -0.0042
     29  CE1      -81.0980  -12.6270   89.5640 C.ar   43  PHE43      -0.0003
     30  CE2      -83.2440  -11.8690   88.8240 C.ar   43  PHE43      -0.0003
     31  CZ       -81.9620  -11.5920   89.2610 C.ar   43  PHE43      -0.0000
     32  N        -78.8980  -19.5850   88.9890 N.3    46  LEU46      -0.1245
     33  CA       -78.0590  -19.0910   90.0780 C.3    46  LEU46       0.1561
     34  C        -78.5110  -19.6750   91.3910 C.2    46  LEU46       0.2260
     35  O        -77.7100  -20.1590   92.1800 O.2    46  LEU46      -0.2867
     36  CB       -78.0920  -17.5690   90.1730 C.3    46  LEU46       0.0270
     37  CG       -77.6470  -16.7420   88.9800 C.3    46  LEU46       0.0019
     38  CD1      -76.9890  -15.4780   89.4860 C.3    46  LEU46       0.0001
     39  CD2      -76.6780  -17.5360   88.1270 C.3    46  LEU46       0.0001
     40  N        -86.1970  -11.6600   91.9260 N.3    85  SER85      -0.1202
     41  CA       -85.3670  -10.4750   91.7980 C.3    85  SER85       0.2020
     42  C        -84.0230  -10.7370   92.4360 C.2    85  SER85       0.2619
     43  O        -83.8710  -11.6800   93.2170 O.2    85  SER85      -0.2717
     44  CB       -86.0150   -9.2630   92.4630 C.3    85  SER85       0.2103
     45  OG       -85.6150   -9.1770   93.8210 O.3    85  SER85      -0.2182
     46  N        -83.0710   -9.8580   92.1400 N.am   86  GLY86      -0.1942
     47  CA       -81.7220   -9.9380   92.6780 C.3    86  GLY86       0.1998
     48  C        -81.6010   -9.9580   94.1870 C.2    86  GLY86       0.2480
     49  O        -80.9350  -10.8350   94.7430 O.2    86  GLY86      -0.2729
     50  N        -82.2250   -8.9780   94.8560 N.am   87  PRO87      -0.2726
     51  CA       -82.2570   -8.9850   96.3180 C.3    87  PRO87       0.1402
     52  C        -82.6800  -10.3400   96.8770 C.2    87  PRO87       0.2269
     53  O        -82.0010  -10.8750   97.7600 O.2    87  PRO87      -0.2865
     54  CB       -83.2840   -7.9020   96.6400 C.3    87  PRO87       0.0296
     55  CG       -83.1200   -6.9180   95.5320 C.3    87  PRO87       0.0237
     56  CD       -82.7740   -7.7250   94.3030 C.3    87  PRO87       0.0939
     57  N        -82.4500  -13.2440   95.6490 N.3    89  LEU89      -0.1231
     58  CA       -81.3150  -14.1430   95.4720 C.3    89  LEU89       0.1693
     59  C        -80.2660  -13.9370   96.5540 C.2    89  LEU89       0.2591
     60  O        -79.8040  -14.9080   97.1610 O.2    89  LEU89      -0.2718
     61  CB       -80.6770  -13.9560   94.0890 C.3    89  LEU89       0.0284
     62  CG       -79.5100  -14.9040   93.7790 C.3    89  LEU89       0.0019
     63  CD1      -79.9920  -16.3320   93.5900 C.3    89  LEU89       0.0001
     64  CD2      -78.7090  -14.4550   92.5610 C.3    89  LEU89       0.0001
     65  N        -79.8900  -12.6790   96.7900 N.am   90  VAL90      -0.1980
     66  CA       -78.9010  -12.3560   97.8210 C.3    90  VAL90       0.1595
     67  C        -79.3420  -12.9470   99.1570 C.2    90  VAL90       0.2287
     68  O        -78.5420  -13.5660   99.8740 O.2    90  VAL90      -0.2864
     69  CB       -78.6750  -10.8360   97.9500 C.3    90  VAL90       0.0276
     70  CG1      -77.3860  -10.5560   98.7080 C.3    90  VAL90       0.0022
     71  CG2      -78.6180  -10.1820   96.5870 C.3    90  VAL90       0.0022
     72  N        -85.2790    5.5310   93.0150 N.3   144  PHE144     -0.1241
     73  CA       -85.4290    4.0830   92.9820 C.3   144  PHE144      0.1605
     74  C        -85.3000    3.5050   91.5760 C.2   144  PHE144      0.2264
     75  O        -84.3500    2.7840   91.2850 O.2   144  PHE144     -0.2867
     76  CB       -86.7770    3.6820   93.5620 C.3   144  PHE144      0.0534
     77  CG       -86.9520    2.2040   93.6930 C.ar  144  PHE144     -0.0203
     78  CD1      -86.0680    1.4580   94.4470 C.ar  144  PHE144     -0.0042
     79  CD2      -87.9950    1.5590   93.0590 C.ar  144  PHE144     -0.0042
     80  CE1      -86.2250    0.0960   94.5740 C.ar  144  PHE144     -0.0003
     81  CE2      -88.1600    0.1970   93.1850 C.ar  144  PHE144     -0.0003
     82  CZ       -87.2760   -0.5350   93.9480 C.ar  144  PHE144     -0.0000
     83  N        -82.5200    1.3640   89.5990 N.3   148  ILE148     -0.1245
     84  CA       -82.8120    0.0520   89.0450 C.3   148  ILE148      0.1561
     85  C        -82.5150    0.0160   87.5650 C.2   148  ILE148      0.2260
     86  O        -81.7980   -0.8620   87.1120 O.2   148  ILE148     -0.2867
     87  CB       -84.2470   -0.3790   89.2940 C.3   148  ILE148      0.0252
     88  CG1      -84.4330   -0.7640   90.7500 C.3   148  ILE148      0.0019
     89  CG2      -84.5770   -1.5910   88.4590 C.3   148  ILE148      0.0019
     90  CD1      -85.8220   -1.1870   91.0420 C.3   148  ILE148      0.0001
     91  N        -78.7260    0.0030   86.9920 N.3   151  ILE151     -0.1231
     92  CA       -78.1480   -1.2870   87.3570 C.3   151  ILE151      0.1692
     93  C        -78.4970   -2.3680   86.3350 C.2   151  ILE151      0.2592
     94  O        -77.6840   -3.2320   86.0320 O.2   151  ILE151     -0.2718
     95  CB       -78.6030   -1.6980   88.7550 C.3   151  ILE151      0.0266
     96  CG1      -77.8900   -0.8440   89.7900 C.3   151  ILE151      0.0019
     97  CG2      -78.2800   -3.1490   89.0400 C.3   151  ILE151      0.0020
     98  CD1      -78.4470   -1.0180   91.1700 C.3   151  ILE151      0.0001
     99  N        -79.7180   -2.3130   85.8190 N.am  152  PHE152     -0.1976
    100  CA       -80.2220   -3.2740   84.8460 C.3   152  PHE152      0.1639
    101  C        -79.3960   -3.2080   83.5730 C.2   152  PHE152      0.2290
    102  O        -78.8240   -4.2190   83.1400 O.2   152  PHE152     -0.2864
    103  CB       -81.7060   -2.9970   84.5700 C.3   152  PHE152      0.0560
    104  CG       -82.3770   -3.9930   83.6530 C.ar  152  PHE152     -0.0200
    105  CD1      -82.2430   -3.9160   82.2800 C.ar  152  PHE152     -0.0042
    106  CD2      -83.1450   -5.0140   84.1840 C.ar  152  PHE152     -0.0042
    107  CE1      -82.8790   -4.8380   81.4580 C.ar  152  PHE152     -0.0003
    108  CE2      -83.7710   -5.9360   83.3730 C.ar  152  PHE152     -0.0003
    109  CZ       -83.6380   -5.8520   82.0130 C.ar  152  PHE152     -0.0000
    110  N        -75.9710   -4.4730   84.1180 N.3   155  GLU155     -0.1245
    111  CA       -75.9730   -5.9190   84.1860 C.3   155  GLU155      0.1567
    112  C        -75.9540   -6.5470   82.7910 C.2   155  GLU155      0.2260
    113  O        -75.1480   -7.4360   82.5180 O.2   155  GLU155     -0.2867
    114  CB       -77.1960   -6.4030   84.9710 C.3   155  GLU155      0.0388
    115  CG       -77.4040   -7.8970   84.8970 C.3   155  GLU155      0.1160
    116  CD       -76.2650   -8.6670   85.5410 C.2   155  GLU155      0.3649
    117  OE1      -75.5300   -8.0780   86.3720 O.co2 155  GLU155     -0.2457
    118  OE2      -76.0980   -9.8600   85.1990 O.co2 155  GLU155     -0.2457
    119  N        -73.1330   -9.0670   81.2150 N.3   159  LYS159     -0.1245
    120  CA       -73.3600  -10.3690   80.5940 C.3   159  LYS159      0.1561
    121  C        -72.6570  -10.4820   79.2380 C.2   159  LYS159      0.2260
    122  O        -71.9390  -11.4620   78.9670 O.2   159  LYS159     -0.2867
    123  CB       -74.8580  -10.6250   80.4410 C.3   159  LYS159      0.0271
    124  CG       -75.6030  -10.6490   81.7620 C.3   159  LYS159      0.0035
    125  CD       -76.9550  -11.3060   81.6110 C.3   159  LYS159      0.0206
    126  CE       -77.6050  -11.5100   82.9650 C.3   159  LYS159      0.1093
    127  NZ       -79.0280  -11.9080   82.8230 N.3   159  LYS159     -0.1314
    128  N        -90.1020   -2.8240   97.3790 N.3   280  GLU280     -0.1245
    129  CA       -90.1640   -3.0380   95.9280 C.3   280  GLU280      0.1567
    130  C        -91.5810   -2.9770   95.3490 C.2   280  GLU280      0.2260
    131  O        -91.8730   -2.0990   94.5400 O.2   280  GLU280     -0.2867
    132  CB       -89.5340   -4.3770   95.5400 C.3   280  GLU280      0.0388
    133  CG       -88.1160   -4.2590   95.0080 C.3   280  GLU280      0.1160
    134  CD       -87.5970   -5.5640   94.4220 C.2   280  GLU280      0.3649
    135  OE1      -88.4220   -6.3940   93.9860 O.co2 280  GLU280     -0.2457
    136  OE2      -86.3620   -5.7520   94.3830 O.co2 280  GLU280     -0.2457
    137  N        -91.7500   -6.9750   90.3020 N.3   326  THR326     -0.1218
    138  CA       -90.5370   -6.3870   89.7150 C.3   326  THR326      0.1862
    139  C        -90.8030   -4.9940   89.1650 C.2   326  THR326      0.2287
    140  O        -91.8800   -4.7280   88.6520 O.2   326  THR326     -0.2866
    141  CB       -89.9580   -7.2640   88.5840 C.3   326  THR326      0.1770
    142  OG1      -90.0590   -8.6480   88.9450 O.3   326  THR326     -0.2211
    143  CG2      -88.4950   -6.9200   88.3470 C.3   326  THR326      0.0375
    144  N        -89.7150   -5.0580   84.8720 N.3   329  ARG329     -0.1245
    145  CA       -90.6230   -5.9950   84.2140 C.3   329  ARG329      0.1563
    146  C        -92.0440   -5.4450   84.1250 C.2   329  ARG329      0.2260
    147  O        -92.6570   -5.3970   83.0480 O.2   329  ARG329     -0.2867
    148  CB       -90.6470   -7.3290   84.9670 C.3   329  ARG329      0.0307
    149  CG       -90.4780   -8.5590   84.0940 C.3   329  ARG329      0.0489
    150  CD       -89.9510   -9.7190   84.9090 C.3   329  ARG329      0.2205
    151  NE       -88.7720   -9.3200   85.6630 N.pl3 329  ARG329     -0.0865
    152  CZ       -88.1750  -10.0780   86.5740 C.cat 329  ARG329      0.5346
    153  NH1      -88.6370  -11.2940   86.8370 N.pl3 329  ARG329      0.1354
    154  NH2      -87.1080   -9.6230   87.2140 N.pl3 329  ARG329      0.1354
    155  N        -83.2590   -6.7090   76.2800 N.3   380  PHE380     -0.1241
    156  CA       -82.9430   -6.1990   77.6080 C.3   380  PHE380      0.1605
    157  C        -82.5260   -4.7470   77.5470 C.2   380  PHE380      0.2264
    158  O        -83.1350   -3.9110   78.1900 O.2   380  PHE380     -0.2867
    159  CB       -81.8360   -7.0150   78.2620 C.3   380  PHE380      0.0534
    160  CG       -82.3070   -8.3080   78.8350 C.ar  380  PHE380     -0.0203
    161  CD1      -83.6530   -8.5210   79.0700 C.ar  380  PHE380     -0.0042
    162  CD2      -81.4060   -9.3130   79.1440 C.ar  380  PHE380     -0.0042
    163  CE1      -84.0950   -9.7130   79.5980 C.ar  380  PHE380     -0.0003
    164  CE2      -81.8420  -10.5090   79.6750 C.ar  380  PHE380     -0.0003
    165  CZ       -83.1870  -10.7080   79.9040 C.ar  380  PHE380     -0.0000
    166  N        -75.6720   -1.0270   97.8510 N.3   439  LYS439     -0.1245
    167  CA       -76.0930   -2.1910   97.0730 C.3   439  LYS439      0.1561
    168  C        -74.9100   -2.9350   96.4560 C.2   439  LYS439      0.2260
    169  O        -75.0490   -4.0820   96.0320 O.2   439  LYS439     -0.2867
    170  CB       -77.0620   -1.7530   95.9740 C.3   439  LYS439      0.0271
    171  CG       -77.7210   -2.8460   95.1620 C.3   439  LYS439      0.0035
    172  CD       -79.0050   -2.2950   94.5740 C.3   439  LYS439      0.0206
    173  CE       -80.2190   -2.8560   95.2800 C.3   439  LYS439      0.1093
    174  NZ       -81.4640   -2.6400   94.4930 N.3   439  LYS439     -0.1314
    175  N        -75.4760   -5.3270  100.9540 N.3   444  SER444     -0.1217
    176  CA       -76.5650   -4.7370  100.1750 C.3   444  SER444      0.1889
    177  C        -77.9810   -5.0120  100.7140 C.2   444  SER444      0.2288
    178  O        -78.9130   -4.2780  100.3810 O.2   444  SER444     -0.2866
    179  CB       -76.4720   -5.1960   98.7140 C.3   444  SER444      0.2089
    180  OG       -77.0840   -6.4530   98.5060 O.3   444  SER444     -0.2183
    181  N        -80.0340   -2.1990  102.0680 N.3   447  LEU447     -0.1245
    182  CA       -80.5210   -1.1380  101.1700 C.3   447  LEU447      0.1561
    183  C        -81.9550   -0.6250  101.4090 C.2   447  LEU447      0.2260
    184  O        -82.1460    0.5920  101.4710 O.2   447  LEU447     -0.2867
    185  CB       -80.4280   -1.5840   99.7060 C.3   447  LEU447      0.0270
    186  CG       -80.5470   -0.3960   98.7410 C.3   447  LEU447      0.0019
    187  CD1      -79.1660    0.1830   98.3600 C.3   447  LEU447      0.0001
    188  CD2      -81.4020   -0.7030   97.5260 C.3   447  LEU447      0.0001
@<TRIPOS>BOND
     1   155   156    1
     2   157   156    1
     3   157   158    2
     4   156   159    1
     5   159   160    1
     6   160   161   ar
     7   160   162   ar
     8   122   121    2
     9   161   163   ar
    10   162   164   ar
    11   121   120    1
    12     6     5    1
    13   163   165   ar
    14   164   165   ar
    15     5     2    1
    16   123   120    1
    17   123   124    1
    18   120   119    1
    19     1     2    1
    20     2     3    1
    21   107   109   ar
    22   107   105   ar
    23   125   124    1
    24   125   126    1
    25   109   108   ar
    26     3     4    2
    27     3     7   am
    28   105   104   ar
    29   113   112    2
    30    13     7    1
    31    13    12    1
    32   112   111    1
    33   127   126    1
    34     7     8    1
    35   147   146    2
    36    19    18    1
    37   102   101    2
    38   108   106   ar
    39   101   100    1
    40   104   106   ar
    41   104   103    1
    42    12    11    1
    43   149   150    1
    44   149   148    1
    45   110   111    1
    46   146   145    1
    47   111   114    1
    48   145   144    1
    49   145   148    1
    50    14    15    1
    51     8    11    1
    52     8     9    1
    53    18    20    1
    54    18    15    1
    55   103   100    1
    56    15    16    1
    57   100    99    1
    58   115   114    1
    59   115   116    1
    60   150   151    1
    61     9    10    2
    62   118   116   ar
    63   116   117   ar
    64   151   152    2
    65    99    93   am
    66    94    93    2
    67    93    92    1
    68    16    17    2
    69    16    21   am
    70   152   153    1
    71   152   154    1
    72    21    22    1
    73    91    92    1
    74    86    85    2
    75    92    95    1
    76    85    84    1
    77    39    37    1
    78   143   141    1
    79    22    25    1
    80    22    23    1
    81    89    87    1
    82   141   142    1
    83   141   138    1
    84   140   139    2
    85    28    30   ar
    86    28    26   ar
    87    95    97    1
    88    95    96    1
    89    30    31   ar
    90    25    26    1
    91    23    24    2
    92    37    38    1
    93    37    36    1
    94    32    33    1
    95    26    27   ar
    96    84    87    1
    97    84    83    1
    98   139   138    1
    99    31    29   ar
   100    87    88    1
   101    27    29   ar
   102   138   137    1
   103    96    98    1
   104    33    36    1
   105    33    34    1
   106    88    90    1
   107    75    74    2
   108    34    35    2
   109    74    73    1
   110    41    40    1
   111    41    42    1
   112    41    44    1
   113    46    42   am
   114    46    47    1
   115    42    43    2
   116    44    45    1
   117    64    62    1
   118    47    48    1
   119    73    72    1
   120    73    76    1
   121    79    81   ar
   122    79    77   ar
   123    81    82   ar
   124    76    77    1
   125    63    62    1
   126    77    78   ar
   127    62    61    1
   128    82    80   ar
   129   135   134   ar
   130    61    58    1
   131    48    49    2
   132    48    50   am
   133    56    50    1
   134    56    55    1
   135   136   134   ar
   136   134   133    1
   137    78    80   ar
   138   174   173    1
   139   131   130    2
   140   172   171    1
   141   172   173    1
   142    50    51    1
   143   133   132    1
   144   171   170    1
   145   130   129    1
   146    58    57    1
   147    58    59    1
   148    55    54    1
   149   132   129    1
   150   129   128    1
   151   170   167    1
   152   169   168    2
   153    51    54    1
   154    51    52    1
   155   168   167    1
   156    59    65   am
   157    59    60    2
   158    71    69    1
   159    65    66    1
   160    52    53    2
   161   167   166    1
   162   188   186    1
   163    66    69    1
   164    66    67    1
   165    69    70    1
   166   187   186    1
   167   180   179    1
   168   179   176    1
   169   186   185    1
   170    67    68    2
   171   185   182    1
   172   176   177    1
   173   176   175    1
   174   178   177    2
   175   182   183    1
   176   182   181    1
   177   183   184    2
