@<TRIPOS>MOLECULE
tmp/4yziA00.pdb
 156 151 0 0 0
SMALL
GASTEIGER

@<TRIPOS>ATOM
      1  N         -6.4620  -36.0800  -18.1890 N.3   117  TRP117     -0.1241
      2  CA        -5.6130  -35.0880  -17.5440 C.3   117  TRP117      0.1605
      3  C         -4.9370  -34.2280  -18.6070 C.2   117  TRP117      0.2264
      4  O         -4.8990  -33.0020  -18.4950 O.2   117  TRP117     -0.2867
      5  CB        -4.5640  -35.7530  -16.6490 C.3   117  TRP117      0.0550
      6  CG        -5.1280  -36.4730  -15.4570 C.ar  117  TRP117      0.0003
      7  CD1       -6.4400  -36.5630  -15.0960 C.ar  117  TRP117      0.0946
      8  CD2       -4.3890  -37.2060  -14.4700 C.ar  117  TRP117      0.0152
      9  NE1       -6.5650  -37.3070  -13.9460 N.ar  117  TRP117     -0.2442
     10  CE2       -5.3200  -37.7130  -13.5420 C.ar  117  TRP117      0.0810
     11  CE3       -3.0290  -37.4830  -14.2820 C.ar  117  TRP117      0.0012
     12  CZ2       -4.9370  -38.4820  -12.4430 C.ar  117  TRP117      0.0191
     13  CZ3       -2.6510  -38.2460  -13.1880 C.ar  117  TRP117      0.0001
     14  CH2       -3.6030  -38.7360  -12.2830 C.ar  117  TRP117      0.0015
     15  N         -7.6810  -31.7760  -19.9750 N.3   120  THR120     -0.1203
     16  CA        -8.3900  -30.8560  -19.0910 C.3   120  THR120      0.1994
     17  C         -7.4800  -30.0400  -18.1730 C.2   120  THR120      0.2618
     18  O         -7.7750  -28.8850  -17.8800 O.2   120  THR120     -0.2717
     19  CB        -9.4090  -31.6110  -18.2150 C.3   120  THR120      0.1784
     20  OG1       -8.7280  -32.5840  -17.4140 O.3   120  THR120     -0.2211
     21  CG2      -10.4390  -32.3140  -19.0840 C.3   120  THR120      0.0376
     22  N         -6.3830  -30.6360  -17.7170 N.am  121  CYS121     -0.1969
     23  CA        -5.4850  -29.9540  -16.7840 C.3   121  CYS121      0.1712
     24  C         -4.7830  -28.7250  -17.3750 C.2   121  CYS121      0.2296
     25  O         -4.6750  -27.7050  -16.6920 O.2   121  CYS121     -0.2864
     26  CB        -4.4370  -30.9300  -16.2360 C.3   121  CYS121      0.0983
     27  SG        -5.0970  -32.1400  -15.0740 S.3   121  CYS121     -0.0798
     28  N         -7.5420  -26.0610  -17.4370 N.3   124  ILE124     -0.1245
     29  CA        -7.7740  -25.5440  -16.0920 C.3   124  ILE124      0.1561
     30  C         -6.7110  -24.5130  -15.7020 C.2   124  ILE124      0.2260
     31  O         -7.0340  -23.4560  -15.1590 O.2   124  ILE124     -0.2867
     32  CB        -7.7940  -26.6810  -15.0550 C.3   124  ILE124      0.0252
     33  CG1       -9.0800  -27.4970  -15.1940 C.3   124  ILE124      0.0019
     34  CG2       -7.6730  -26.1330  -13.6380 C.3   124  ILE124      0.0019
     35  CD1       -9.1420  -28.7040  -14.2750 C.3   124  ILE124      0.0001
     36  N          3.1470  -28.8520  -16.0850 N.3   149  ASP149     -0.1239
     37  CA         2.0090  -29.7230  -15.8260 C.3   149  ASP149      0.1674
     38  C          1.9280  -30.8710  -16.8200 C.2   149  ASP149      0.2266
     39  O          1.7140  -32.0170  -16.4300 O.2   149  ASP149     -0.2867
     40  CB         0.7070  -28.9380  -15.8550 C.3   149  ASP149      0.1410
     41  CG        -0.5030  -29.8230  -15.6460 C.2   149  ASP149      0.3668
     42  OD1       -0.7100  -30.2750  -14.5000 O.co2 149  ASP149     -0.2456
     43  OD2       -1.2420  -30.0700  -16.6240 O.co2 149  ASP149     -0.2456
     44  N          4.5880  -33.3070  -16.0100 N.3   152  GLY152     -0.1210
     45  CA         4.2100  -34.0600  -14.8290 C.3   152  GLY152      0.1956
     46  C          3.2460  -35.1890  -15.1350 C.2   152  GLY152      0.2611
     47  O          3.3290  -36.2670  -14.5470 O.2   152  GLY152     -0.2717
     48  N          2.3260  -34.9410  -16.0610 N.am  153  ILE153     -0.1979
     49  CA         1.3740  -35.9610  -16.4690 C.3   153  ILE153      0.1595
     50  C          2.0900  -37.0430  -17.2700 C.2   153  ILE153      0.2287
     51  O          1.7960  -38.2330  -17.1250 O.2   153  ILE153     -0.2864
     52  CB         0.2220  -35.3630  -17.2970 C.3   153  ILE153      0.0276
     53  CG1       -0.4970  -34.2830  -16.4870 C.3   153  ILE153      0.0022
     54  CG2       -0.7650  -36.4450  -17.7090 C.3   153  ILE153      0.0022
     55  CD1       -1.5550  -33.5290  -17.2640 C.3   153  ILE153      0.0001
     56  N          3.9420  -39.1260  -14.7900 N.3   156  ALA156     -0.1245
     57  CA         2.9810  -39.8990  -14.0070 C.3   156  ALA156      0.1562
     58  C          2.4650  -41.0870  -14.8100 C.2   156  ALA156      0.2260
     59  O          2.3590  -42.2020  -14.2940 O.2   156  ALA156     -0.2867
     60  CB         1.8250  -39.0200  -13.5570 C.3   156  ALA156      0.0290
     61  N          8.1500  -41.3100  -11.1150 N.3   171  PHE171     -0.1241
     62  CA         7.2370  -40.7140  -10.1480 C.3   171  PHE171      0.1605
     63  C          7.8910  -39.4900   -9.5250 C.2   171  PHE171      0.2264
     64  O          7.2690  -38.4340   -9.3910 O.2   171  PHE171     -0.2867
     65  CB         6.8480  -41.7110   -9.0560 C.3   171  PHE171      0.0534
     66  CG         5.9210  -41.1360   -8.0200 C.ar  171  PHE171     -0.0203
     67  CD1        6.4210  -40.5570   -6.8630 C.ar  171  PHE171     -0.0042
     68  CD2        4.5490  -41.1620   -8.2100 C.ar  171  PHE171     -0.0042
     69  CE1        5.5680  -40.0180   -5.9130 C.ar  171  PHE171     -0.0003
     70  CE2        3.6910  -40.6290   -7.2640 C.ar  171  PHE171     -0.0003
     71  CZ         4.2010  -40.0550   -6.1150 C.ar  171  PHE171     -0.0000
     72  N          7.9800  -36.6420  -11.8770 N.3   174  GLY174     -0.1210
     73  CA         6.6840  -35.9920  -11.9070 C.3   174  GLY174      0.1956
     74  C          6.4910  -35.1310  -10.6770 C.2   174  GLY174      0.2611
     75  O          5.8690  -34.0720  -10.7360 O.2   174  GLY174     -0.2717
     76  N          7.0420  -35.5920   -9.5600 N.am  175  LEU175     -0.1979
     77  CA         6.9830  -34.8590   -8.3030 C.3   175  LEU175      0.1596
     78  C          7.7210  -33.5280   -8.4140 C.2   175  LEU175      0.2287
     79  O          7.2600  -32.5060   -7.9030 O.2   175  LEU175     -0.2864
     80  CB         7.5760  -35.7010   -7.1740 C.3   175  LEU175      0.0297
     81  CG         6.9090  -35.5970   -5.8050 C.3   175  LEU175      0.0022
     82  CD1        5.4080  -35.7630   -5.9460 C.3   175  LEU175      0.0001
     83  CD2        7.4760  -36.6560   -4.8740 C.3   175  LEU175      0.0001
     84  N          5.7840  -31.3120  -10.3330 N.3   178  GLY178     -0.1225
     85  CA         4.6200  -30.9670   -9.5390 C.3   178  GLY178      0.1811
     86  C          4.8290  -29.7900   -8.6070 C.2   178  GLY178      0.2280
     87  O          3.9690  -28.9130   -8.5120 O.2   178  GLY178     -0.2866
     88  N          2.7890  -26.1230   -8.5510 N.3   182  PHE182     -0.1241
     89  CA         2.1240  -25.6110   -7.3560 C.3   182  PHE182      0.1605
     90  C          2.6740  -24.2670   -6.8890 C.2   182  PHE182      0.2264
     91  O          1.9060  -23.3790   -6.5180 O.2   182  PHE182     -0.2867
     92  CB         2.2230  -26.6230   -6.2170 C.3   182  PHE182      0.0534
     93  CG         1.0810  -27.5910   -6.1740 C.ar  182  PHE182     -0.0203
     94  CD1        0.3550  -27.8750   -7.3190 C.ar  182  PHE182     -0.0042
     95  CD2        0.7140  -28.1980   -4.9850 C.ar  182  PHE182     -0.0042
     96  CE1       -0.7020  -28.7600   -7.2820 C.ar  182  PHE182     -0.0003
     97  CE2       -0.3450  -29.0840   -4.9430 C.ar  182  PHE182     -0.0003
     98  CZ        -1.0530  -29.3640   -6.0920 C.ar  182  PHE182     -0.0000
     99  N         -5.9670  -31.1920   -6.2810 N.3   216  TRP216     -0.1241
    100  CA        -4.8060  -31.5330   -7.1030 C.3   216  TRP216      0.1605
    101  C         -3.7300  -32.2700   -6.3080 C.2   216  TRP216      0.2264
    102  O         -2.9940  -33.0900   -6.8590 O.2   216  TRP216     -0.2867
    103  CB        -4.2030  -30.2740   -7.7310 C.3   216  TRP216      0.0550
    104  CG        -4.9510  -29.7450   -8.9230 C.ar  216  TRP216      0.0003
    105  CD1       -6.2830  -29.4550   -8.9980 C.ar  216  TRP216      0.0946
    106  CD2       -4.3970  -29.4170  -10.2050 C.ar  216  TRP216      0.0152
    107  NE1       -6.5950  -28.9780  -10.2500 N.ar  216  TRP216     -0.2442
    108  CE2       -5.4540  -28.9430  -11.0090 C.ar  216  TRP216      0.0810
    109  CE3       -3.1100  -29.4820  -10.7520 C.ar  216  TRP216      0.0012
    110  CZ2       -5.2640  -28.5370  -12.3300 C.ar  216  TRP216      0.0191
    111  CZ3       -2.9230  -29.0770  -12.0660 C.ar  216  TRP216      0.0001
    112  CH2       -3.9950  -28.6120  -12.8390 C.ar  216  TRP216      0.0015
    113  N         -4.1930  -36.2390   -6.0280 N.3   219  PHE219     -0.1228
    114  CA        -3.8790  -37.1290   -7.1400 C.3   219  PHE219      0.1721
    115  C         -2.5640  -37.9050   -6.9500 C.2   219  PHE219      0.2437
    116  O         -2.5480  -39.1220   -7.1390 O.2   219  PHE219     -0.2733
    117  CB        -3.8570  -36.3440   -8.4560 C.3   219  PHE219      0.0547
    118  CG        -5.2220  -35.9190   -8.9280 C.ar  219  PHE219     -0.0202
    119  CD1       -6.0090  -36.7800   -9.6790 C.ar  219  PHE219     -0.0042
    120  CD2       -5.7210  -34.6650   -8.6170 C.ar  219  PHE219     -0.0042
    121  CE1       -7.2660  -36.3990  -10.1140 C.ar  219  PHE219     -0.0003
    122  CE2       -6.9810  -34.2750   -9.0480 C.ar  219  PHE219     -0.0003
    123  CZ        -7.7550  -35.1450   -9.7980 C.ar  219  PHE219     -0.0000
    124  N         -1.4600  -37.2270   -6.5700 N.am  220  PRO220     -0.2729
    125  CA        -0.2590  -38.0430   -6.3460 C.3   220  PRO220      0.1401
    126  C         -0.4000  -38.9770   -5.1420 C.2   220  PRO220      0.2269
    127  O          0.2680  -40.0090   -5.0820 O.2   220  PRO220     -0.2865
    128  CB         0.8380  -36.9990   -6.1050 C.3   220  PRO220      0.0296
    129  CG         0.1190  -35.7970   -5.6350 C.3   220  PRO220      0.0237
    130  CD        -1.1800  -35.7920   -6.3850 C.3   220  PRO220      0.0939
    131  N         -2.1810  -42.0460   -6.3540 N.3   223  PHE223     -0.1241
    132  CA        -1.2450  -42.7990   -7.1820 C.3   223  PHE223      0.1605
    133  C         -0.4670  -43.7810   -6.3090 C.2   223  PHE223      0.2264
    134  O         -0.2970  -44.9470   -6.6630 O.2   223  PHE223     -0.2867
    135  CB        -0.2890  -41.8450   -7.9110 C.3   223  PHE223      0.0534
    136  CG         0.6030  -42.5160   -8.9270 C.ar  223  PHE223     -0.0203
    137  CD1        1.7290  -43.2290   -8.5300 C.ar  223  PHE223     -0.0042
    138  CD2        0.3330  -42.4050  -10.2830 C.ar  223  PHE223     -0.0042
    139  CE1        2.5540  -43.8370   -9.4650 C.ar  223  PHE223     -0.0003
    140  CE2        1.1550  -43.0080  -11.2230 C.ar  223  PHE223     -0.0003
    141  CZ         2.2660  -43.7250  -10.8130 C.ar  223  PHE223     -0.0000
    142  N        -11.9800  -30.6950   -8.7220 N.3   249  SER249     -0.1202
    143  CA       -11.0010  -30.0310   -9.5770 C.3   249  SER249      0.2020
    144  C        -11.5920  -29.4840  -10.8720 C.2   249  SER249      0.2618
    145  O        -11.1350  -28.4610  -11.3800 O.2   249  SER249     -0.2717
    146  CB        -9.8560  -30.9930   -9.9070 C.3   249  SER249      0.2103
    147  OG       -10.3430  -32.1690  -10.5310 O.3   249  SER249     -0.2182
    148  N        -12.6020  -30.1580  -11.4070 N.am  250  LYS250     -0.1979
    149  CA       -13.1350  -29.7810  -12.7110 C.3   250  LYS250      0.1596
    150  C        -14.4960  -29.1060  -12.6140 C.2   250  LYS250      0.2287
    151  O        -14.6740  -27.9800  -13.0780 O.2   250  LYS250     -0.2864
    152  CB       -13.2180  -31.0090  -13.6160 C.3   250  LYS250      0.0298
    153  CG       -11.8590  -31.6190  -13.9040 C.3   250  LYS250      0.0038
    154  CD       -11.9620  -32.9380  -14.6410 C.3   250  LYS250      0.0206
    155  CE       -10.5830  -33.5490  -14.8540 C.3   250  LYS250      0.1093
    156  NZ        -9.9120  -33.9090  -13.5720 N.3   250  LYS250     -0.1314
@<TRIPOS>BOND
     1    15    16    1
     2    16    19    1
     3    16    17    1
     4    21    19    1
     5     3     4    2
     6     3     2    1
     7    19    20    1
     8     1     2    1
     9    17    18    2
    10    17    22   am
    11    22    23    1
    12    54    52    1
    13     2     5    1
    14    28    29    1
    15    24    23    1
    16    24    25    2
    17    52    53    1
    18    52    49    1
    19    50    51    2
    20    50    49    1
    21    55    53    1
    22    38    39    2
    23    38    37    1
    24    23    26    1
    25     5     6    1
    26    43    41   ar
    27    49    48    1
    28    26    27    1
    29    29    30    1
    30    29    32    1
    31    36    37    1
    32    48    46   am
    33    44    45    1
    34    40    37    1
    35    40    41    1
    36    30    31    2
    37    41    42   ar
    38     6     7   ar
    39     6     8   ar
    40    33    32    1
    41    33    35    1
    42    46    45    1
    43    46    47    2
    44     7     9   ar
    45    32    34    1
    46   155   154    1
    47   155   156    1
    48    58    59    2
    49    58    57    1
    50    56    57    1
    51   154   153    1
    52     8    11   ar
    53     8    10   ar
    54    11    13   ar
    55    57    60    1
    56     9    10   ar
    57   153   152    1
    58   152   149    1
    59    10    12   ar
    60    13    14   ar
    61   151   150    2
    62   112   110   ar
    63   112   111   ar
    64   149   150    1
    65   149   148    1
    66    12    14   ar
    67   110   108   ar
    68   111   109   ar
    69    73    72    1
    70    73    74    1
    71   148   144   am
    72   145   144    2
    73   140   141   ar
    74   140   138   ar
    75    61    62    1
    76   108   107   ar
    77   108   106   ar
    78   144   143    1
    79   141   139   ar
    80   109   106   ar
    81    75    74    2
    82    74    76   am
    83   147   146    1
    84    84    85    1
    85   138   136   ar
    86   107   105   ar
    87   106   104   ar
    88    62    63    1
    89    62    65    1
    90   121   123   ar
    91   121   119   ar
    92   146   143    1
    93   123   122   ar
    94   119   118   ar
    95   143   142    1
    96    76    77    1
    97    85    86    1
    98    63    64    2
    99   139   137   ar
   100    65    66    1
   101   122   120   ar
   102   105   104   ar
   103   118   120   ar
   104   118   117    1
   105   136   137   ar
   106   136   135    1
   107   104   103    1
   108    86    87    2
   109    88    89    1
   110   117   114    1
   111    78    77    1
   112    78    79    2
   113    77    80    1
   114    68    66   ar
   115    68    70   ar
   116    66    67   ar
   117   135   132    1
   118   103   100    1
   119    89    90    1
   120    89    92    1
   121    94    96   ar
   122    94    93   ar
   123    96    98   ar
   124    70    71   ar
   125   132   131    1
   126   132   133    1
   127    80    81    1
   128   114   115    1
   129   114   113    1
   130   116   115    2
   131   100   101    1
   132   100    99    1
   133   115   124   am
   134    90    91    2
   135    67    69   ar
   136   102   101    2
   137   134   133    2
   138   124   130    1
   139   124   125    1
   140   130   129    1
   141   125   128    1
   142   125   126    1
   143    92    93    1
   144    93    95   ar
   145    71    69   ar
   146   128   129    1
   147    98    97   ar
   148    82    81    1
   149    81    83    1
   150   126   127    2
   151    95    97   ar
