@<TRIPOS>MOLECULE
tmp/4yziA05.pdb
 80 71 0 0 0
SMALL
GASTEIGER

@<TRIPOS>ATOM
      1  N        -17.4300  -51.5240   -4.0050 N.3    49  GLU49      -0.1245
      2  CA       -16.6020  -50.4850   -4.6060 C.3    49  GLU49       0.1567
      3  C        -17.0290  -50.2160   -6.0450 C.2    49  GLU49       0.2260
      4  O        -17.0630  -49.0680   -6.4900 O.2    49  GLU49      -0.2867
      5  CB       -15.1250  -50.8810   -4.5630 C.3    49  GLU49       0.0388
      6  CG       -14.5280  -50.9560   -3.1670 C.3    49  GLU49       0.1160
      7  CD       -13.1600  -51.6170   -3.1550 C.2    49  GLU49       0.3649
      8  OE1      -12.9130  -52.4910   -4.0140 O.co2  49  GLU49      -0.2457
      9  OE2      -12.3330  -51.2600   -2.2890 O.co2  49  GLU49      -0.2457
     10  N         -4.3150  -34.3830   -4.0220 N.3   218  MET218     -0.1245
     11  CA        -4.8070  -35.7230   -3.7350 C.3   218  MET218      0.1570
     12  C         -4.4180  -36.7250   -4.8130 C.2   218  MET218      0.2261
     13  O         -4.3220  -37.9220   -4.5480 O.2   218  MET218     -0.2867
     14  CB        -6.3270  -35.7060   -3.5650 C.3   218  MET218      0.0387
     15  CG        -6.7810  -35.3370   -2.1630 C.3   218  MET218      0.0595
     16  SD        -6.1490  -36.4960   -0.9290 S.3   218  MET218     -0.1393
     17  CE        -6.8810  -38.0300   -1.5010 C.3   218  MET218      0.0692
     18  N         -3.2680  -40.5870   -4.2970 N.3   222  LEU222     -0.1245
     19  CA        -4.0230  -41.7300   -4.8030 C.3   222  LEU222      0.1561
     20  C         -3.1670  -42.6360   -5.6840 C.2   222  LEU222      0.2260
     21  O         -3.4070  -43.8400   -5.7600 O.2   222  LEU222     -0.2867
     22  CB        -5.2500  -41.2590   -5.5870 C.3   222  LEU222      0.0270
     23  CG        -6.3870  -40.6260   -4.7860 C.3   222  LEU222      0.0019
     24  CD1       -7.6530  -40.5770   -5.6240 C.3   222  LEU222      0.0001
     25  CD2       -6.6270  -41.3880   -3.4930 C.3   222  LEU222      0.0001
     26  N         -1.3850  -44.8860   -3.3770 N.3   225  LEU225     -0.1245
     27  CA        -2.3120  -45.8250   -2.7490 C.3   225  LEU225      0.1561
     28  C         -2.8860  -46.8380   -3.7370 C.2   225  LEU225      0.2260
     29  O         -3.2760  -47.9420   -3.3500 O.2   225  LEU225     -0.2867
     30  CB        -3.4590  -45.0680   -2.0770 C.3   225  LEU225      0.0270
     31  CG        -3.0850  -44.1170   -0.9420 C.3   225  LEU225      0.0019
     32  CD1       -4.3130  -43.3790   -0.4280 C.3   225  LEU225      0.0001
     33  CD2       -2.4100  -44.8860    0.1790 C.3   225  LEU225      0.0001
     34  N         -5.4630  -49.6020   -2.3990 N.3   233  LEU233     -0.1245
     35  CA        -6.7370  -49.4310   -3.0890 C.3   233  LEU233      0.1561
     36  C         -6.8510  -50.3770   -4.2830 C.2   233  LEU233      0.2260
     37  O         -5.8690  -50.6340   -4.9800 O.2   233  LEU233     -0.2867
     38  CB        -6.9090  -47.9850   -3.5600 C.3   233  LEU233      0.0270
     39  CG        -6.9010  -46.8750   -2.5070 C.3   233  LEU233      0.0019
     40  CD1       -6.9200  -45.5140   -3.1830 C.3   233  LEU233      0.0001
     41  CD2       -8.0840  -47.0190   -1.5630 C.3   233  LEU233      0.0001
     42  N        -11.7030  -48.9780   -6.1470 N.3   237  GLY237     -0.1225
     43  CA       -11.5090  -47.9940   -5.0980 C.3   237  GLY237      0.1811
     44  C        -10.7580  -46.7810   -5.6100 C.2   237  GLY237      0.2280
     45  O        -11.0430  -45.6470   -5.2210 O.2   237  GLY237     -0.2866
     46  N        -13.2190  -44.6360   -7.4450 N.3   240  VAL240     -0.1231
     47  CA       -14.0170  -43.8770   -6.4860 C.3   240  VAL240      0.1692
     48  C        -13.2990  -42.6050   -6.0360 C.2   240  VAL240      0.2592
     49  O        -13.8790  -41.5180   -6.0340 O.2   240  VAL240     -0.2718
     50  CB       -14.3590  -44.7310   -5.2480 C.3   240  VAL240      0.0266
     51  CG1      -14.9150  -43.8650   -4.1220 C.3   240  VAL240      0.0020
     52  CG2      -15.3390  -45.8330   -5.6190 C.3   240  VAL240      0.0020
     53  N        -12.0300  -42.7480   -5.6660 N.am  241  GLY241     -0.1957
     54  CA       -11.2460  -41.6270   -5.1860 C.3   241  GLY241      0.1869
     55  C        -11.0250  -40.5670   -6.2450 C.2   241  GLY241      0.2309
     56  O        -11.1510  -39.3720   -5.9760 O.2   241  GLY241     -0.2863
     57  N        -14.1900  -38.4940   -7.0560 N.3   244  ILE244     -0.1231
     58  CA       -14.4680  -37.5040   -6.0240 C.3   244  ILE244      0.1692
     59  C        -13.6300  -36.2460   -6.2260 C.2   244  ILE244      0.2591
     60  O        -14.1330  -35.1310   -6.1030 O.2   244  ILE244     -0.2718
     61  CB       -14.2060  -38.0750   -4.6140 C.3   244  ILE244      0.0266
     62  CG1      -15.2010  -39.1950   -4.3030 C.3   244  ILE244      0.0019
     63  CG2      -14.3010  -36.9820   -3.5640 C.3   244  ILE244      0.0020
     64  CD1      -14.9700  -39.8690   -2.9700 C.3   244  ILE244      0.0001
     65  N        -12.3530  -36.4220   -6.5460 N.am  245  ILE245     -0.1980
     66  CA       -11.4790  -35.2700   -6.7250 C.3   245  ILE245      0.1595
     67  C        -11.5620  -34.7260   -8.1550 C.2   245  ILE245      0.2287
     68  O        -11.1060  -33.6170   -8.4260 O.2   245  ILE245     -0.2864
     69  CB       -10.0120  -35.6030   -6.3570 C.3   245  ILE245      0.0276
     70  CG1       -9.4750  -36.7670   -7.1870 C.3   245  ILE245      0.0022
     71  CG2       -9.9000  -35.9390   -4.8740 C.3   245  ILE245      0.0022
     72  CD1       -8.0600  -37.1610   -6.8070 C.3   245  ILE245      0.0001
     73  N        -14.2250  -32.0470   -7.5950 N.3   248  MET248     -0.1245
     74  CA       -13.7010  -30.8170   -7.0260 C.3   248  MET248      0.1570
     75  C        -12.9020  -30.0170   -8.0460 C.2   248  MET248      0.2261
     76  O        -13.1190  -28.8170   -8.2170 O.2   248  MET248     -0.2867
     77  CB       -12.8180  -31.1230   -5.8170 C.3   248  MET248      0.0387
     78  CG       -13.4520  -32.0460   -4.7970 C.3   248  MET248      0.0595
     79  SD       -12.3610  -32.3300   -3.3910 S.3   248  MET248     -0.1393
     80  CE       -13.2550  -33.6210   -2.5310 C.3   248  MET248      0.0692
@<TRIPOS>BOND
     1    68    67    2
     2    76    75    2
     3    67    66    1
     4    75    74    1
     5    73    74    1
     6    46    47    1
     7    70    72    1
     8    70    69    1
     9    57    58    1
    10    74    77    1
    11    66    65    1
    12    66    69    1
    13    65    59   am
    14     4     3    2
    15    47    48    1
    16    47    50    1
    17    69    71    1
    18    55    56    2
    19    55    54    1
    20    59    60    2
    21    59    58    1
    22    42    43    1
    23     3     2    1
    24    48    49    2
    25    48    53   am
    26    58    61    1
    27    77    78    1
    28    21    20    2
    29    20    19    1
    30    53    54    1
    31    24    23    1
    32    52    50    1
    33    44    45    2
    34    44    43    1
    35    22    19    1
    36    22    23    1
    37    50    51    1
    38    37    36    2
    39    12    13    2
    40    12    11    1
    41    19    18    1
    42    78    79    1
    43    23    25    1
    44    61    62    1
    45    61    63    1
    46     2     5    1
    47     2     1    1
    48     5     6    1
    49    62    64    1
    50    36    35    1
    51    10    11    1
    52     8     7   ar
    53    28    29    2
    54    28    27    1
    55    11    14    1
    56    14    15    1
    57    38    35    1
    58    38    39    1
    59    79    80    1
    60    26    27    1
    61    40    39    1
    62     6     7    1
    63     7     9   ar
    64    35    34    1
    65    27    30    1
    66    39    41    1
    67    15    16    1
    68    30    31    1
    69    17    16    1
    70    31    32    1
    71    31    33    1
