@<TRIPOS>MOLECULE
tmp/4yziA02.pdb
 124 119 0 0 0
SMALL
GASTEIGER

@<TRIPOS>ATOM
      1  N        -11.5090  -59.7530  -25.3960 N.3    13  LEU13      -0.1245
      2  CA       -10.4380  -58.7670  -25.2640 C.3    13  LEU13       0.1561
      3  C         -9.0680  -59.4370  -25.2720 C.2    13  LEU13       0.2260
      4  O         -8.1810  -59.0570  -26.0330 O.2    13  LEU13      -0.2867
      5  CB       -10.6130  -57.9470  -23.9840 C.3    13  LEU13       0.0270
      6  CG       -11.1850  -56.5360  -24.1480 C.3    13  LEU13       0.0019
      7  CD1      -12.5580  -56.5720  -24.8020 C.3    13  LEU13       0.0001
      8  CD2      -11.2430  -55.8340  -22.8020 C.3    13  LEU13       0.0001
      9  N        -15.3210  -32.5850  -22.3470 N.3    82  ILE82      -0.1245
     10  CA       -14.4200  -33.7170  -22.1840 C.3    82  ILE82       0.1561
     11  C        -14.9480  -34.6680  -21.1140 C.2    82  ILE82       0.2260
     12  O        -14.9450  -35.8840  -21.3000 O.2    82  ILE82      -0.2867
     13  CB       -12.9940  -33.2600  -21.8060 C.3    82  ILE82       0.0252
     14  CG1      -12.4040  -32.3820  -22.9100 C.3    82  ILE82       0.0019
     15  CG2      -12.0890  -34.4590  -21.5540 C.3    82  ILE82       0.0019
     16  CD1      -12.2360  -33.0920  -24.2330 C.3    82  ILE82       0.0001
     17  N        -17.9430  -36.6110  -22.5910 N.3    85  ILE85      -0.1231
     18  CA       -17.4650  -37.6170  -23.5350 C.3    85  ILE85       0.1692
     19  C        -16.7740  -38.7610  -22.7920 C.2    85  ILE85       0.2591
     20  O        -16.8780  -39.9260  -23.1810 O.2    85  ILE85      -0.2718
     21  CB       -16.4920  -37.0050  -24.5660 C.3    85  ILE85       0.0266
     22  CG1      -17.2020  -35.9450  -25.4100 C.3    85  ILE85       0.0019
     23  CG2      -15.9020  -38.0840  -25.4620 C.3    85  ILE85       0.0020
     24  CD1      -16.3080  -35.2860  -26.4340 C.3    85  ILE85       0.0001
     25  N        -16.0790  -38.4100  -21.7140 N.am   86  LYS86      -0.1980
     26  CA       -15.4010  -39.3800  -20.8620 C.3    86  LYS86       0.1596
     27  C        -16.3730  -40.4080  -20.2910 C.2    86  LYS86       0.2287
     28  O        -16.1050  -41.6100  -20.3270 O.2    86  LYS86      -0.2864
     29  CB       -14.6750  -38.6620  -19.7230 C.3    86  LYS86       0.0298
     30  CG       -13.9980  -39.5730  -18.7150 C.3    86  LYS86       0.0038
     31  CD       -13.6670  -38.7940  -17.4480 C.3    86  LYS86       0.0206
     32  CE       -12.9550  -39.6470  -16.4100 C.3    86  LYS86       0.1093
     33  NZ       -11.5240  -39.8820  -16.7540 N.3    86  LYS86      -0.1314
     34  N        -17.6170  -42.7910  -22.8370 N.3    89  ILE89      -0.1245
     35  CA       -16.6040  -43.8130  -23.0680 C.3    89  ILE89       0.1561
     36  C        -16.5440  -44.7920  -21.8930 C.2    89  ILE89       0.2260
     37  O        -16.4170  -46.0000  -22.0910 O.2    89  ILE89      -0.2867
     38  CB       -15.2170  -43.1860  -23.3030 C.3    89  ILE89       0.0252
     39  CG1      -15.2200  -42.3820  -24.6050 C.3    89  ILE89       0.0019
     40  CG2      -14.1440  -44.2610  -23.3570 C.3    89  ILE89       0.0019
     41  CD1      -13.8790  -41.7730  -24.9570 C.3    89  ILE89       0.0001
     42  N        -17.1060  -48.7630  -22.5280 N.3    93  HIS93      -0.1241
     43  CA       -15.8280  -49.4690  -22.5760 C.3    93  HIS93       0.1621
     44  C        -14.8470  -49.0590  -21.4820 C.2    93  HIS93       0.2264
     45  O        -13.6990  -48.7350  -21.7770 O.2    93  HIS93      -0.2867
     46  CB       -15.1570  -49.2530  -23.9350 C.3    93  HIS93       0.0745
     47  CG       -16.0250  -49.5950  -25.1060 C.ar   93  HIS93       0.0817
     48  ND1      -16.8210  -48.6650  -25.7390 N.ar   93  HIS93      -0.2268
     49  CD2      -16.2140  -50.7620  -25.7660 C.ar   93  HIS93       0.1154
     50  CE1      -17.4670  -49.2450  -26.7350 C.ar   93  HIS93       0.1986
     51  NE2      -17.1160  -50.5180  -26.7730 N.ar   93  HIS93      -0.2212
     52  N        -12.1190  -51.7900  -21.2600 N.3    96  ASP96      -0.1225
     53  CA       -11.6940  -52.2680  -22.5680 C.3    96  ASP96       0.1805
     54  C        -10.4810  -51.4880  -23.0690 C.2    96  ASP96       0.2598
     55  O        -10.4080  -50.2690  -22.9220 O.2    96  ASP96      -0.2718
     56  CB       -12.8440  -52.1680  -23.5700 C.3    96  ASP96       0.1424
     57  CG       -14.0860  -52.8970  -23.1000 C.2    96  ASP96       0.3668
     58  OD1      -13.9470  -53.8630  -22.3200 O.co2  96  ASP96      -0.2456
     59  OD2      -15.2020  -52.5090  -23.5050 O.co2  96  ASP96      -0.2456
     60  N         -9.5290  -52.2080  -23.6480 N.am   97  GLU97      -0.1966
     61  CA        -8.3500  -51.6100  -24.2540 C.3    97  GLU97       0.1718
     62  C         -8.7690  -50.6650  -25.3730 C.2    97  GLU97       0.2458
     63  O         -9.6130  -51.0230  -26.1920 O.2    97  GLU97      -0.2730
     64  CB        -7.4300  -52.7090  -24.7930 C.3    97  GLU97       0.0428
     65  CG        -6.0070  -52.2780  -25.0700 C.3    97  GLU97       0.1163
     66  CD        -5.0360  -52.8510  -24.0620 C.2    97  GLU97       0.3649
     67  OE1       -5.3450  -53.9090  -23.4780 O.co2  97  GLU97      -0.2457
     68  OE2       -3.9670  -52.2450  -23.8480 O.co2  97  GLU97      -0.2457
     69  N         -8.1780  -49.4580  -25.4230 N.am   98  PRO98      -0.2716
     70  CA        -7.1480  -48.9630  -24.5080 C.3    98  PRO98       0.1536
     71  C         -7.6360  -47.9690  -23.4520 C.2    98  PRO98       0.2598
     72  O         -6.8450  -47.1250  -23.0260 O.2    98  PRO98      -0.2715
     73  CB        -6.1730  -48.2730  -25.4570 C.3    98  PRO98       0.0310
     74  CG        -7.0720  -47.6870  -26.5060 C.3    98  PRO98       0.0237
     75  CD        -8.2840  -48.6020  -26.6190 C.3    98  PRO98       0.0939
     76  N         -8.8980  -48.0460  -23.0420 N.am   99  ALA99      -0.1978
     77  CA        -9.3540  -47.2350  -21.9180 C.3    99  ALA99       0.1597
     78  C         -8.6290  -47.7200  -20.6720 C.2    99  ALA99       0.2287
     79  O         -8.3020  -46.9420  -19.7760 O.2    99  ALA99      -0.2864
     80  CB       -10.8570  -47.3240  -21.7460 C.3    99  ALA99       0.0319
     81  N         -5.3960  -45.4880  -19.0130 N.3   111  TRP111     -0.1227
     82  CA        -5.0830  -44.4700  -20.0100 C.3   111  TRP111      0.1737
     83  C         -6.2070  -43.4460  -20.1370 C.2   111  TRP111      0.2595
     84  O         -5.9510  -42.2790  -20.4270 O.2   111  TRP111     -0.2718
     85  CB        -4.7990  -45.1160  -21.3700 C.3   111  TRP111      0.0564
     86  CG        -4.6630  -44.1320  -22.5040 C.ar  111  TRP111      0.0003
     87  CD1       -5.4400  -44.0630  -23.6220 C.ar  111  TRP111      0.0946
     88  CD2       -3.6940  -43.0780  -22.6240 C.ar  111  TRP111      0.0152
     89  NE1       -5.0160  -43.0370  -24.4330 N.ar  111  TRP111     -0.2442
     90  CE2       -3.9470  -42.4170  -23.8430 C.ar  111  TRP111      0.0810
     91  CE3       -2.6390  -42.6330  -21.8220 C.ar  111  TRP111      0.0012
     92  CZ2       -3.1840  -41.3340  -24.2780 C.ar  111  TRP111      0.0191
     93  CZ3       -1.8810  -41.5550  -22.2570 C.ar  111  TRP111      0.0001
     94  CH2       -2.1580  -40.9200  -23.4730 C.ar  111  TRP111      0.0015
     95  N         -7.4430  -43.8880  -19.9120 N.am  112  LEU112     -0.1980
     96  CA        -8.6030  -43.0040  -19.9290 C.3   112  LEU112      0.1596
     97  C         -8.4050  -41.8490  -18.9550 C.2   112  LEU112      0.2287
     98  O         -8.7280  -40.7000  -19.2580 O.2   112  LEU112     -0.2864
     99  CB        -9.8750  -43.7750  -19.5720 C.3   112  LEU112      0.0297
    100  CG       -11.1710  -43.4750  -20.3350 C.3   112  LEU112      0.0022
    101  CD1      -12.3850  -43.8530  -19.4960 C.3   112  LEU112      0.0001
    102  CD2      -11.2570  -42.0270  -20.7840 C.3   112  LEU112      0.0001
    103  N         -5.2160  -39.6340  -20.1910 N.3   115  ALA115     -0.1231
    104  CA        -5.5850  -38.9050  -21.3990 C.3   115  ALA115      0.1694
    105  C         -6.4730  -37.7110  -21.0500 C.2   115  ALA115      0.2591
    106  O         -6.3360  -36.6320  -21.6290 O.2   115  ALA115     -0.2718
    107  CB        -6.2870  -39.8220  -22.3840 C.3   115  ALA115      0.0304
    108  N         -7.3770  -37.9130  -20.0940 N.am  116  GLU116     -0.1979
    109  CA        -8.2600  -36.8460  -19.6360 C.3   116  GLU116      0.1602
    110  C         -7.4780  -35.7190  -18.9690 C.2   116  GLU116      0.2287
    111  O         -7.8060  -34.5450  -19.1450 O.2   116  GLU116     -0.2864
    112  CB        -9.3090  -37.3790  -18.6610 C.3   116  GLU116      0.0415
    113  CG       -10.2850  -36.3050  -18.1990 C.3   116  GLU116      0.1163
    114  CD       -10.8980  -36.5990  -16.8450 C.2   116  GLU116      0.3649
    115  OE1      -10.3320  -37.4260  -16.0940 O.co2 116  GLU116     -0.2457
    116  OE2      -11.9500  -35.9990  -16.5330 O.co2 116  GLU116     -0.2457
    117  N         -6.0190  -33.4820  -21.4750 N.3   119  LEU119     -0.1245
    118  CA        -6.9910  -32.6280  -22.1490 C.3   119  LEU119      0.1561
    119  C         -7.5120  -31.4970  -21.2650 C.2   119  LEU119      0.2260
    120  O         -7.7510  -30.3870  -21.7450 O.2   119  LEU119     -0.2867
    121  CB        -8.1710  -33.4660  -22.6420 C.3   119  LEU119      0.0270
    122  CG        -7.8570  -34.5550  -23.6650 C.3   119  LEU119      0.0019
    123  CD1       -9.0350  -35.5020  -23.8020 C.3   119  LEU119      0.0001
    124  CD2       -7.5090  -33.9330  -25.0040 C.3   119  LEU119      0.0001
@<TRIPOS>BOND
     1    51    50   ar
     2    51    49   ar
     3    50    48   ar
     4    75    74    1
     5    75    69    1
     6    74    73    1
     7    24    22    1
     8    63    62    2
     9     4     3    2
    10    49    47   ar
    11    48    47   ar
    12    23    21    1
    13    73    70    1
    14    69    62   am
    15    69    70    1
    16    22    21    1
    17     1     2    1
    18    62    61    1
    19     3     2    1
    20     2     5    1
    21    47    46    1
    22    65    64    1
    23    65    66    1
    24   124   122    1
    25    41    39    1
    26     7     6    1
    27    64    61    1
    28    39    38    1
    29    21    18    1
    30    70    71    1
    31    89    90   ar
    32    89    87   ar
    33    92    90   ar
    34    92    94   ar
    35    61    60    1
    36    16    14    1
    37     6     5    1
    38     6     8    1
    39    66    68   ar
    40    66    67   ar
    41    46    43    1
    42    90    88   ar
    43   123   122    1
    44   122   121    1
    45    60    54   am
    46    87    86   ar
    47    56    57    1
    48    56    53    1
    49    18    19    1
    50    18    17    1
    51    59    57   ar
    52    94    93   ar
    53    71    76   am
    54    71    72    2
    55    40    38    1
    56    38    35    1
    57    20    19    2
    58    57    58   ar
    59    54    55    2
    60    54    53    1
    61    35    34    1
    62    35    36    1
    63    76    77    1
    64    14    13    1
    65    19    25   am
    66   121   118    1
    67    88    86   ar
    68    88    91   ar
    69    43    42    1
    70    43    44    1
    71    53    52    1
    72    86    85    1
    73   107   104    1
    74     9    10    1
    75    93    91   ar
    76    10    13    1
    77    10    11    1
    78   118   117    1
    79   118   119    1
    80    37    36    2
    81    77    80    1
    82    77    78    1
    83    13    15    1
    84    45    44    2
    85   120   119    2
    86    25    26    1
    87   106   105    2
    88   104   105    1
    89   104   103    1
    90    85    82    1
    91    12    11    2
    92   105   108   am
    93    26    27    1
    94    26    29    1
    95   102   100    1
    96    78    79    2
    97    84    83    2
    98   100    99    1
    99   100   101    1
   100    28    27    2
   101    83    82    1
   102    83    95   am
   103   108   109    1
   104    82    81    1
   105    96    95    1
   106    96    99    1
   107    96    97    1
   108    29    30    1
   109   109   110    1
   110   109   112    1
   111    98    97    2
   112   111   110    2
   113    30    31    1
   114   112   113    1
   115   113   114    1
   116    31    32    1
   117   114   116   ar
   118   114   115   ar
   119    33    32    1
