@<TRIPOS>MOLECULE
tmp/4yziA04.pdb
 100 99 0 0 0
SMALL
GASTEIGER

@<TRIPOS>ATOM
      1  N          7.2510  -50.4920  -13.6310 N.3   163  LYS163     -0.1231
      2  CA         7.2380  -51.2820  -12.4030 C.3   163  LYS163      0.1693
      3  C          8.5110  -51.0170  -11.6100 C.2   163  LYS163      0.2592
      4  O          9.4550  -50.4300  -12.1280 O.2   163  LYS163     -0.2718
      5  CB         7.1150  -52.7790  -12.7080 C.3   163  LYS163      0.0285
      6  CG         5.7820  -53.2090  -13.2990 C.3   163  LYS163      0.0035
      7  CD         5.7270  -54.7240  -13.4690 C.3   163  LYS163      0.0206
      8  CE         4.8310  -55.3810  -12.4240 C.3   163  LYS163      0.1093
      9  NZ         3.3880  -55.0550  -12.6350 N.3   163  LYS163     -0.1314
     10  N          8.5330  -51.4470  -10.3550 N.am  164  GLY164     -0.1957
     11  CA         9.7380  -51.3760   -9.5490 C.3   164  GLY164      0.1869
     12  C         10.3650  -50.0000   -9.4130 C.2   164  GLY164      0.2309
     13  O          9.6990  -49.0330   -9.0440 O.2   164  GLY164     -0.2863
     14  N          9.5910  -47.1140  -12.1840 N.3   167  ARG167     -0.1231
     15  CA         8.3500  -46.4640  -11.7800 C.3   167  ARG167      0.1694
     16  C          8.6200  -45.3830  -10.7330 C.2   167  ARG167      0.2591
     17  O          8.0270  -44.3070  -10.7750 O.2   167  ARG167     -0.2718
     18  CB         7.3530  -47.4920  -11.2360 C.3   167  ARG167      0.0321
     19  CG         6.2190  -46.8820  -10.4240 C.3   167  ARG167      0.0489
     20  CD         5.2030  -47.9250  -10.0030 C.3   167  ARG167      0.2205
     21  NE         4.3660  -48.3560  -11.1180 N.pl3 167  ARG167     -0.0865
     22  CZ         3.4110  -49.2750  -11.0210 C.cat 167  ARG167      0.5346
     23  NH1        3.1730  -49.8640   -9.8570 N.pl3 167  ARG167      0.1354
     24  NH2        2.6950  -49.6090  -12.0870 N.pl3 167  ARG167      0.1354
     25  N          9.5230  -45.6730   -9.8010 N.am  168  VAL168     -0.1980
     26  CA         9.8740  -44.7270   -8.7480 C.3   168  VAL168      0.1595
     27  C         10.5680  -43.4960   -9.3280 C.2   168  VAL168      0.2287
     28  O         10.2550  -42.3650   -8.9550 O.2   168  VAL168     -0.2864
     29  CB        10.7860  -45.3770   -7.6820 C.3   168  VAL168      0.0276
     30  CG1       11.1970  -44.3590   -6.6330 C.3   168  VAL168      0.0022
     31  CG2       10.0840  -46.5500   -7.0310 C.3   168  VAL168      0.0022
     32  N          8.1500  -41.3100  -11.1150 N.3   171  PHE171     -0.1227
     33  CA         7.2370  -40.7140  -10.1480 C.3   171  PHE171      0.1736
     34  C          7.8910  -39.4900   -9.5250 C.2   171  PHE171      0.2595
     35  O          7.2690  -38.4340   -9.3910 O.2   171  PHE171     -0.2718
     36  CB         6.8480  -41.7110   -9.0560 C.3   171  PHE171      0.0547
     37  CG         5.9210  -41.1360   -8.0200 C.ar  171  PHE171     -0.0202
     38  CD1        6.4210  -40.5570   -6.8630 C.ar  171  PHE171     -0.0042
     39  CD2        4.5490  -41.1620   -8.2100 C.ar  171  PHE171     -0.0042
     40  CE1        5.5680  -40.0180   -5.9130 C.ar  171  PHE171     -0.0003
     41  CE2        3.6910  -40.6290   -7.2640 C.ar  171  PHE171     -0.0003
     42  CZ         4.2010  -40.0550   -6.1150 C.ar  171  PHE171     -0.0000
     43  N          9.1530  -39.6520   -9.1430 N.am  172  LEU172     -0.1980
     44  CA         9.9130  -38.5850   -8.5110 C.3   172  LEU172      0.1596
     45  C         10.1610  -37.4410   -9.4790 C.2   172  LEU172      0.2287
     46  O         10.2750  -36.2860   -9.0700 O.2   172  LEU172     -0.2864
     47  CB        11.2400  -39.1220   -7.9750 C.3   172  LEU172      0.0297
     48  CG        11.1140  -40.0660   -6.7780 C.3   172  LEU172      0.0022
     49  CD1       12.4790  -40.5920   -6.3630 C.3   172  LEU172      0.0001
     50  CD2       10.4230  -39.3660   -5.6160 C.3   172  LEU172      0.0001
     51  N         -2.1810  -42.0460   -6.3540 N.3   223  PHE223     -0.1227
     52  CA        -1.2450  -42.7990   -7.1820 C.3   223  PHE223      0.1736
     53  C         -0.4670  -43.7810   -6.3090 C.2   223  PHE223      0.2595
     54  O         -0.2970  -44.9470   -6.6630 O.2   223  PHE223     -0.2718
     55  CB        -0.2890  -41.8450   -7.9110 C.3   223  PHE223      0.0547
     56  CG         0.6030  -42.5160   -8.9270 C.ar  223  PHE223     -0.0202
     57  CD1        1.7290  -43.2290   -8.5300 C.ar  223  PHE223     -0.0042
     58  CD2        0.3330  -42.4050  -10.2830 C.ar  223  PHE223     -0.0042
     59  CE1        2.5540  -43.8370   -9.4650 C.ar  223  PHE223     -0.0003
     60  CE2        1.1550  -43.0080  -11.2230 C.ar  223  PHE223     -0.0003
     61  CZ         2.2660  -43.7250  -10.8130 C.ar  223  PHE223     -0.0000
     62  N         -0.0070  -43.2880   -5.1630 N.am  224  ILE224     -0.1980
     63  CA         0.7550  -44.0850   -4.2070 C.3   224  ILE224      0.1595
     64  C         -0.1050  -45.1820   -3.5780 C.2   224  ILE224      0.2287
     65  O          0.3800  -46.2780   -3.2950 O.2   224  ILE224     -0.2864
     66  CB         1.3480  -43.1860   -3.0970 C.3   224  ILE224      0.0276
     67  CG1        2.2730  -42.1330   -3.7070 C.3   224  ILE224      0.0022
     68  CG2        2.1080  -44.0070   -2.0700 C.3   224  ILE224      0.0022
     69  CD1        2.8900  -41.2060   -2.6870 C.3   224  ILE224      0.0001
     70  N         -3.2450  -49.2370   -7.4370 N.3   227  PRO227     -0.2102
     71  CA        -2.5590  -50.3920   -8.0250 C.3   227  PRO227      0.1504
     72  C         -1.1970  -50.0280   -8.6080 C.2   227  PRO227      0.2576
     73  O         -0.2920  -50.8620   -8.6390 O.2   227  PRO227     -0.2718
     74  CB        -3.5220  -50.8430   -9.1260 C.3   227  PRO227      0.0282
     75  CG        -4.8590  -50.4020   -8.6460 C.3   227  PRO227      0.0208
     76  CD        -4.6190  -49.0960   -7.9480 C.3   227  PRO227      0.0893
     77  N         -1.0590  -48.7860   -9.0590 N.am  228  GLU228     -0.1966
     78  CA         0.2020  -48.2960   -9.6020 C.3   228  GLU228      0.1733
     79  C          1.1600  -47.8950   -8.4850 C.2   228  GLU228      0.2617
     80  O          2.2650  -47.4220   -8.7460 O.2   228  GLU228     -0.2715
     81  CB        -0.0400  -47.1070  -10.5360 C.3   228  GLU228      0.0429
     82  CG        -1.4930  -46.9160  -10.9520 C.3   228  GLU228      0.1163
     83  CD        -2.3230  -46.2190   -9.8860 C.2   228  GLU228      0.3649
     84  OE1       -1.8160  -45.2560   -9.2700 O.co2 228  GLU228     -0.2457
     85  OE2       -3.4780  -46.6400   -9.6620 O.co2 228  GLU228     -0.2457
     86  N          0.7250  -48.0800   -7.2420 N.am  229  GLY229     -0.1940
     87  CA         1.5410  -47.7670   -6.0840 C.3   229  GLY229      0.2014
     88  C          1.7440  -48.9780   -5.1940 C.2   229  GLY229      0.2638
     89  O          2.4100  -49.9370   -5.5830 O.2   229  GLY229     -0.2714
     90  N          1.1620  -48.9410   -3.9980 N.am  230  PHE230     -0.1973
     91  CA         1.3010  -50.0430   -3.0520 C.3   230  PHE230      0.1639
     92  C          0.0040  -50.8340   -2.9030 C.2   230  PHE230      0.2290
     93  O         -0.1660  -51.5960   -1.9500 O.2   230  PHE230     -0.2864
     94  CB         1.7650  -49.5180   -1.6950 C.3   230  PHE230      0.0560
     95  CG         3.0790  -48.7950   -1.7510 C.ar  230  PHE230     -0.0200
     96  CD1        4.2560  -49.4860   -2.0000 C.ar  230  PHE230     -0.0042
     97  CD2        3.1400  -47.4230   -1.5640 C.ar  230  PHE230     -0.0042
     98  CE1        5.4690  -48.8220   -2.0590 C.ar  230  PHE230     -0.0003
     99  CE2        4.3520  -46.7520   -1.6200 C.ar  230  PHE230     -0.0003
    100  CZ         5.5160  -47.4520   -1.8680 C.ar  230  PHE230     -0.0000
@<TRIPOS>BOND
     1     1     2    1
     2     7     6    1
     3     7     8    1
     4     6     5    1
     5     5     2    1
     6     9     8    1
     7     2     3    1
     8    14    15    1
     9     4     3    2
    10    24    22    1
    11    15    18    1
    12    15    16    1
    13     3    10   am
    14    18    19    1
    15    60    61   ar
    16    60    58   ar
    17    21    22    2
    18    21    20    1
    19    32    33    1
    20    22    23    1
    21    82    81    1
    22    82    83    1
    23    61    59   ar
    24    17    16    2
    25    16    25   am
    26    81    78    1
    27    19    20    1
    28    10    11    1
    29    58    56   ar
    30    33    34    1
    31    33    36    1
    32    83    85   ar
    33    83    84   ar
    34    25    26    1
    35    78    77    1
    36    78    79    1
    37    11    12    1
    38    34    35    2
    39    34    43   am
    40    45    46    2
    41    45    44    1
    42    59    57   ar
    43    12    13    2
    44    27    28    2
    45    27    26    1
    46    43    44    1
    47    74    75    1
    48    74    71    1
    49    77    72   am
    50    36    37    1
    51    56    57   ar
    52    56    55    1
    53    26    29    1
    54    80    79    2
    55    75    76    1
    56    73    72    2
    57    72    71    1
    58    44    47    1
    59    79    86   am
    60    39    37   ar
    61    39    41   ar
    62    71    70    1
    63    37    38   ar
    64    47    48    1
    65    76    70    1
    66    55    52    1
    67    29    31    1
    68    29    30    1
    69    41    42   ar
    70    86    87    1
    71    52    51    1
    72    52    53    1
    73    38    40   ar
    74    48    49    1
    75    48    50    1
    76    54    53    2
    77    53    62   am
    78    42    40   ar
    79    87    88    1
    80    89    88    2
    81    88    90   am
    82    62    63    1
    83    63    64    1
    84    63    66    1
    85    90    91    1
    86    67    66    1
    87    67    69    1
    88    64    65    2
    89    66    68    1
    90    91    92    1
    91    91    94    1
    92    92    93    2
    93    98    96   ar
    94    98   100   ar
    95    96    95   ar
    96   100    99   ar
    97    95    94    1
    98    95    97   ar
    99    99    97   ar
