@<TRIPOS>MOLECULE
tmp/4yzlA00.pdb
 173 168 0 0 0
SMALL
GASTEIGER

@<TRIPOS>ATOM
      1  N          2.2350   81.1970   19.6210 N.3     8  VAL8       -0.1231
      2  CA         2.7770   80.6250   18.3960 C.3     8  VAL8        0.1692
      3  C          1.7590   79.7180   17.6980 C.2     8  VAL8        0.2591
      4  O          0.8580   79.1770   18.3460 O.2     8  VAL8       -0.2718
      5  CB         4.0700   79.8220   18.6940 C.3     8  VAL8        0.0266
      6  CG1        5.1670   80.7560   19.1320 C.3     8  VAL8        0.0020
      7  CG2        3.8090   78.7750   19.7810 C.3     8  VAL8        0.0020
      8  N          1.9090   79.5450   16.3850 N.am    9  ILE9       -0.1980
      9  CA         0.9470   78.7620   15.5980 C.3     9  ILE9        0.1595
     10  C          1.4540   77.3580   15.2520 C.2     9  ILE9        0.2287
     11  O          2.6600   77.0930   15.2720 O.2     9  ILE9       -0.2864
     12  CB         0.5750   79.4860   14.2930 C.3     9  ILE9        0.0276
     13  CG1        1.7870   79.5630   13.3540 C.3     9  ILE9        0.0022
     14  CG2        0.0150   80.8790   14.5970 C.3     9  ILE9        0.0022
     15  CD1        1.4680   80.1030   11.9690 C.3     9  ILE9        0.0001
     16  N          1.6210   75.8320   12.5160 N.3    11  GLU11      -0.1245
     17  CA         2.2620   75.7050   11.2070 C.3    11  GLU11       0.1567
     18  C          1.7760   74.4140   10.5550 C.2    11  GLU11       0.2260
     19  O          0.5900   74.2980   10.2530 O.2    11  GLU11      -0.2867
     20  CB         3.7890   75.7370   11.3250 C.3    11  GLU11       0.0388
     21  CG         4.3430   77.0700   11.8360 C.3    11  GLU11       0.1160
     22  CD         4.2280   78.2040   10.8160 C.2    11  GLU11       0.3649
     23  OE1        3.7070   77.9730    9.6980 O.co2  11  GLU11      -0.2457
     24  OE2        4.6750   79.3260   11.1310 O.co2  11  GLU11      -0.2457
     25  N          7.9550   70.6620   13.9560 N.3    75  TRP75      -0.1227
     26  CA         7.6820   72.0900   14.1130 C.3    75  TRP75       0.1737
     27  C          8.8990   72.9270   13.7240 C.2    75  TRP75       0.2595
     28  O          8.7920   74.1310   13.5290 O.2    75  TRP75      -0.2718
     29  CB         7.2590   72.4150   15.5550 C.3    75  TRP75       0.0564
     30  CG         6.4550   73.6780   15.6870 C.ar   75  TRP75       0.0003
     31  CD1        5.2730   73.9710   15.0590 C.ar   75  TRP75       0.0946
     32  CD2        6.7500   74.8110   16.5310 C.ar   75  TRP75       0.0152
     33  NE1        4.8230   75.2200   15.4530 N.ar   75  TRP75      -0.2442
     34  CE2        5.7120   75.7510   16.3530 C.ar   75  TRP75       0.0810
     35  CE3        7.7990   75.1240   17.4010 C.ar   75  TRP75       0.0012
     36  CZ2        5.6950   76.9750   17.0180 C.ar   75  TRP75       0.0191
     37  CZ3        7.7770   76.3260   18.0570 C.ar   75  TRP75       0.0001
     38  CH2        6.7340   77.2430   17.8630 C.ar   75  TRP75       0.0015
     39  N         10.0550   72.2840   13.6030 N.am   76  VAL76      -0.1966
     40  CA        11.2910   72.9990   13.3060 C.3    76  VAL76       0.1727
     41  C         11.2520   73.6790   11.9150 C.2    76  VAL76       0.2617
     42  O         11.9000   74.7160   11.6910 O.2    76  VAL76      -0.2715
     43  CB        12.4950   72.0550   13.4140 C.3    76  VAL76       0.0290
     44  CG1       12.4620   70.9800   12.3290 C.3    76  VAL76       0.0023
     45  CG2       13.7840   72.8400   13.3750 C.3    76  VAL76       0.0023
     46  N         10.4580   73.1200   11.0020 N.am   77  SER77      -0.1936
     47  CA        10.2410   73.7210    9.6840 C.3    77  SER77       0.2055
     48  C          8.7560   73.9810    9.4340 C.2    77  SER77       0.2642
     49  O          7.9160   73.1600    9.7870 O.2    77  SER77      -0.2714
     50  CB        10.8020   72.8130    8.5920 C.3    77  SER77       0.2130
     51  OG        10.4540   73.2970    7.3160 O.3    77  SER77      -0.2179
     52  N          8.4210   75.1060    8.8060 N.am   78  ILE78      -0.1977
     53  CA         7.0130   75.3970    8.5410 C.3    78  ILE78       0.1596
     54  C          6.3720   74.4330    7.5180 C.2    78  ILE78       0.2287
     55  O          5.1500   74.3890    7.4000 O.2    78  ILE78      -0.2864
     56  CB         6.7990   76.8520    8.0520 C.3    78  ILE78       0.0276
     57  CG1        7.4850   77.1110    6.7070 C.3    78  ILE78       0.0022
     58  CG2        7.2500   77.8480    9.1160 C.3    78  ILE78       0.0022
     59  CD1        7.1790   78.5070    6.1550 C.3    78  ILE78       0.0001
     60  N         15.4440   72.4120    9.1150 N.3    84  GLU84      -0.1245
     61  CA        15.2780   73.7820    8.6180 C.3    84  GLU84       0.1567
     62  C         16.6430   74.4450    8.4560 C.2    84  GLU84       0.2260
     63  O         17.4460   74.4380    9.3870 O.2    84  GLU84      -0.2867
     64  CB        14.4070   74.6100    9.5630 C.3    84  GLU84       0.0388
     65  CG        14.1500   76.0440    9.0810 C.3    84  GLU84       0.1160
     66  CD        13.5970   76.9460   10.1820 C.2    84  GLU84       0.3649
     67  OE1       14.2710   77.0720   11.2270 O.co2  84  GLU84      -0.2457
     68  OE2       12.4930   77.5160   10.0100 O.co2  84  GLU84      -0.2457
     69  N         18.8240   73.4330   11.6180 N.3    99  SER99      -0.1217
     70  CA        18.0990   72.9790   12.7760 C.3    99  SER99       0.1889
     71  C         17.4540   71.6440   12.4600 C.2    99  SER99       0.2288
     72  O         17.1690   71.3360   11.3030 O.2    99  SER99      -0.2866
     73  CB        17.0670   74.0110   13.2050 C.3    99  SER99       0.2089
     74  OG        17.7310   75.2190   13.5160 O.3    99  SER99      -0.2183
     75  N         16.9810   73.5500   21.5550 N.3   163  PHE163     -0.1241
     76  CA        15.7460   74.3000   21.7690 C.3   163  PHE163      0.1605
     77  C         14.7930   73.4930   22.6570 C.2   163  PHE163      0.2264
     78  O         14.5680   72.3070   22.4190 O.2   163  PHE163     -0.2867
     79  CB        15.0710   74.6140   20.4310 C.3   163  PHE163      0.0534
     80  CG        15.9690   75.3100   19.4470 C.ar  163  PHE163     -0.0203
     81  CD1       16.7040   74.5820   18.5260 C.ar  163  PHE163     -0.0042
     82  CD2       16.0700   76.6930   19.4420 C.ar  163  PHE163     -0.0042
     83  CE1       17.5350   75.2360   17.6000 C.ar  163  PHE163     -0.0003
     84  CE2       16.9010   77.3490   18.5390 C.ar  163  PHE163     -0.0003
     85  CZ        17.6320   76.6230   17.6150 C.ar  163  PHE163     -0.0000
     86  N          8.0610   81.1890   24.6720 N.3   209  ALA209     -0.1231
     87  CA         7.6530   80.1790   23.7010 C.3   209  ALA209      0.1694
     88  C          8.7570   79.1670   23.4220 C.2   209  ALA209      0.2591
     89  O          8.5040   78.0860   22.8720 O.2   209  ALA209     -0.2718
     90  CB         7.2030   80.8590   22.3860 C.3   209  ALA209      0.0304
     91  N          9.9830   79.5200   23.7830 N.am  210  ALA210     -0.1980
     92  CA        11.1080   78.6130   23.6000 C.3   210  ALA210      0.1597
     93  C         12.2910   79.0790   24.4240 C.2   210  ALA210      0.2287
     94  O         12.4620   80.2850   24.6660 O.2   210  ALA210     -0.2864
     95  CB        11.4920   78.4970   22.1190 C.3   210  ALA210      0.0319
     96  N         12.8650   83.1040   24.0100 N.3   226  TYR226     -0.1241
     97  CA        12.0780   83.6890   22.9160 C.3   226  TYR226      0.1605
     98  C         10.6950   84.0790   23.4210 C.2   226  TYR226      0.2264
     99  O          9.9300   83.2190   23.8480 O.2   226  TYR226     -0.2867
    100  CB        11.9360   82.7030   21.7440 C.3   226  TYR226      0.0534
    101  CG        13.2310   82.2920   21.0560 C.ar  226  TYR226     -0.0201
    102  CD1       13.5860   82.8250   19.8220 C.ar  226  TYR226     -0.0009
    103  CD2       14.0910   81.3570   21.6350 C.ar  226  TYR226     -0.0009
    104  CE1       14.7700   82.4360   19.1850 C.ar  226  TYR226      0.0417
    105  CE2       15.2700   80.9650   21.0080 C.ar  226  TYR226      0.0417
    106  CZ        15.6090   81.5150   19.7910 C.ar  226  TYR226      0.1957
    107  OH        16.7750   81.1260   19.1720 O.3   226  TYR226     -0.2866
    108  N          0.4990   84.9040   13.0530 N.3   269  LYS269     -0.1231
    109  CA         1.8540   84.5080   13.4440 C.3   269  LYS269      0.1678
    110  C          2.5340   85.6760   14.1530 C.2   269  LYS269      0.2434
    111  O          2.8630   86.6800   13.5240 O.2   269  LYS269     -0.2733
    112  CB         2.6370   84.0690   12.1970 C.3   269  LYS269      0.0284
    113  CG         4.0200   83.4560   12.4230 C.3   269  LYS269      0.0035
    114  CD         4.4630   82.7930   11.1240 C.3   269  LYS269      0.0206
    115  CE         5.9300   82.4550   11.1230 C.3   269  LYS269      0.1093
    116  NZ         6.2460   81.4260   10.1120 N.3   269  LYS269     -0.1314
    117  N          2.7120   85.5700   15.4780 N.am  270  PRO270     -0.2729
    118  CA         3.2570   86.7070   16.2280 C.3   270  PRO270      0.1401
    119  C          4.7360   86.9480   15.9700 C.2   270  PRO270      0.2269
    120  O          5.4970   85.9920   15.8000 O.2   270  PRO270     -0.2865
    121  CB         3.0560   86.2970   17.7010 C.3   270  PRO270      0.0296
    122  CG         2.3200   84.9950   17.6850 C.3   270  PRO270      0.0237
    123  CD         2.5370   84.3860   16.3380 C.3   270  PRO270      0.0939
    124  N          8.4430   87.8560   17.4360 N.3   272  VAL272     -0.1245
    125  CA         9.1080   87.2730   18.5890 C.3   272  VAL272      0.1561
    126  C         10.3850   88.0520   18.8840 C.2   272  VAL272      0.2260
    127  O         11.0820   88.4600   17.9490 O.2   272  VAL272     -0.2867
    128  CB         9.4290   85.7790   18.3240 C.3   272  VAL272      0.0252
    129  CG1       10.4130   85.2280   19.3400 C.3   272  VAL272      0.0019
    130  CG2        8.1510   84.9590   18.3150 C.3   272  VAL272      0.0019
    131  N         12.6440   88.8920   15.7620 N.3   289  TYR289     -0.1241
    132  CA        12.2090   87.8930   14.7930 C.3   289  TYR289      0.1605
    133  C         10.9130   88.3410   14.0930 C.2   289  TYR289      0.2264
    134  O          9.8520   88.4470   14.7090 O.2   289  TYR289     -0.2867
    135  CB        12.0350   86.5360   15.4810 C.3   289  TYR289      0.0534
    136  CG        13.3680   85.8810   15.7750 C.ar  289  TYR289     -0.0201
    137  CD1       13.7890   84.7700   15.0560 C.ar  289  TYR289     -0.0009
    138  CD2       14.2220   86.4060   16.7460 C.ar  289  TYR289     -0.0009
    139  CE1       15.0200   84.1830   15.3070 C.ar  289  TYR289      0.0417
    140  CE2       15.4670   85.8270   17.0050 C.ar  289  TYR289      0.0417
    141  CZ        15.8550   84.7220   16.2820 C.ar  289  TYR289      0.1957
    142  OH        17.0750   84.1480   16.5270 O.3   289  TYR289     -0.2866
    143  N         10.3480   81.2430    6.9580 N.3   339  ASN339     -0.1225
    144  CA         9.6310   81.1390    8.2260 C.3   339  ASN339      0.1785
    145  C          9.6490   82.4800    8.9610 C.2   339  ASN339      0.2597
    146  O          8.6010   83.0610    9.2480 O.2   339  ASN339     -0.2718
    147  CB        10.2780   80.0300    9.0630 C.3   339  ASN339      0.1169
    148  CG         9.5980   79.8020   10.4010 C.2   339  ASN339      0.2627
    149  OD1        8.4770   80.2650   10.6470 O.2   339  ASN339     -0.2716
    150  ND2       10.2760   79.0640   11.2750 N.am  339  ASN339     -0.0877
    151  N         10.8680   82.9390    9.2490 N.am  340  PHE340     -0.1976
    152  CA        11.1710   84.2050    9.9010 C.3   340  PHE340      0.1639
    153  C         12.4060   84.7900    9.2660 C.2   340  PHE340      0.2290
    154  O         13.1700   84.0740    8.6150 O.2   340  PHE340     -0.2864
    155  CB        11.4690   84.0300   11.4100 C.3   340  PHE340      0.0560
    156  CG        10.2570   84.0020   12.2840 C.ar  340  PHE340     -0.0200
    157  CD1        9.8140   85.1590   12.9090 C.ar  340  PHE340     -0.0042
    158  CD2        9.5660   82.8140   12.4970 C.ar  340  PHE340     -0.0042
    159  CE1        8.6920   85.1360   13.7240 C.ar  340  PHE340     -0.0003
    160  CE2        8.4410   82.7860   13.3100 C.ar  340  PHE340     -0.0003
    161  CZ         8.0070   83.9560   13.9280 C.ar  340  PHE340     -0.0000
    162  N         15.4440   82.0140    7.9170 N.3   354  TYR354     -0.1241
    163  CA        15.1850   80.6160    8.3020 C.3   354  TYR354      0.1605
    164  C         14.2580   79.9960    7.2600 C.2   354  TYR354      0.2264
    165  O         13.1750   80.5160    6.9820 O.2   354  TYR354     -0.2867
    166  CB        14.5890   80.5230    9.7310 C.3   354  TYR354      0.0534
    167  CG        15.4220   81.2690   10.7600 C.ar  354  TYR354     -0.0201
    168  CD1       15.3030   82.6510   10.9020 C.ar  354  TYR354     -0.0009
    169  CD2       16.3460   80.6000   11.5770 C.ar  354  TYR354     -0.0009
    170  CE1       16.0740   83.3570   11.8090 C.ar  354  TYR354      0.0417
    171  CE2       17.1250   81.3080   12.5070 C.ar  354  TYR354      0.0417
    172  CZ        16.9830   82.6890   12.6080 C.ar  354  TYR354      0.1957
    173  OH        17.7370   83.4220   13.5080 O.3   354  TYR354     -0.2866
@<TRIPOS>BOND
     1    59    57    1
     2    57    56    1
     3   143   144    1
     4   165   164    2
     5   164   163    1
     6    51    50    1
     7    55    54    2
     8    54    53    1
     9   162   163    1
    10    56    53    1
    11    56    58    1
    12   144   145    1
    13   144   147    1
    14   163   166    1
    15    62    61    1
    16    62    63    2
    17    53    52    1
    18    50    47    1
    19   154   153    2
    20    61    60    1
    21    61    64    1
    22    52    48   am
    23   145   146    2
    24   145   151   am
    25   147   148    1
    26    65    64    1
    27    65    66    1
    28   151   152    1
    29   153   152    1
    30    48    47    1
    31    48    49    2
    32    47    46    1
    33    23    22   ar
    34   166   167    1
    35   152   155    1
    36    68    66   ar
    37   116   115    1
    38    66    67   ar
    39    19    18    2
    40   148   149    2
    41   148   150   am
    42    18    17    1
    43   167   168   ar
    44   167   169   ar
    45    22    24   ar
    46    22    21    1
    47   168   170   ar
    48    46    41   am
    49   115   114    1
    50   114   113    1
    51    17    20    1
    52    17    16    1
    53    72    71    2
    54    20    21    1
    55   155   156    1
    56   169   171   ar
    57    69    70    1
    58    42    41    2
    59   170   172   ar
    60    41    40    1
    61    15    13    1
    62   112   113    1
    63   112   109    1
    64   156   158   ar
    65   156   157   ar
    66    44    43    1
    67    71    70    1
    68   158   160   ar
    69   171   172   ar
    70   172   173    1
    71    70    73    1
    72   157   159   ar
    73   108   109    1
    74    73    74    1
    75    40    43    1
    76    40    39    1
    77   160   161   ar
    78    13    12    1
    79    45    43    1
    80   109   110    1
    81   111   110    2
    82    28    27    2
    83    39    27   am
    84   159   161   ar
    85    27    26    1
    86    25    26    1
    87   133   134    2
    88   133   132    1
    89    26    29    1
    90   110   117   am
    91    12    14    1
    92    12     9    1
    93   132   135    1
    94   132   131    1
    95   137   139   ar
    96   137   136   ar
    97    31    33   ar
    98    31    30   ar
    99    10    11    2
   100    10     9    1
   101   139   141   ar
   102    33    34   ar
   103   117   118    1
   104   117   123    1
   105   135   136    1
   106    29    30    1
   107     9     8    1
   108    30    32   ar
   109   136   138   ar
   110   120   119    2
   111   119   118    1
   112   118   121    1
   113   141   142    1
   114   141   140   ar
   115   123   122    1
   116    34    32   ar
   117    34    36   ar
   118     8     3   am
   119    32    35   ar
   120   138   140   ar
   121    36    38   ar
   122    35    37   ar
   123   124   125    1
   124    83    85   ar
   125    83    81   ar
   126    85    84   ar
   127   122   121    1
   128     3     4    2
   129     3     2    1
   130    38    37   ar
   131   127   126    2
   132   130   128    1
   133   128   125    1
   134   128   129    1
   135     2     5    1
   136     2     1    1
   137    81    80   ar
   138    84    82   ar
   139   125   126    1
   140     5     6    1
   141     5     7    1
   142   107   106    1
   143   104   106   ar
   144   104   102   ar
   145    82    80   ar
   146    80    79    1
   147   106   105   ar
   148   102   101   ar
   149    79    76    1
   150   105   103   ar
   151   101   103   ar
   152   101   100    1
   153    75    76    1
   154   100    97    1
   155    76    77    1
   156    95    92    1
   157    90    87    1
   158    78    77    2
   159    89    88    2
   160    97    98    1
   161    97    96    1
   162    98    99    2
   163    88    87    1
   164    88    91   am
   165    92    91    1
   166    92    93    1
   167    87    86    1
   168    93    94    2
