@<TRIPOS>MOLECULE
tmp/4yzlA01.pdb
 153 144 0 0 0
SMALL
GASTEIGER

@<TRIPOS>ATOM
      1  N          7.9550   70.6620   13.9560 N.3    75  TRP75      -0.1227
      2  CA         7.6820   72.0900   14.1130 C.3    75  TRP75       0.1737
      3  C          8.8990   72.9270   13.7240 C.2    75  TRP75       0.2595
      4  O          8.7920   74.1310   13.5290 O.2    75  TRP75      -0.2718
      5  CB         7.2590   72.4150   15.5550 C.3    75  TRP75       0.0564
      6  CG         6.4550   73.6780   15.6870 C.ar   75  TRP75       0.0003
      7  CD1        5.2730   73.9710   15.0590 C.ar   75  TRP75       0.0946
      8  CD2        6.7500   74.8110   16.5310 C.ar   75  TRP75       0.0152
      9  NE1        4.8230   75.2200   15.4530 N.ar   75  TRP75      -0.2442
     10  CE2        5.7120   75.7510   16.3530 C.ar   75  TRP75       0.0810
     11  CE3        7.7990   75.1240   17.4010 C.ar   75  TRP75       0.0012
     12  CZ2        5.6950   76.9750   17.0180 C.ar   75  TRP75       0.0191
     13  CZ3        7.7770   76.3260   18.0570 C.ar   75  TRP75       0.0001
     14  CH2        6.7340   77.2430   17.8630 C.ar   75  TRP75       0.0015
     15  N         10.0550   72.2840   13.6030 N.am   76  VAL76      -0.1980
     16  CA        11.2910   72.9990   13.3060 C.3    76  VAL76       0.1595
     17  C         11.2520   73.6790   11.9150 C.2    76  VAL76       0.2287
     18  O         11.9000   74.7160   11.6910 O.2    76  VAL76      -0.2864
     19  CB        12.4950   72.0550   13.4140 C.3    76  VAL76       0.0276
     20  CG1       12.4620   70.9800   12.3290 C.3    76  VAL76       0.0022
     21  CG2       13.7840   72.8400   13.3750 C.3    76  VAL76       0.0022
     22  N         15.4440   72.4120    9.1150 N.3    84  GLU84      -0.1245
     23  CA        15.2780   73.7820    8.6180 C.3    84  GLU84       0.1567
     24  C         16.6430   74.4450    8.4560 C.2    84  GLU84       0.2260
     25  O         17.4460   74.4380    9.3870 O.2    84  GLU84      -0.2867
     26  CB        14.4070   74.6100    9.5630 C.3    84  GLU84       0.0388
     27  CG        14.1500   76.0440    9.0810 C.3    84  GLU84       0.1160
     28  CD        13.5970   76.9460   10.1820 C.2    84  GLU84       0.3649
     29  OE1       14.2710   77.0720   11.2270 O.co2  84  GLU84      -0.2457
     30  OE2       12.4930   77.5160   10.0100 O.co2  84  GLU84      -0.2457
     31  N         23.5790   77.3790    9.2020 N.3    97  ARG97      -0.1245
     32  CA        23.1700   76.5690   10.3270 C.3    97  ARG97       0.1563
     33  C         22.0560   75.6650    9.8440 C.2    97  ARG97       0.2260
     34  O         21.3890   75.9430    8.8420 O.2    97  ARG97      -0.2867
     35  CB        22.6990   77.4270   11.5150 C.3    97  ARG97       0.0307
     36  CG        23.6910   78.4800   12.0060 C.3    97  ARG97       0.0489
     37  CD        23.4760   79.8330   11.3170 C.3    97  ARG97       0.2205
     38  NE        22.1480   80.3980   11.6010 N.pl3  97  ARG97      -0.0865
     39  CZ        21.8600   81.1410   12.6670 C.cat  97  ARG97       0.5346
     40  NH1       20.6250   81.6140   12.8350 N.pl3  97  ARG97       0.1354
     41  NH2       22.8080   81.4070   13.5640 N.pl3  97  ARG97       0.1354
     42  N         18.8240   73.4330   11.6180 N.3    99  SER99      -0.1217
     43  CA        18.0990   72.9790   12.7760 C.3    99  SER99       0.1889
     44  C         17.4540   71.6440   12.4600 C.2    99  SER99       0.2288
     45  O         17.1690   71.3360   11.3030 O.2    99  SER99      -0.2866
     46  CB        17.0670   74.0110   13.2050 C.3    99  SER99       0.2089
     47  OG        17.7310   75.2190   13.5160 O.3    99  SER99      -0.2183
     48  N         20.2090   72.6320   16.8310 N.3   153  ALA153     -0.1245
     49  CA        20.8390   73.1820   15.6420 C.3   153  ALA153      0.1562
     50  C         22.3460   73.0030   15.7110 C.2   153  ALA153      0.2260
     51  O         22.9280   72.9740   16.7980 O.2   153  ALA153     -0.2867
     52  CB        20.4790   74.6550   15.4760 C.3   153  ALA153      0.0290
     53  N         23.3380   73.9230   19.4870 N.3   161  LYS161     -0.1245
     54  CA        22.4160   74.4410   20.5020 C.3   161  LYS161      0.1561
     55  C         21.2410   73.5200   20.6470 C.2   161  LYS161      0.2260
     56  O         20.9750   72.7020   19.7820 O.2   161  LYS161     -0.2867
     57  CB        21.8780   75.8420   20.1700 C.3   161  LYS161      0.0271
     58  CG        22.3520   76.4570   18.8820 C.3   161  LYS161      0.0035
     59  CD        21.3560   77.5140   18.3860 C.3   161  LYS161      0.0206
     60  CE        21.0070   78.5230   19.4620 C.3   161  LYS161      0.1093
     61  NZ        20.2240   79.6710   18.9040 N.3   161  LYS161     -0.1314
     62  N         16.9810   73.5500   21.5550 N.3   163  PHE163     -0.1241
     63  CA        15.7460   74.3000   21.7690 C.3   163  PHE163      0.1605
     64  C         14.7930   73.4930   22.6570 C.2   163  PHE163      0.2264
     65  O         14.5680   72.3070   22.4190 O.2   163  PHE163     -0.2867
     66  CB        15.0710   74.6140   20.4310 C.3   163  PHE163      0.0534
     67  CG        15.9690   75.3100   19.4470 C.ar  163  PHE163     -0.0203
     68  CD1       16.7040   74.5820   18.5260 C.ar  163  PHE163     -0.0042
     69  CD2       16.0700   76.6930   19.4420 C.ar  163  PHE163     -0.0042
     70  CE1       17.5350   75.2360   17.6000 C.ar  163  PHE163     -0.0003
     71  CE2       16.9010   77.3490   18.5390 C.ar  163  PHE163     -0.0003
     72  CZ        17.6320   76.6230   17.6150 C.ar  163  PHE163     -0.0000
     73  N         23.2940   77.4670   23.9530 N.3   214  ASP214     -0.1239
     74  CA        24.4750   76.9630   23.2760 C.3   214  ASP214      0.1674
     75  C         25.0910   75.8960   24.1750 C.2   214  ASP214      0.2266
     76  O         25.2080   76.0970   25.3940 O.2   214  ASP214     -0.2867
     77  CB        25.4850   78.0850   22.9920 C.3   214  ASP214      0.1410
     78  CG        24.8940   79.2380   22.1540 C.2   214  ASP214      0.3668
     79  OD1       23.8560   79.0610   21.4880 O.co2 214  ASP214     -0.2456
     80  OD2       25.4830   80.3340   22.1640 O.co2 214  ASP214     -0.2456
     81  N         25.5320   80.6450   26.5350 N.3   222  ARG222     -0.1245
     82  CA        24.5040   81.5830   26.1490 C.3   222  ARG222      0.1563
     83  C         23.1310   80.9190   26.2080 C.2   222  ARG222      0.2260
     84  O         22.9460   79.8090   25.7110 O.2   222  ARG222     -0.2867
     85  CB        24.8170   82.0950   24.7500 C.3   222  ARG222      0.0307
     86  CG        24.0310   83.2650   24.2540 C.3   222  ARG222      0.0489
     87  CD        24.2910   83.3810   22.7350 C.3   222  ARG222      0.2205
     88  NE        23.7140   84.5900   22.1630 N.pl3 222  ARG222     -0.0865
     89  CZ        22.9750   84.6150   21.0610 C.cat 222  ARG222      0.5346
     90  NH1       22.7220   83.4850   20.4030 N.pl3 222  ARG222      0.1354
     91  NH2       22.4930   85.7750   20.6210 N.pl3 222  ARG222      0.1354
     92  N         19.0230   81.6730   25.3070 N.3   224  GLN224     -0.1245
     93  CA        18.0460   82.5640   24.6970 C.3   224  GLN224      0.1566
     94  C         16.6260   82.2290   25.1170 C.2   224  GLN224      0.2260
     95  O         16.1950   81.0780   25.0370 O.2   224  GLN224     -0.2867
     96  CB        18.1570   82.5150   23.1870 C.3   224  GLN224      0.0367
     97  CG        19.4730   83.0480   22.6480 C.3   224  GLN224      0.0905
     98  CD        19.6820   82.6370   21.2090 C.2   224  GLN224      0.2608
     99  OE1       19.9360   81.4650   20.9240 O.2   224  GLN224     -0.2717
    100  NE2       19.5430   83.5900   20.2860 N.am  224  GLN224     -0.0878
    101  N         12.8650   83.1040   24.0100 N.3   226  TYR226     -0.1241
    102  CA        12.0780   83.6890   22.9160 C.3   226  TYR226      0.1605
    103  C         10.6950   84.0790   23.4210 C.2   226  TYR226      0.2264
    104  O          9.9300   83.2190   23.8480 O.2   226  TYR226     -0.2867
    105  CB        11.9360   82.7030   21.7440 C.3   226  TYR226      0.0534
    106  CG        13.2310   82.2920   21.0560 C.ar  226  TYR226     -0.0201
    107  CD1       13.5860   82.8250   19.8220 C.ar  226  TYR226     -0.0009
    108  CD2       14.0910   81.3570   21.6350 C.ar  226  TYR226     -0.0009
    109  CE1       14.7700   82.4360   19.1850 C.ar  226  TYR226      0.0417
    110  CE2       15.2700   80.9650   21.0080 C.ar  226  TYR226      0.0417
    111  CZ        15.6090   81.5150   19.7910 C.ar  226  TYR226      0.1957
    112  OH        16.7750   81.1260   19.1720 O.3   226  TYR226     -0.2866
    113  N         12.6440   88.8920   15.7620 N.3   289  TYR289     -0.1241
    114  CA        12.2090   87.8930   14.7930 C.3   289  TYR289      0.1605
    115  C         10.9130   88.3410   14.0930 C.2   289  TYR289      0.2264
    116  O          9.8520   88.4470   14.7090 O.2   289  TYR289     -0.2867
    117  CB        12.0350   86.5360   15.4810 C.3   289  TYR289      0.0534
    118  CG        13.3680   85.8810   15.7750 C.ar  289  TYR289     -0.0201
    119  CD1       13.7890   84.7700   15.0560 C.ar  289  TYR289     -0.0009
    120  CD2       14.2220   86.4060   16.7460 C.ar  289  TYR289     -0.0009
    121  CE1       15.0200   84.1830   15.3070 C.ar  289  TYR289      0.0417
    122  CE2       15.4670   85.8270   17.0050 C.ar  289  TYR289      0.0417
    123  CZ        15.8550   84.7220   16.2820 C.ar  289  TYR289      0.1957
    124  OH        17.0750   84.1480   16.5270 O.3   289  TYR289     -0.2866
    125  N         22.8520   92.4070   12.7150 N.3   350  ARG350     -0.1245
    126  CA        22.6770   90.9800   12.4850 C.3   350  ARG350      0.1563
    127  C         21.4290   90.7640   11.6540 C.2   350  ARG350      0.2260
    128  O         20.4310   91.4440   11.8500 O.2   350  ARG350     -0.2867
    129  CB        22.5690   90.2290   13.8130 C.3   350  ARG350      0.0307
    130  CG        23.8100   90.3450   14.6750 C.3   350  ARG350      0.0489
    131  CD        23.5570   89.8860   16.0770 C.3   350  ARG350      0.2205
    132  NE        24.7980   89.4840   16.7380 N.pl3 350  ARG350     -0.0865
    133  CZ        25.2850   88.2500   16.6980 C.cat 350  ARG350      0.5346
    134  NH1       24.6320   87.3000   16.0350 N.pl3 350  ARG350      0.1354
    135  NH2       26.4210   87.9650   17.3200 N.pl3 350  ARG350      0.1354
    136  N         19.3350   87.2650    9.7970 N.3   352  SER352     -0.1217
    137  CA        19.2950   85.8500    9.4750 C.3   352  SER352      0.1889
    138  C         17.9890   85.5090    8.8020 C.2   352  SER352      0.2288
    139  O         16.9790   86.1360    9.0850 O.2   352  SER352     -0.2866
    140  CB        19.4380   84.9730   10.7350 C.3   352  SER352      0.2089
    141  OG        20.6210   85.2750   11.4390 O.3   352  SER352     -0.2183
    142  N         15.4440   82.0140    7.9170 N.3   354  TYR354     -0.1241
    143  CA        15.1850   80.6160    8.3020 C.3   354  TYR354      0.1605
    144  C         14.2580   79.9960    7.2600 C.2   354  TYR354      0.2264
    145  O         13.1750   80.5160    6.9820 O.2   354  TYR354     -0.2867
    146  CB        14.5890   80.5230    9.7310 C.3   354  TYR354      0.0534
    147  CG        15.4220   81.2690   10.7600 C.ar  354  TYR354     -0.0201
    148  CD1       15.3030   82.6510   10.9020 C.ar  354  TYR354     -0.0009
    149  CD2       16.3460   80.6000   11.5770 C.ar  354  TYR354     -0.0009
    150  CE1       16.0740   83.3570   11.8090 C.ar  354  TYR354      0.0417
    151  CE2       17.1250   81.3080   12.5070 C.ar  354  TYR354      0.0417
    152  CZ        16.9830   82.6890   12.6080 C.ar  354  TYR354      0.1957
    153  OH        17.7370   83.4220   13.5080 O.3   354  TYR354     -0.2866
@<TRIPOS>BOND
     1   145   144    2
     2   144   143    1
     3   142   143    1
     4   143   146    1
     5    24    23    1
     6    24    25    2
     7    23    22    1
     8    23    26    1
     9   138   139    2
    10   138   137    1
    11    34    33    2
    12    27    26    1
    13    27    28    1
    14    31    32    1
    15   137   136    1
    16   137   140    1
    17   146   147    1
    18    33    32    1
    19    30    28   ar
    20    28    29   ar
    21    32    35    1
    22   140   141    1
    23   147   148   ar
    24   147   149   ar
    25   148   150   ar
    26    45    44    2
    27    37    38    1
    28    37    36    1
    29    35    36    1
    30   149   151   ar
    31    38    39    2
    32    42    43    1
    33   127   128    2
    34   127   126    1
    35    18    17    2
    36   150   152   ar
    37    17    16    1
    38    20    19    1
    39    44    43    1
    40   126   125    1
    41   126   129    1
    42   151   152   ar
    43   152   153    1
    44    39    40    1
    45    39    41    1
    46    43    46    1
    47    46    47    1
    48    16    19    1
    49    16    15    1
    50    21    19    1
    51     4     3    2
    52    15     3   am
    53     3     2    1
    54   129   130    1
    55     1     2    1
    56   115   116    2
    57   115   114    1
    58     2     5    1
    59   130   131    1
    60   114   117    1
    61   114   113    1
    62   119   121   ar
    63   119   118   ar
    64     7     9   ar
    65     7     6   ar
    66   121   123   ar
    67     9    10   ar
    68    52    49    1
    69   117   118    1
    70     5     6    1
    71    49    50    1
    72    49    48    1
    73     6     8   ar
    74    50    51    2
    75   118   120   ar
    76   134   133    1
    77   131   132    1
    78   123   124    1
    79   123   122   ar
    80    10     8   ar
    81    10    12   ar
    82     8    11   ar
    83   133   132    2
    84   133   135    1
    85   120   122   ar
    86    12    14   ar
    87    11    13   ar
    88    70    72   ar
    89    70    68   ar
    90    72    71   ar
    91    14    13   ar
    92    59    58    1
    93    59    60    1
    94    68    67   ar
    95    71    69   ar
    96    58    57    1
    97    61    60    1
    98   112   111    1
    99   109   111   ar
   100   109   107   ar
   101    69    67   ar
   102    67    66    1
   103    53    54    1
   104    56    55    2
   105   111   110   ar
   106   107   106   ar
   107    57    54    1
   108   100    98   am
   109    90    89    1
   110    66    63    1
   111    54    55    1
   112    91    89    1
   113    99    98    2
   114   110   108   ar
   115   106   108   ar
   116   106   105    1
   117    89    88    2
   118    98    97    1
   119    79    78   ar
   120    62    63    1
   121   105   102    1
   122    63    64    1
   123    78    80   ar
   124    78    77    1
   125    88    87    1
   126    65    64    2
   127    97    96    1
   128    87    86    1
   129   102   103    1
   130   102   101    1
   131    77    74    1
   132    96    93    1
   133    74    73    1
   134    74    75    1
   135   103   104    2
   136    75    76    2
   137    86    85    1
   138    93    94    1
   139    93    92    1
   140    85    82    1
   141    95    94    2
   142    84    83    2
   143    82    83    1
   144    82    81    1
