@<TRIPOS>MOLECULE
tmp/4yzmA00.pdb
 195 185 0 0 0
SMALL
GASTEIGER

@<TRIPOS>ATOM
      1  N        -19.1730  -21.2860  -29.6310 N.3    15  GLN15      -0.1231
      2  CA       -18.5410  -20.0260  -29.3990 C.3    15  GLN15       0.1698
      3  C        -18.6230  -19.1000  -30.5690 C.2    15  GLN15       0.2592
      4  O        -18.2040  -19.4440  -31.6360 O.2    15  GLN15      -0.2718
      5  CB       -17.1020  -20.4150  -29.1230 C.3    15  GLN15       0.0381
      6  CG       -16.0560  -19.3620  -29.3860 C.3    15  GLN15       0.0905
      7  CD       -14.6680  -19.8620  -29.1330 C.2    15  GLN15       0.2608
      8  OE1      -14.4680  -20.7480  -28.3400 O.2    15  GLN15      -0.2717
      9  NE2      -13.7060  -19.2960  -29.8110 N.am   15  GLN15      -0.0878
     10  N        -19.2110  -17.9350  -30.3660 N.am   16  ILE16      -0.1966
     11  CA       -19.3470  -16.9330  -31.4040 C.3    16  ILE16       0.1727
     12  C        -18.0740  -16.2230  -31.8240 C.2    16  ILE16       0.2617
     13  O        -17.8780  -16.0170  -32.9820 O.2    16  ILE16      -0.2715
     14  CB       -20.5450  -15.9910  -31.1150 C.3    16  ILE16       0.0290
     15  CG1      -21.7790  -16.4520  -31.8490 C.3    16  ILE16       0.0022
     16  CG2      -20.3420  -14.5660  -31.5650 C.3    16  ILE16       0.0023
     17  CD1      -22.3920  -17.7080  -31.3350 C.3    16  ILE16       0.0001
     18  N        -17.2530  -15.7950  -30.8910 N.am   17  GLY17      -0.1940
     19  CA       -16.0520  -15.0860  -31.2540 C.3    17  GLY17       0.2014
     20  C        -15.7930  -14.0340  -30.2320 C.2    17  GLY17       0.2639
     21  O        -16.4560  -14.0170  -29.2610 O.2    17  GLY17      -0.2714
     22  N        -14.8490  -13.1430  -30.4580 N.am   18  LYS18      -0.1963
     23  CA       -14.5390  -12.1050  -29.4920 C.3    18  LYS18       0.1728
     24  C        -15.2460  -10.7860  -29.6900 C.2    18  LYS18       0.2617
     25  O        -15.2110  -10.2370  -30.7440 O.2    18  LYS18      -0.2715
     26  CB       -13.0570  -11.8340  -29.4930 C.3    18  LYS18       0.0311
     27  CG       -12.5760  -10.9980  -30.6430 C.3    18  LYS18       0.0038
     28  CD       -11.4920  -10.0380  -30.2230 C.3    18  LYS18       0.0206
     29  CE       -11.7720   -9.3520  -28.9120 C.3    18  LYS18       0.1093
     30  NZ       -10.7330   -8.3300  -28.6530 N.3    18  LYS18      -0.1314
     31  N        -15.8770  -10.2810  -28.6630 N.am   19  GLY19      -0.1940
     32  CA       -16.5340   -9.0310  -28.7940 C.3    19  GLY19       0.2014
     33  C        -16.0200   -8.1480  -27.7320 C.2    19  GLY19       0.2639
     34  O        -16.0440   -8.5130  -26.5920 O.2    19  GLY19      -0.2714
     35  N        -15.5750   -6.9820  -28.1060 N.am   20  GLY20      -0.1954
     36  CA       -15.0460   -6.1040  -27.1260 C.3    20  GLY20       0.1869
     37  C        -13.8620   -6.7560  -26.5090 C.2    20  GLY20       0.2309
     38  O        -12.9520   -7.1490  -27.1730 O.2    20  GLY20      -0.2863
     39  N        -17.3040  -14.3330  -26.7360 N.3    24  VAL24      -0.1245
     40  CA       -18.7170  -14.5390  -26.7730 C.3    24  VAL24       0.1561
     41  C        -19.0790  -15.9360  -27.1600 C.2    24  VAL24       0.2260
     42  O        -18.4850  -16.5310  -28.0110 O.2    24  VAL24      -0.2867
     43  CB       -19.3380  -13.5930  -27.7650 C.3    24  VAL24       0.0252
     44  CG1      -20.8220  -13.6560  -27.6780 C.3    24  VAL24       0.0019
     45  CG2      -18.8880  -12.2090  -27.4610 C.3    24  VAL24       0.0019
     46  N        -22.5610  -18.6440  -27.6380 N.3    26  LYS26      -0.1245
     47  CA       -23.9840  -18.6860  -27.8710 C.3    26  LYS26       0.1561
     48  C        -24.5450  -19.6720  -26.8720 C.2    26  LYS26       0.2260
     49  O        -23.9940  -20.7160  -26.6860 O.2    26  LYS26      -0.2867
     50  CB       -24.2810  -19.1590  -29.2660 C.3    26  LYS26       0.0271
     51  CG       -25.7480  -19.1810  -29.5680 C.3    26  LYS26       0.0035
     52  CD       -26.0520  -20.1510  -30.6730 C.3    26  LYS26       0.0206
     53  CE       -27.2830  -19.7480  -31.4440 C.3    26  LYS26       0.1093
     54  NZ       -26.9490  -19.1480  -32.7510 N.3    26  LYS26      -0.1314
     55  N        -26.3460  -14.7800  -24.9920 N.3    37  ALA37      -0.1245
     56  CA       -24.9290  -14.7180  -25.2660 C.3    37  ALA37       0.1562
     57  C        -24.2160  -14.5630  -23.9520 C.2    37  ALA37       0.2260
     58  O        -24.6950  -13.8870  -23.0830 O.2    37  ALA37      -0.2867
     59  CB       -24.6090  -13.5680  -26.1550 C.3    37  ALA37       0.0290
     60  N        -20.5460  -13.5530  -22.1620 N.3    39  LYS39      -0.1245
     61  CA       -19.2590  -12.9500  -22.3820 C.3    39  LYS39       0.1561
     62  C        -18.3350  -13.1620  -21.1970 C.2    39  LYS39       0.2260
     63  O        -18.6620  -12.8740  -20.0810 O.2    39  LYS39      -0.2867
     64  CB       -19.4170  -11.4760  -22.6660 C.3    39  LYS39       0.0271
     65  CG       -18.4640  -10.9710  -23.7110 C.3    39  LYS39       0.0035
     66  CD       -18.1960   -9.5080  -23.5550 C.3    39  LYS39       0.0206
     67  CE       -18.3150   -8.7960  -24.8790 C.3    39  LYS39       0.1093
     68  NZ       -18.8400   -7.4350  -24.6780 N.3    39  LYS39      -0.1314
     69  N        -18.3800   -2.1780  -18.8980 N.3    56  GLU56      -0.1245
     70  CA       -19.4340   -2.5490  -19.8180 C.3    56  GLU56       0.1567
     71  C        -20.6730   -2.8650  -19.0850 C.2    56  GLU56       0.2260
     72  O        -21.7200   -2.5720  -19.5350 O.2    56  GLU56      -0.2867
     73  CB       -19.0690   -3.7430  -20.6700 C.3    56  GLU56       0.0388
     74  CG       -20.2050   -4.2090  -21.5580 C.3    56  GLU56       0.1160
     75  CD       -19.7550   -4.8190  -22.8550 C.2    56  GLU56       0.3649
     76  OE1      -18.8170   -5.5980  -22.8660 O.co2  56  GLU56      -0.2457
     77  OE2      -20.3440   -4.5380  -23.8870 O.co2  56  GLU56      -0.2457
     78  N        -24.2100   -0.8040  -19.5660 N.3    60  MET60      -0.1245
     79  CA       -25.2820   -1.5340  -20.1760 C.3    60  MET60       0.1570
     80  C        -26.4490   -1.6270  -19.2590 C.2    60  MET60       0.2261
     81  O        -27.5570   -1.6610  -19.6770 O.2    60  MET60      -0.2867
     82  CB       -24.8290   -2.8900  -20.6450 C.3    60  MET60       0.0387
     83  CG       -24.3570   -2.8780  -22.0790 C.3    60  MET60       0.0595
     84  SD       -24.2110   -4.5160  -22.7190 S.3    60  MET60      -0.1393
     85  CE       -23.1610   -4.2690  -24.1000 C.3    60  MET60       0.0692
     86  N        -27.4530   -2.6690  -27.4850 N.3    69  VAL69      -0.1245
     87  CA       -27.3630   -4.0220  -27.0190 C.3    69  VAL69       0.1561
     88  C        -27.6780   -4.1330  -25.5440 C.2    69  VAL69       0.2260
     89  O        -27.2940   -3.3000  -24.7820 O.2    69  VAL69      -0.2867
     90  CB       -26.0020   -4.5840  -27.3610 C.3    69  VAL69       0.0252
     91  CG1      -25.8170   -5.9500  -26.7690 C.3    69  VAL69       0.0019
     92  CG2      -25.9080   -4.6920  -28.8450 C.3    69  VAL69       0.0019
     93  N        -25.9620  -11.7810  -22.1670 N.3    83  MET83      -0.1230
     94  CA       -26.5340  -10.6700  -22.8870 C.3    83  MET83       0.1702
     95  C        -27.1360  -11.1220  -24.1700 C.2    83  MET83       0.2592
     96  O        -27.1190  -12.2920  -24.4680 O.2    83  MET83      -0.2718
     97  CB       -25.4720   -9.6560  -23.1880 C.3    83  MET83       0.0401
     98  CG       -24.1840  -10.2560  -23.6710 C.3    83  MET83       0.0596
     99  SD       -22.8400   -9.3450  -22.9830 S.3    83  MET83      -0.1393
    100  CE       -23.2230   -7.7680  -23.6610 C.3    83  MET83       0.0692
    101  N        -27.6660  -10.1930  -24.9400 N.am   84  GLU84      -0.1966
    102  CA       -28.2700  -10.5860  -26.1780 C.3    84  GLU84       0.1733
    103  C        -27.3460  -10.9490  -27.2910 C.2    84  GLU84       0.2616
    104  O        -26.3670  -10.3010  -27.5040 O.2    84  GLU84      -0.2715
    105  CB       -29.3860   -9.6410  -26.6200 C.3    84  GLU84       0.0429
    106  CG       -29.1600   -8.1570  -26.6850 C.3    84  GLU84       0.1163
    107  CD       -30.1560   -7.5120  -27.6040 C.2    84  GLU84       0.3649
    108  OE1      -30.6110   -8.1690  -28.5180 O.co2  84  GLU84      -0.2457
    109  OE2      -30.5140   -6.3700  -27.4370 O.co2  84  GLU84      -0.2457
    110  N        -27.6820  -11.9980  -28.0120 N.am   85  LEU85      -0.1963
    111  CA       -26.8720  -12.3990  -29.1050 C.3    85  LEU85       0.1728
    112  C        -27.6270  -11.8700  -30.2450 C.2    85  LEU85       0.2616
    113  O        -28.7410  -12.2460  -30.4530 O.2    85  LEU85      -0.2715
    114  CB       -26.8360  -13.9070  -29.2180 C.3    85  LEU85       0.0311
    115  CG       -25.8560  -14.5780  -30.1740 C.3    85  LEU85       0.0022
    116  CD1      -24.4820  -14.7250  -29.6090 C.3    85  LEU85       0.0001
    117  CD2      -26.3500  -15.9180  -30.5970 C.3    85  LEU85       0.0001
    118  N        -27.0260  -10.9690  -30.9810 N.am   86  VAL86      -0.1964
    119  CA       -27.6920  -10.4270  -32.1140 C.3    86  VAL86       0.1712
    120  C        -27.5480  -11.4670  -33.1590 C.2    86  VAL86       0.2458
    121  O        -26.5040  -11.9990  -33.3580 O.2    86  VAL86      -0.2730
    122  CB       -27.0890   -9.1230  -32.5340 C.3    86  VAL86       0.0289
    123  CG1      -27.7650   -8.6680  -33.7830 C.3    86  VAL86       0.0023
    124  CG2      -27.3330   -8.1170  -31.4520 C.3    86  VAL86       0.0023
    125  N        -28.6240  -11.8250  -33.7970 N.am   87  PRO87      -0.2716
    126  CA       -28.6450  -12.9050  -34.7660 C.3    87  PRO87       0.1536
    127  C        -27.9130  -12.8640  -36.0650 C.2    87  PRO87       0.2599
    128  O        -27.3850  -13.8600  -36.4830 O.2    87  PRO87      -0.2715
    129  CB       -30.1060  -13.0470  -35.0470 C.3    87  PRO87       0.0310
    130  CG       -30.6580  -11.7250  -34.8200 C.3    87  PRO87       0.0237
    131  CD       -29.8660  -11.0670  -33.7830 C.3    87  PRO87       0.0939
    132  N        -27.9140  -11.7300  -36.7120 N.am   88  CYS88      -0.1954
    133  CA       -27.3460  -11.5990  -38.0220 C.3    88  CYS88       0.1843
    134  C        -25.9230  -11.2170  -38.2030 C.2    88  CYS88       0.2626
    135  O        -25.4840  -11.1170  -39.3180 O.2    88  CYS88      -0.2714
    136  CB       -28.1920  -10.6710  -38.8440 C.3    88  CYS88       0.0997
    137  SG       -29.6390  -11.4000  -39.5470 S.3    88  CYS88      -0.0797
    138  N        -25.1850  -11.0130  -37.1500 N.am   89  GLY89      -0.1940
    139  CA       -23.8050  -10.6760  -37.3460 C.3    89  GLY89       0.2014
    140  C        -23.3820   -9.2850  -37.0870 C.2    89  GLY89       0.2638
    141  O        -24.0760   -8.5450  -36.4920 O.2    89  GLY89      -0.2714
    142  N        -22.2130   -8.9500  -37.5730 N.am   90  ASP90      -0.1971
    143  CA       -21.6600   -7.6480  -37.3940 C.3    90  ASP90       0.1709
    144  C        -21.5470   -6.9980  -38.7170 C.2    90  ASP90       0.2293
    145  O        -21.4910   -7.6300  -39.7190 O.2    90  ASP90      -0.2864
    146  CB       -20.3300   -7.6950  -36.6500 C.3    90  ASP90       0.1436
    147  CG       -19.1920   -8.2060  -37.4730 C.2    90  ASP90       0.3671
    148  OD1      -18.9260   -9.3920  -37.4850 O.co2  90  ASP90      -0.2456
    149  OD2      -18.4970   -7.4080  -38.0580 O.co2  90  ASP90      -0.2456
    150  N        -18.2700   -7.7460  -41.3010 N.3    93  HIS93      -0.1241
    151  CA       -18.3270   -8.9060  -42.1210 C.3    93  HIS93       0.1621
    152  C        -19.3170   -8.8890  -43.2190 C.2    93  HIS93       0.2264
    153  O        -19.0890   -9.4390  -44.2630 O.2    93  HIS93      -0.2867
    154  CB       -18.4860  -10.1250  -41.2540 C.3    93  HIS93       0.0745
    155  CG       -17.3170  -10.3720  -40.3580 C.ar   93  HIS93       0.0817
    156  ND1      -16.2440  -11.0280  -40.7490 N.ar   93  HIS93      -0.2268
    157  CD2      -17.0990  -10.0220  -39.0670 C.ar   93  HIS93       0.1154
    158  CE1      -15.3780  -11.0890  -39.7640 C.ar   93  HIS93       0.1986
    159  NE2      -15.8960  -10.4660  -38.7360 N.ar   93  HIS93      -0.2212
    160  N        -16.9990   -3.2460  -36.7240 N.3   136  PRO136     -0.2102
    161  CA       -17.0390   -4.4850  -35.9950 C.3   136  PRO136      0.1504
    162  C        -17.9320   -4.4240  -34.8080 C.2   136  PRO136      0.2575
    163  O        -18.3670   -5.4320  -34.3460 O.2   136  PRO136     -0.2718
    164  CB       -15.6110   -4.6370  -35.5640 C.3   136  PRO136      0.0282
    165  CG       -14.8420   -3.9340  -36.5910 C.3   136  PRO136      0.0208
    166  CD       -15.7360   -3.1540  -37.4450 C.3   136  PRO136      0.0893
    167  N        -18.1920   -3.2340  -34.3230 N.am  137  ASN137     -0.1975
    168  CA       -19.0110   -3.0150  -33.1560 C.3   137  ASN137      0.1688
    169  C        -20.4700   -2.7440  -33.4260 C.2   137  ASN137      0.2292
    170  O        -21.2010   -2.5140  -32.5210 O.2   137  ASN137     -0.2864
    171  CB       -18.4630   -1.8340  -32.3930 C.3   137  ASN137      0.1181
    172  CG       -17.1760   -2.1220  -31.6980 C.2   137  ASN137      0.2629
    173  OD1      -16.8920   -3.2220  -31.3520 O.2   137  ASN137     -0.2716
    174  ND2      -16.4090   -1.1040  -31.4830 N.am  137  ASN137     -0.0877
    175  N        -23.7490   -4.3300  -34.5810 N.3   139  LEU139     -0.1245
    176  CA       -24.3510   -5.6220  -34.7680 C.3   139  LEU139      0.1561
    177  C        -25.6550   -5.5610  -35.5260 C.2   139  LEU139      0.2260
    178  O        -26.4020   -4.6480  -35.3810 O.2   139  LEU139     -0.2867
    179  CB       -24.4830   -6.3200  -33.4280 C.3   139  LEU139      0.0270
    180  CG       -23.1990   -6.4430  -32.6250 C.3   139  LEU139      0.0019
    181  CD1      -23.4460   -7.2370  -31.3940 C.3   139  LEU139      0.0001
    182  CD2      -22.1510   -7.1340  -33.4190 C.3   139  LEU139      0.0001
    183  N        -22.8870   -1.7280  -29.8350 N.3   154  ALA154     -0.1231
    184  CA       -22.3060   -2.6330  -28.8850 C.3   154  ALA154      0.1694
    185  C        -20.9390   -2.2920  -28.4340 C.2   154  ALA154      0.2592
    186  O        -20.3970   -1.3280  -28.8200 O.2   154  ALA154     -0.2718
    187  CB       -22.3110   -4.0080  -29.4550 C.3   154  ALA154      0.0304
    188  N        -20.3970   -3.1470  -27.5960 N.am  155  ASP155     -0.1974
    189  CA       -19.0880   -3.0060  -26.9650 C.3   155  ASP155      0.1709
    190  C        -18.5800   -1.9640  -26.0170 C.2   155  ASP155      0.2293
    191  O        -17.5680   -1.3680  -26.1910 O.2   155  ASP155     -0.2864
    192  CB       -17.9330   -3.7000  -27.6850 C.3   155  ASP155      0.1436
    193  CG       -16.8880   -2.7920  -28.1790 C.2   155  ASP155      0.3671
    194  OD1      -15.9700   -2.4410  -27.4380 O.co2 155  ASP155     -0.2456
    195  OD2      -16.9140   -2.5410  -29.3920 O.co2 155  ASP155     -0.2456
@<TRIPOS>BOND
     1   153   152    2
     2   152   151    1
     3   151   150    1
     4   151   154    1
     5   154   155    1
     6   156   155   ar
     7   156   158   ar
     8   155   157   ar
     9   158   159   ar
    10   145   144    2
    11   137   136    1
    12   135   134    2
    13   157   159   ar
    14   136   133    1
    15   144   143    1
    16   134   133    1
    17   134   138   am
    18   149   147   ar
    19   133   132    1
    20   142   143    1
    21   142   140   am
    22   148   147   ar
    23   147   146    1
    24   166   160    1
    25   166   165    1
    26   143   146    1
    27   139   138    1
    28   139   140    1
    29   140   141    2
    30   160   161    1
    31   132   127   am
    32   165   164    1
    33   128   127    2
    34   127   126    1
    35   161   164    1
    36   161   162    1
    37   177   178    2
    38   177   176    1
    39   129   130    1
    40   129   126    1
    41   130   131    1
    42   162   163    2
    43   162   167   am
    44   176   175    1
    45   176   179    1
    46   126   125    1
    47   167   168    1
    48   125   131    1
    49   125   120   am
    50   123   122    1
    51   179   180    1
    52   169   168    1
    53   169   170    2
    54   182   180    1
    55   121   120    2
    56   120   119    1
    57   168   171    1
    58    13    12    2
    59    54    53    1
    60   180   181    1
    61   122   119    1
    62   122   124    1
    63   171   172    1
    64   119   118    1
    65    15    17    1
    66    15    14    1
    67    12    11    1
    68    12    18   am
    69   172   174   am
    70   172   173    2
    71     4     3    2
    72    16    14    1
    73    53    52    1
    74    11    14    1
    75    11    10    1
    76    19    18    1
    77    19    20    1
    78   118   112   am
    79    25    24    2
    80    52    51    1
    81    27    28    1
    82    27    26    1
    83   117   115    1
    84     3    10   am
    85     3     2    1
    86    22    20   am
    87    22    23    1
    88   113   112    2
    89   112   111    1
    90    20    21    2
    91    28    29    1
    92   115   116    1
    93   115   114    1
    94   183   184    1
    95     9     7   am
    96    24    23    1
    97    24    31   am
    98     1     2    1
    99    51    50    1
   100    26    23    1
   101   187   184    1
   102     2     5    1
   103   195   193   ar
   104     6     7    1
   105     6     5    1
   106    50    47    1
   107   114   111    1
   108     7     8    2
   109   111   110    1
   110    29    30    1
   111   184   185    1
   112    92    90    1
   113   186   185    2
   114    32    31    1
   115    32    33    1
   116   108   107   ar
   117   185   188   am
   118   193   192    1
   119   193   194   ar
   120    35    33   am
   121    35    36    1
   122   110   103   am
   123    42    41    2
   124    47    46    1
   125    47    48    1
   126    43    44    1
   127    43    45    1
   128    43    40    1
   129    33    34    2
   130   192   189    1
   131   107   109   ar
   132   107   106    1
   133   188   189    1
   134   104   103    2
   135    86    87    1
   136    90    87    1
   137    90    91    1
   138   103   102    1
   139    38    37    2
   140    41    40    1
   141    36    37    1
   142    87    88    1
   143   189   190    1
   144    48    49    2
   145    40    39    1
   146   106   105    1
   147   105   102    1
   148   191   190    2
   149   102   101    1
   150    59    56    1
   151    88    89    2
   152    56    55    1
   153    56    57    1
   154   101    95   am
   155    67    68    1
   156    67    66    1
   157    96    95    2
   158    95    94    1
   159    85    84    1
   160    57    58    2
   161    77    75   ar
   162    65    66    1
   163    65    64    1
   164    98    97    1
   165    98    99    1
   166   100    99    1
   167    97    94    1
   168    94    93    1
   169    76    75   ar
   170    75    74    1
   171    84    83    1
   172    64    61    1
   173    61    60    1
   174    61    62    1
   175    83    82    1
   176    74    73    1
   177    62    63    2
   178    73    70    1
   179    82    79    1
   180    79    78    1
   181    79    80    1
   182    70    71    1
   183    70    69    1
   184    81    80    2
   185    72    71    2
