@<TRIPOS>MOLECULE
tmp/4yznA00.pdb
 155 147 0 0 0
SMALL
GASTEIGER

@<TRIPOS>ATOM
      1  N         -5.8070   22.5350   13.1970 N.3    13  GLN13      -0.1231
      2  CA        -5.0120   21.3750   13.4490 C.3    13  GLN13       0.1698
      3  C         -5.1820   20.9180   14.8800 C.2    13  GLN13       0.2592
      4  O         -5.0120   21.6810   15.7840 O.2    13  GLN13      -0.2718
      5  CB        -3.5680   21.6460   13.1740 C.3    13  GLN13       0.0381
      6  CG        -2.7110   20.4590   13.4770 C.3    13  GLN13       0.0905
      7  CD        -1.2960   20.7180   13.1670 C.2    13  GLN13       0.2608
      8  OE1       -0.9820   21.4210   12.2350 O.2    13  GLN13      -0.2717
      9  NE2       -0.4260   20.1440   13.9510 N.am   13  GLN13      -0.0878
     10  N         -5.5390   19.6550   15.0610 N.am   14  ILE14      -0.1966
     11  CA        -5.7480   19.1070   16.3860 C.3    14  ILE14       0.1730
     12  C         -4.7140   18.0820   16.8390 C.2    14  ILE14       0.2656
     13  O         -4.6700   17.7440   17.9800 O.2    14  ILE14      -0.2711
     14  CB        -7.1750   18.5240   16.5360 C.3    14  ILE14       0.0290
     15  CG1       -7.4670   17.4880   15.4620 C.3    14  ILE14       0.0022
     16  CG2       -8.2110   19.6200   16.5310 C.3    14  ILE14       0.0023
     17  CD1       -8.8390   16.8680   15.5230 C.3    14  ILE14       0.0001
     18  N         -3.9130   17.5910   15.9410 N.am   15  GLY15      -0.1716
     19  CA        -2.9390   16.6280   16.3250 C.2    15  GLY15       0.1480
     20  C         -1.9390   16.2790   15.2900 C.2    15  GLY15       0.2820
     21  O         -1.9520   16.8060   14.2420 O.2    15  GLY15      -0.2669
     22  N         -1.0810   15.3440   15.6560 N.am   16  LYS16      -0.1943
     23  CA        -0.0840   14.7680   14.8150 C.3    16  LYS16       0.1599
     24  C         -0.0960   13.2680   15.0490 C.2    16  LYS16       0.2287
     25  O         -0.6220   12.7670   16.0310 O.2    16  LYS16      -0.2864
     26  CB         1.2860   15.3100   15.0510 C.3    16  LYS16       0.0298
     27  CG         1.9460   14.7960   16.3070 C.3    16  LYS16       0.0038
     28  CD         2.9410   15.8170   16.8360 C.3    16  LYS16       0.0206
     29  CE         3.5790   15.3860   18.1410 C.3    16  LYS16       0.1093
     30  NZ         4.9350   15.9730   18.2480 N.3    16  LYS16      -0.1314
     31  N         -3.2260   15.8350   11.8160 N.3    22  VAL22      -0.1245
     32  CA        -4.6540   15.6500   12.0420 C.3    22  VAL22       0.1561
     33  C         -5.3590   16.9990   12.2100 C.2    22  VAL22       0.2260
     34  O         -4.9840   17.7640   13.0280 O.2    22  VAL22      -0.2867
     35  CB        -4.9820   14.7540   13.2510 C.3    22  VAL22       0.0252
     36  CG1       -6.4520   14.4840   13.3630 C.3    22  VAL22       0.0019
     37  CG2       -4.1810   13.4940   13.2180 C.3    22  VAL22       0.0019
     38  N         -9.3030   19.2350   12.3270 N.3    24  LYS24      -0.1245
     39  CA       -10.7110   19.2500   12.5570 C.3    24  LYS24       0.1561
     40  C        -11.2700   19.9700   11.3260 C.2    24  LYS24       0.2260
     41  O        -10.7170   20.9340   10.9270 O.2    24  LYS24      -0.2867
     42  CB       -11.0300   20.0860   13.7770 C.3    24  LYS24       0.0271
     43  CG       -12.5150   20.1880   14.0580 C.3    24  LYS24       0.0035
     44  CD       -12.8460   21.2890   15.0180 C.3    24  LYS24       0.0206
     45  CE       -14.2830   21.2190   15.5070 C.3    24  LYS24       0.1093
     46  NZ       -15.3310   21.0960   14.4620 N.3    24  LYS24      -0.1314
     47  N        -12.6710   14.7560   11.1160 N.3    35  ALA35      -0.1245
     48  CA       -11.2550   14.7540   11.3940 C.3    35  ALA35       0.1562
     49  C        -10.5620   14.2410   10.1770 C.2    35  ALA35       0.2260
     50  O        -11.0050   13.3030    9.5800 O.2    35  ALA35      -0.2867
     51  CB       -10.9130   13.8350   12.5710 C.3    35  ALA35       0.0290
     52  N         -6.9010   12.8980    8.5630 N.3    37  LYS37      -0.1245
     53  CA        -5.5530   12.4640    8.7660 C.3    37  LYS37       0.1561
     54  C         -4.7960   12.4060    7.4680 C.2    37  LYS37       0.2260
     55  O         -5.1500   11.6760    6.6010 O.2    37  LYS37      -0.2867
     56  CB        -5.4950   11.0640    9.3330 C.3    37  LYS37       0.0271
     57  CG        -6.1500   10.9290   10.6630 C.3    37  LYS37       0.0035
     58  CD        -5.9630    9.5420   11.2010 C.3    37  LYS37       0.0206
     59  CE        -4.6540    9.3600   11.8860 C.3    37  LYS37       0.1093
     60  NZ        -4.6840    8.1120   12.7070 N.3    37  LYS37      -0.1314
     61  N        -13.6050    4.5890   16.1220 N.3    68  VAL68      -0.1245
     62  CA       -13.7080    5.7350   15.2840 C.3    68  VAL68       0.1561
     63  C        -14.0340    5.2430   13.8760 C.2    68  VAL68       0.2260
     64  O        -13.4450    4.3610   13.4210 O.2    68  VAL68      -0.2867
     65  CB       -12.3900    6.4860   15.2780 C.3    68  VAL68       0.0252
     66  CG1      -12.3850    7.5510   14.1950 C.3    68  VAL68       0.0019
     67  CG2      -12.1300    7.0840   16.6320 C.3    68  VAL68       0.0019
     68  N        -12.4160   10.9290    8.8630 N.3    82  MET82      -0.1230
     69  CA       -12.9500   10.1840    9.9620 C.3    82  MET82       0.1702
     70  C        -13.8090   10.9640   10.8870 C.2    82  MET82       0.2592
     71  O        -13.9480   12.1400   10.8190 O.2    82  MET82      -0.2718
     72  CB       -11.7930    9.6760   10.8050 C.3    82  MET82       0.0401
     73  CG       -10.9230    8.6280   10.2230 C.3    82  MET82       0.0596
     74  SD        -9.5990    8.4680   11.4290 S.3    82  MET82      -0.1393
     75  CE        -8.5490    7.4300   10.5010 C.3    82  MET82       0.0692
     76  N        -14.3730   10.2230   11.8050 N.am   83  GLU83      -0.1966
     77  CA       -15.2010   10.7370   12.8050 C.3    83  GLU83       0.1733
     78  C        -14.4090   11.6890   13.6960 C.2    83  GLU83       0.2616
     79  O        -13.3200   11.3950   14.0520 O.2    83  GLU83      -0.2715
     80  CB       -15.6320    9.5270   13.6070 C.3    83  GLU83       0.0429
     81  CG       -16.7460    9.7410   14.5550 C.3    83  GLU83       0.1163
     82  CD       -17.2800    8.4510   15.1600 C.2    83  GLU83       0.3649
     83  OE1      -18.2710    8.5760   15.8070 O.co2  83  GLU83      -0.2457
     84  OE2      -16.7400    7.3870   15.0270 O.co2  83  GLU83      -0.2457
     85  N        -15.0080   12.8060   14.0560 N.am   84  LEU84      -0.1963
     86  CA       -14.3920   13.7550   14.9300 C.3    84  LEU84       0.1728
     87  C        -14.9240   13.5140   16.3620 C.2    84  LEU84       0.2616
     88  O        -16.0800   13.6140   16.6090 O.2    84  LEU84      -0.2715
     89  CB       -14.6870   15.2000   14.5050 C.3    84  LEU84       0.0311
     90  CG       -14.1100   16.2620   15.4290 C.3    84  LEU84       0.0022
     91  CD1      -12.6640   16.5450   15.1950 C.3    84  LEU84       0.0001
     92  CD2      -14.9040   17.5170   15.4370 C.3    84  LEU84       0.0001
     93  N        -14.0170   13.1920   17.2800 N.am   85  VAL85      -0.1964
     94  CA       -14.3550   12.9060   18.6550 C.3    85  VAL85       0.1712
     95  C        -13.9720   14.1180   19.4760 C.2    85  VAL85       0.2458
     96  O        -12.8650   14.3520   19.7690 O.2    85  VAL85      -0.2730
     97  CB       -13.6190   11.6250   19.0780 C.3    85  VAL85       0.0289
     98  CG1      -14.2220   11.0490   20.3210 C.3    85  VAL85       0.0023
     99  CG2      -13.7570   10.5840   18.0130 C.3    85  VAL85       0.0023
    100  N        -14.9530   14.9320   19.8110 N.am   86  PRO86      -0.2716
    101  CA       -14.7380   16.2560   20.3760 C.3    86  PRO86       0.1536
    102  C        -14.1060   16.5280   21.7140 C.2    86  PRO86       0.2599
    103  O        -13.6490   17.6250   21.9050 O.2    86  PRO86      -0.2715
    104  CB       -16.1250   16.9020   20.2770 C.3    86  PRO86       0.0310
    105  CG       -17.0270   15.7990   20.4220 C.3    86  PRO86       0.0237
    106  CD       -16.3550   14.5550   19.9350 C.3    86  PRO86       0.0939
    107  N        -14.0870   15.5780   22.6120 N.am   87  CYS87      -0.1954
    108  CA       -13.5170   15.8340   23.9050 C.3    87  CYS87       0.1843
    109  C        -12.0450   15.4610   24.0340 C.2    87  CYS87       0.2626
    110  O        -11.5060   15.4880   25.0810 O.2    87  CYS87      -0.2714
    111  CB       -14.3660   15.2610   25.0140 C.3    87  CYS87       0.0997
    112  SG       -16.0250   15.9890   25.1290 S.3    87  CYS87      -0.0797
    113  N        -11.4380   15.1290   22.9240 N.am   88  GLY88      -0.1940
    114  CA       -10.0420   14.7920   22.8640 C.3    88  GLY88       0.2014
    115  C         -9.6630   13.4120   23.3370 C.2    88  GLY88       0.2638
    116  O        -10.4360   12.5570   23.3380 O.2    88  GLY88      -0.2714
    117  N         -8.4180   13.2550   23.7360 N.am   89  ASP89      -0.1971
    118  CA        -7.9030   11.9800   24.1730 C.3    89  ASP89       0.1709
    119  C         -7.8330   11.7800   25.6770 C.2    89  ASP89       0.2293
    120  O         -7.7450   12.6630   26.4050 O.2    89  ASP89      -0.2864
    121  CB        -6.5490   11.7250   23.5570 C.3    89  ASP89       0.1436
    122  CG        -5.4920   12.5990   24.1340 C.2    89  ASP89       0.3671
    123  OD1       -5.3490   13.7000   23.6640 O.co2  89  ASP89      -0.2456
    124  OD2       -4.8560   12.1720   25.0410 O.co2  89  ASP89      -0.2456
    125  N         -4.5980   13.0650   27.8330 N.3    92  HIS92      -0.1241
    126  CA        -4.6310   14.4510   28.2710 C.3    92  HIS92       0.1621
    127  C         -5.6890   14.7680   29.3410 C.2    92  HIS92       0.2264
    128  O         -5.4770   15.5530   30.2090 O.2    92  HIS92      -0.2867
    129  CB        -4.7130   15.4410   27.1060 C.3    92  HIS92       0.0745
    130  CG        -3.5310   15.4020   26.1930 C.ar   92  HIS92       0.0817
    131  ND1       -2.3280   15.9750   26.5110 N.ar   92  HIS92      -0.2268
    132  CD2       -3.3820   14.8840   24.9630 C.ar   92  HIS92       0.1154
    133  CE1       -1.4690   15.7510   25.5410 C.ar   92  HIS92       0.1986
    134  NE2       -2.0860   15.1030   24.5850 N.ar   92  HIS92      -0.2212
    135  N        -10.1440    8.0520   22.4420 N.3   138  LEU138     -0.1245
    136  CA       -10.7140    9.3540   22.2840 C.3   138  LEU138      0.1561
    137  C        -12.0330    9.4680   23.0290 C.2   138  LEU138      0.2260
    138  O        -12.7450    8.5430   23.1440 O.2   138  LEU138     -0.2867
    139  CB       -10.8810    9.6540   20.8150 C.3   138  LEU138      0.0270
    140  CG        -9.5870    9.5460   20.0380 C.3   138  LEU138      0.0019
    141  CD1       -9.8790   10.0030   18.6320 C.3   138  LEU138      0.0001
    142  CD2       -8.4970   10.4140   20.6050 C.3   138  LEU138      0.0001
    143  N         -9.1990    4.5470   18.7000 N.3   153  ALA153     -0.1231
    144  CA        -8.6820    5.1700   17.5310 C.3   153  ALA153      0.1694
    145  C         -7.3610    4.6010   17.2050 C.2   153  ALA153      0.2592
    146  O         -6.7800    3.8490   17.9110 O.2   153  ALA153     -0.2718
    147  CB        -8.5520    6.6600   17.6980 C.3   153  ALA153      0.0304
    148  N         -6.8830    5.0090   16.0410 N.am  154  ASP154     -0.1974
    149  CA        -5.3530    4.9530   15.4610 C.3   154  ASP154      0.1709
    150  C         -4.9480    3.2980   15.2690 C.2   154  ASP154      0.2293
    151  O         -4.3170    2.6520   16.0120 O.2   154  ASP154     -0.2864
    152  CB        -4.4360    5.6530   16.4100 C.3   154  ASP154      0.1436
    153  CG        -4.9240    7.0640   16.6930 C.2   154  ASP154      0.3671
    154  OD1       -5.3960    7.6850   15.7260 O.co2 154  ASP154     -0.2456
    155  OD2       -4.9090    7.5410   17.8550 O.co2 154  ASP154     -0.2456
@<TRIPOS>BOND
     1    55    54    2
     2    54    53    1
     3    52    53    1
     4    53    56    1
     5    68    69    1
     6    56    57    1
     7    50    49    2
     8    69    72    1
     9    69    70    1
    10    49    48    1
    11    73    72    1
    12    73    74    1
    13    75    74    1
    14    57    58    1
    15    71    70    2
    16    70    76   am
    17    41    40    2
    18    47    48    1
    19    58    59    1
    20    40    39    1
    21    48    51    1
    22    76    77    1
    23    31    32    1
    24    59    60    1
    25    32    33    1
    26    32    35    1
    27    33    34    2
    28     8     7    2
    29    38    39    1
    30    39    42    1
    31    77    80    1
    32    77    78    1
    33     7     6    1
    34     7     9   am
    35     5     2    1
    36     5     6    1
    37     1     2    1
    38    37    35    1
    39    35    36    1
    40    64    63    2
    41     2     3    1
    42    80    81    1
    43    78    79    2
    44    78    85   am
    45    42    43    1
    46    63    62    1
    47    85    86    1
    48    43    44    1
    49    66    65    1
    50    21    20    2
    51    46    45    1
    52    89    86    1
    53    89    90    1
    54    81    82    1
    55    23    24    1
    56    23    26    1
    57    23    22    1
    58     3    10   am
    59     3     4    2
    60    86    87    1
    61    44    45    1
    62    84    82   ar
    63    24    25    2
    64    26    27    1
    65    10    11    1
    66    82    83   ar
    67    91    90    1
    68   150   149    1
    69   150   151    2
    70    65    62    1
    71    65    67    1
    72    62    61    1
    73    20    22   am
    74    20    19    1
    75    90    92    1
    76   149   148    1
    77   149   152    1
    78    15    17    1
    79    15    14    1
    80   154   153   ar
    81    18    19    2
    82    18    12    1
    83   148   145   am
    84    27    28    1
    85    87    88    2
    86    87    93   am
    87    11    14    1
    88    11    12    1
    89   152   153    1
    90    16    14    1
    91   153   155   ar
    92    28    29    1
    93    12    13    2
    94   145   144    1
    95   145   146    2
    96    93    94    1
    97   144   147    1
    98   144   143    1
    99    99    97    1
   100    29    30    1
   101   141   140    1
   102    94    97    1
   103    94    95    1
   104    97    98    1
   105    95    96    2
   106    95   100   am
   107   100   106    1
   108   100   101    1
   109   106   105    1
   110   140   142    1
   111   140   139    1
   112   104   101    1
   113   104   105    1
   114   101   102    1
   115   139   136    1
   116   102   103    2
   117   102   107   am
   118   136   135    1
   119   136   137    1
   120   107   108    1
   121   114   113    1
   122   114   115    1
   123   113   109   am
   124   137   138    2
   125   115   116    2
   126   115   117   am
   127   121   122    1
   128   121   118    1
   129   123   122   ar
   130   117   118    1
   131   108   109    1
   132   108   111    1
   133   109   110    2
   134   122   124   ar
   135   118   119    1
   136   134   132   ar
   137   134   133   ar
   138   132   130   ar
   139   111   112    1
   140   133   131   ar
   141   119   120    2
   142   130   131   ar
   143   130   129    1
   144   129   126    1
   145   125   126    1
   146   126   127    1
   147   127   128    2
