@<TRIPOS>MOLECULE
tmp/4yzoA00.pdb
 99 91 0 0 0
SMALL
GASTEIGER

@<TRIPOS>ATOM
      1  N        156.9110   56.7520  -51.8700 N.3     8  ILE8       -0.1245
      2  CA       157.3540   55.7950  -50.8550 C.3     8  ILE8        0.1561
      3  C        157.6680   56.5400  -49.5620 C.2     8  ILE8        0.2260
      4  O        158.1490   57.6680  -49.6190 O.2     8  ILE8       -0.2867
      5  CB       158.6020   54.9950  -51.3550 C.3     8  ILE8        0.0252
      6  CG1      158.9310   53.8390  -50.4270 C.3     8  ILE8        0.0019
      7  CG2      159.8240   55.9000  -51.5060 C.3     8  ILE8        0.0019
      8  CD1      157.9080   52.7170  -50.4390 C.3     8  ILE8        0.0001
      9  N        159.9580   53.0520  -43.8750 N.3    11  PHE11      -0.1241
     10  CA       159.1960   52.0610  -43.1360 C.3    11  PHE11       0.1605
     11  C        159.8290   52.0400  -41.7530 C.2    11  PHE11       0.2264
     12  O        161.0530   52.2710  -41.6180 O.2    11  PHE11      -0.2867
     13  CB       159.3380   50.6630  -43.7580 C.3    11  PHE11       0.0534
     14  CG       158.5450   50.4610  -45.0270 C.ar   11  PHE11      -0.0203
     15  CD1      157.9350   51.5290  -45.6790 C.ar   11  PHE11      -0.0042
     16  CD2      158.4320   49.1750  -45.5800 C.ar   11  PHE11      -0.0042
     17  CE1      157.2160   51.3440  -46.8610 C.ar   11  PHE11      -0.0003
     18  CE2      157.6960   48.9720  -46.7500 C.ar   11  PHE11      -0.0003
     19  CZ       157.1160   50.0530  -47.3990 C.ar   11  PHE11      -0.0000
     20  N        169.3360   51.1930  -48.7160 N.3   155  ASN155     -0.1240
     21  CA       167.9660   51.6450  -48.9970 C.3   155  ASN155      0.1653
     22  C        167.5290   52.6190  -47.9010 C.2   155  ASN155      0.2266
     23  O        167.2590   52.1950  -46.7800 O.2   155  ASN155     -0.2867
     24  CB       167.0310   50.4070  -48.9940 C.3   155  ASN155      0.1155
     25  CG       165.5710   50.7290  -49.3030 C.2   155  ASN155      0.2627
     26  OD1      164.7640   49.7950  -49.5540 O.2   155  ASN155     -0.2716
     27  ND2      165.2140   51.9850  -49.3280 N.am  155  ASN155     -0.0877
     28  N        164.8990   54.0260  -47.2650 N.3   157  PHE157     -0.1227
     29  CA       163.5170   53.8440  -46.8200 C.3   157  PHE157      0.1736
     30  C        163.3530   52.6060  -45.9280 C.2   157  PHE157      0.2595
     31  O        162.3010   52.4410  -45.3160 O.2   157  PHE157     -0.2718
     32  CB       162.5580   53.7940  -48.0240 C.3   157  PHE157      0.0547
     33  CG       162.7230   54.9500  -48.9640 C.ar  157  PHE157     -0.0202
     34  CD1      162.2460   56.2210  -48.6240 C.ar  157  PHE157     -0.0042
     35  CD2      163.3890   54.7740  -50.1780 C.ar  157  PHE157     -0.0042
     36  CE1      162.4290   57.2970  -49.4810 C.ar  157  PHE157     -0.0003
     37  CE2      163.5770   55.8500  -51.0450 C.ar  157  PHE157     -0.0003
     38  CZ       163.0930   57.1120  -50.6930 C.ar  157  PHE157     -0.0000
     39  N        164.3700   51.7400  -45.8500 N.am  158  ALA158     -0.1980
     40  CA       164.2430   50.4550  -45.1420 C.3   158  ALA158      0.1597
     41  C        164.1280   50.6280  -43.6370 C.2   158  ALA158      0.2287
     42  O        164.7580   51.5170  -43.0490 O.2   158  ALA158     -0.2864
     43  CB       165.4100   49.5130  -45.5020 C.3   158  ALA158      0.0319
     44  N        161.9090   40.8470  -56.7000 N.3   255  GLU255     -0.1245
     45  CA       161.5440   41.2250  -55.3350 C.3   255  GLU255      0.1567
     46  C        160.6060   40.1260  -54.8190 C.2   255  GLU255      0.2260
     47  O        159.5520   39.8820  -55.4250 O.2   255  GLU255     -0.2867
     48  CB       160.7980   42.5680  -55.3500 C.3   255  GLU255      0.0388
     49  CG       161.7420   43.7490  -55.5140 C.3   255  GLU255      0.1160
     50  CD       162.5610   44.0260  -54.2810 C.2   255  GLU255      0.3649
     51  OE1      161.9630   44.1360  -53.1780 O.co2 255  GLU255     -0.2457
     52  OE2      163.8000   44.1700  -54.3820 O.co2 255  GLU255     -0.2457
     53  N        166.1330   45.5340  -52.8470 N.3   297  SER297     -0.1217
     54  CA       165.5680   46.4920  -51.8790 C.3   297  SER297      0.1889
     55  C        166.0350   46.2200  -50.4460 C.2   297  SER297      0.2288
     56  O        165.9480   47.0970  -49.5900 O.2   297  SER297     -0.2866
     57  CB       164.0280   46.4140  -51.8850 C.3   297  SER297      0.2089
     58  OG       163.6470   45.1040  -51.4250 O.3   297  SER297     -0.2183
     59  N        163.6150   45.6070  -45.3110 N.3   303  LYS303     -0.1245
     60  CA       162.6660   46.7240  -45.5520 C.3   303  LYS303      0.1561
     61  C        161.7200   46.8530  -44.3610 C.2   303  LYS303      0.2260
     62  O        161.2700   47.9640  -44.0510 O.2   303  LYS303     -0.2867
     63  CB       161.7710   46.5030  -46.7790 C.3   303  LYS303      0.0271
     64  CG       162.4250   46.7200  -48.1290 C.3   303  LYS303      0.0035
     65  CD       161.2800   46.5660  -49.1500 C.3   303  LYS303      0.0206
     66  CE       160.9670   45.0860  -49.3280 C.3   303  LYS303      0.1093
     67  NZ       159.6570   44.9550  -50.0400 N.3   303  LYS303     -0.1314
     68  N        155.1490   48.4560  -52.4700 N.3   313  ALA313     -0.1245
     69  CA       156.5700   48.8410  -52.3520 C.3   313  ALA313      0.1562
     70  C        157.4190   48.0640  -53.3590 C.2   313  ALA313      0.2260
     71  O        158.3800   48.5870  -53.8740 O.2   313  ALA313     -0.2867
     72  CB       157.0760   48.5940  -50.9310 C.3   313  ALA313      0.0290
     73  N        157.2380   49.7520  -56.6040 N.3   316  VAL316     -0.1231
     74  CA       158.0500   50.9890  -56.5200 C.3   316  VAL316      0.1692
     75  C        159.5170   50.6350  -56.7570 C.2   316  VAL316      0.2591
     76  O        160.2190   51.3000  -57.5220 O.2   316  VAL316     -0.2718
     77  CB       157.8570   51.7090  -55.1640 C.3   316  VAL316      0.0266
     78  CG1      158.8070   52.9000  -55.0460 C.3   316  VAL316      0.0020
     79  CG2      156.4280   52.2380  -55.0680 C.3   316  VAL316      0.0020
     80  N        159.9640   49.5440  -56.1430 N.am  317  GLU317     -0.1979
     81  CA       161.3440   49.0840  -56.3790 C.3   317  GLU317      0.1602
     82  C        161.5620   48.7580  -57.8640 C.2   317  GLU317      0.2287
     83  O        162.5710   49.1810  -58.4510 O.2   317  GLU317     -0.2864
     84  CB       161.6750   47.8700  -55.5330 C.3   317  GLU317      0.0415
     85  CG       163.1340   47.4330  -55.6690 C.3   317  GLU317      0.1163
     86  CD       164.1250   48.3910  -54.9920 C.2   317  GLU317      0.3649
     87  OE1      163.7160   49.2140  -54.1080 O.co2 317  GLU317     -0.2457
     88  OE2      165.3460   48.2790  -55.2580 O.co2 317  GLU317     -0.2457
     89  N        171.8470   50.8950  -54.9420 N.3   329  ARG329     -0.1245
     90  CA       171.1360   49.5950  -54.9990 C.3   329  ARG329      0.1563
     91  C        170.8650   49.1710  -56.4000 C.2   329  ARG329      0.2260
     92  O        170.1480   48.1790  -56.6000 O.2   329  ARG329     -0.2867
     93  CB       169.7170   49.6900  -54.3750 C.3   329  ARG329      0.0307
     94  CG       169.6250   49.4650  -52.9070 C.3   329  ARG329      0.0489
     95  CD       168.1930   49.4970  -52.3350 C.3   329  ARG329      0.2205
     96  NE       167.0180   49.9230  -53.1250 N.pl3 329  ARG329     -0.0865
     97  CZ       166.5520   51.1710  -53.1770 C.cat 329  ARG329      0.5346
     98  NH1      167.2130   52.1760  -52.5700 N.pl3 329  ARG329      0.1354
     99  NH2      165.4550   51.4530  -53.8610 N.pl3 329  ARG329      0.1354
@<TRIPOS>BOND
     1    83    82    2
     2    82    81    1
     3    76    75    2
     4    75    74    1
     5    75    80   am
     6    44    45    1
     7    73    74    1
     8    92    91    2
     9    74    77    1
    10    91    90    1
    11    81    80    1
    12    81    84    1
    13    85    84    1
    14    85    86    1
    15    49    48    1
    16    49    50    1
    17    47    46    2
    18    48    45    1
    19    45    46    1
    20    88    86   ar
    21    77    79    1
    22    77    78    1
    23    90    89    1
    24    90    93    1
    25    86    87   ar
    26    52    50   ar
    27    93    94    1
    28    50    51   ar
    29    71    70    2
    30    99    97    1
    31    70    69    1
    32    97    96    2
    33    97    98    1
    34    96    95    1
    35    94    95    1
    36    53    54    1
    37    68    69    1
    38    69    72    1
    39    57    54    1
    40    57    58    1
    41    54    55    1
    42     1     2    1
    43     7     5    1
    44     5     2    1
    45     5     6    1
    46    37    38   ar
    47    37    35   ar
    48     2     3    1
    49    38    36   ar
    50    55    56    2
    51     8     6    1
    52    35    33   ar
    53    67    66    1
    54     4     3    2
    55    26    25    2
    56    36    34   ar
    57    66    65    1
    58    27    25   am
    59    25    24    1
    60    65    64    1
    61    21    24    1
    62    21    20    1
    63    21    22    1
    64    33    34   ar
    65    33    32    1
    66    64    63    1
    67    32    29    1
    68    22    23    2
    69    19    17   ar
    70    19    18   ar
    71    28    29    1
    72    17    15   ar
    73    29    30    1
    74    63    60    1
    75    18    16   ar
    76    30    39   am
    77    30    31    2
    78    39    40    1
    79    15    14   ar
    80    16    14   ar
    81    60    59    1
    82    60    61    1
    83    43    40    1
    84    40    41    1
    85    14    13    1
    86    61    62    2
    87     9    10    1
    88    13    10    1
    89    41    42    2
    90    10    11    1
    91    11    12    2
