@<TRIPOS>MOLECULE
tmp/4yzoA01.pdb
 92 87 0 0 0
SMALL
GASTEIGER

@<TRIPOS>ATOM
      1  N        155.6020   57.1830  -58.7340 N.3     6  VAL6       -0.1245
      2  CA       155.5640   56.4220  -57.5010 C.3     6  VAL6        0.1561
      3  C        155.7340   57.3090  -56.3090 C.2     6  VAL6        0.2260
      4  O        156.1970   58.4620  -56.4360 O.2     6  VAL6       -0.2867
      5  CB       156.6850   55.3290  -57.4480 C.3     6  VAL6        0.0252
      6  CG1      156.4770   54.2960  -58.5510 C.3     6  VAL6        0.0019
      7  CG2      158.1120   55.9700  -57.4680 C.3     6  VAL6        0.0019
      8  N        156.9110   56.7520  -51.8700 N.3     8  ILE8       -0.1245
      9  CA       157.3540   55.7950  -50.8550 C.3     8  ILE8        0.1561
     10  C        157.6680   56.5400  -49.5620 C.2     8  ILE8        0.2260
     11  O        158.1490   57.6680  -49.6190 O.2     8  ILE8       -0.2867
     12  CB       158.6020   54.9950  -51.3550 C.3     8  ILE8        0.0252
     13  CG1      158.9310   53.8390  -50.4270 C.3     8  ILE8        0.0019
     14  CG2      159.8240   55.9000  -51.5060 C.3     8  ILE8        0.0019
     15  CD1      157.9080   52.7170  -50.4390 C.3     8  ILE8        0.0001
     16  N        169.3360   51.1930  -48.7160 N.3   155  ASN155     -0.1226
     17  CA       167.9660   51.6450  -48.9970 C.3   155  ASN155      0.1770
     18  C        167.5290   52.6190  -47.9010 C.2   155  ASN155      0.2439
     19  O        167.2590   52.1950  -46.7800 O.2   155  ASN155     -0.2733
     20  CB       167.0310   50.4070  -48.9940 C.3   155  ASN155      0.1168
     21  CG       165.5710   50.7290  -49.3030 C.2   155  ASN155      0.2627
     22  OD1      164.7640   49.7950  -49.5540 O.2   155  ASN155     -0.2716
     23  ND2      165.2140   51.9850  -49.3280 N.am  155  ASN155     -0.0877
     24  N        167.4720   53.9270  -48.2160 N.am  156  PRO156     -0.2718
     25  CA       167.1710   54.9220  -47.1670 C.3   156  PRO156      0.1535
     26  C        165.7490   54.8370  -46.6250 C.2   156  PRO156      0.2598
     27  O        165.4420   55.4820  -45.6180 O.2   156  PRO156     -0.2715
     28  CB       167.3680   56.2770  -47.8800 C.3   156  PRO156      0.0310
     29  CG       167.1750   55.9850  -49.3250 C.3   156  PRO156      0.0237
     30  CD       167.6030   54.5380  -49.5520 C.3   156  PRO156      0.0939
     31  N        164.8990   54.0260  -47.2650 N.am  157  PHE157     -0.1974
     32  CA       163.5170   53.8440  -46.8200 C.3   157  PHE157      0.1639
     33  C        163.3530   52.6060  -45.9280 C.2   157  PHE157      0.2290
     34  O        162.3010   52.4410  -45.3160 O.2   157  PHE157     -0.2864
     35  CB       162.5580   53.7940  -48.0240 C.3   157  PHE157      0.0560
     36  CG       162.7230   54.9500  -48.9640 C.ar  157  PHE157     -0.0200
     37  CD1      162.2460   56.2210  -48.6240 C.ar  157  PHE157     -0.0042
     38  CD2      163.3890   54.7740  -50.1780 C.ar  157  PHE157     -0.0042
     39  CE1      162.4290   57.2970  -49.4810 C.ar  157  PHE157     -0.0003
     40  CE2      163.5770   55.8500  -51.0450 C.ar  157  PHE157     -0.0003
     41  CZ       163.0930   57.1120  -50.6930 C.ar  157  PHE157     -0.0000
     42  N        157.2380   49.7520  -56.6040 N.3   316  VAL316     -0.1231
     43  CA       158.0500   50.9890  -56.5200 C.3   316  VAL316      0.1692
     44  C        159.5170   50.6350  -56.7570 C.2   316  VAL316      0.2591
     45  O        160.2190   51.3000  -57.5220 O.2   316  VAL316     -0.2718
     46  CB       157.8570   51.7090  -55.1640 C.3   316  VAL316      0.0266
     47  CG1      158.8070   52.9000  -55.0460 C.3   316  VAL316      0.0020
     48  CG2      156.4280   52.2380  -55.0680 C.3   316  VAL316      0.0020
     49  N        159.9640   49.5440  -56.1430 N.am  317  GLU317     -0.1979
     50  CA       161.3440   49.0840  -56.3790 C.3   317  GLU317      0.1602
     51  C        161.5620   48.7580  -57.8640 C.2   317  GLU317      0.2287
     52  O        162.5710   49.1810  -58.4510 O.2   317  GLU317     -0.2864
     53  CB       161.6750   47.8700  -55.5330 C.3   317  GLU317      0.0415
     54  CG       163.1340   47.4330  -55.6690 C.3   317  GLU317      0.1163
     55  CD       164.1250   48.3910  -54.9920 C.2   317  GLU317      0.3649
     56  OE1      163.7160   49.2140  -54.1080 O.co2 317  GLU317     -0.2457
     57  OE2      165.3460   48.2790  -55.2580 O.co2 317  GLU317     -0.2457
     58  N        161.8370   51.9240  -59.9710 N.3   320  SER320     -0.1217
     59  CA       163.1220   52.6120  -59.7820 C.3   320  SER320      0.1889
     60  C        164.2530   51.8410  -60.4600 C.2   320  SER320      0.2288
     61  O        165.0980   52.4470  -61.1150 O.2   320  SER320     -0.2866
     62  CB       163.4350   52.7710  -58.2880 C.3   320  SER320      0.2089
     63  OG       162.3570   53.4940  -57.7080 O.3   320  SER320     -0.2183
     64  N        167.1660   54.4000  -61.5110 N.3   325  GLU325     -0.1231
     65  CA       167.0400   55.3970  -60.4510 C.3   325  GLU325      0.1699
     66  C        167.2540   54.8380  -59.0510 C.2   325  GLU325      0.2592
     67  O        167.0060   55.5270  -58.0590 O.2   325  GLU325     -0.2718
     68  CB       165.6560   56.0820  -60.5050 C.3   325  GLU325      0.0402
     69  CG       165.4300   56.8630  -61.7950 C.3   325  GLU325      0.1161
     70  CD       164.0020   57.3720  -61.9480 C.2   325  GLU325      0.3649
     71  OE1      163.0880   56.8550  -61.2870 O.co2 325  GLU325     -0.2457
     72  OE2      163.7990   58.2960  -62.7450 O.co2 325  GLU325     -0.2457
     73  N        167.7140   53.5940  -58.9420 N.am  326  ALA326     -0.1966
     74  CA       167.8890   52.9930  -57.6270 C.3   326  ALA326      0.1728
     75  C        169.2330   53.2860  -56.9370 C.2   326  ALA326      0.2616
     76  O        169.4990   52.7540  -55.8560 O.2   326  ALA326     -0.2715
     77  CB       167.6280   51.4770  -57.6880 C.3   326  ALA326      0.0334
     78  N        170.0430   54.1720  -57.5220 N.am  327  GLY327     -0.1955
     79  CA       171.2910   54.6400  -56.8610 C.3   327  GLY327      0.1869
     80  C        172.2890   53.5310  -56.5200 C.2   327  GLY327      0.2309
     81  O        172.6840   52.7430  -57.3910 O.2   327  GLY327     -0.2863
     82  N        171.8470   50.8950  -54.9420 N.3   329  ARG329     -0.1245
     83  CA       171.1360   49.5950  -54.9990 C.3   329  ARG329      0.1563
     84  C        170.8650   49.1710  -56.4000 C.2   329  ARG329      0.2260
     85  O        170.1480   48.1790  -56.6000 O.2   329  ARG329     -0.2867
     86  CB       169.7170   49.6900  -54.3750 C.3   329  ARG329      0.0307
     87  CG       169.6250   49.4650  -52.9070 C.3   329  ARG329      0.0489
     88  CD       168.1930   49.4970  -52.3350 C.3   329  ARG329      0.2205
     89  NE       167.0180   49.9230  -53.1250 N.pl3 329  ARG329     -0.0865
     90  CZ       166.5520   51.1710  -53.1770 C.cat 329  ARG329      0.5346
     91  NH1      167.2130   52.1760  -52.5700 N.pl3 329  ARG329      0.1354
     92  NH2      165.4550   51.4530  -53.8610 N.pl3 329  ARG329      0.1354
@<TRIPOS>BOND
     1    72    70   ar
     2    70    69    1
     3    70    71   ar
     4    69    68    1
     5    64    65    1
     6    61    60    2
     7    68    65    1
     8    60    59    1
     9    65    66    1
    10    58    59    1
    11    59    62    1
    12    66    73   am
    13    66    67    2
    14    73    74    1
    15     1     2    1
    16     6     5    1
    17    52    51    2
    18    62    63    1
    19    51    50    1
    20    77    74    1
    21    74    75    1
    22    78    75   am
    23    78    79    1
    24    45    44    2
    25     2     5    1
    26     2     3    1
    27     7     5    1
    28    81    80    2
    29    75    76    2
    30    79    80    1
    31    44    43    1
    32    44    49   am
    33    42    43    1
    34    85    84    2
    35    43    46    1
    36     4     3    2
    37    84    83    1
    38    50    49    1
    39    50    53    1
    40    54    53    1
    41    54    55    1
    42    57    55   ar
    43    46    48    1
    44    46    47    1
    45    83    82    1
    46    83    86    1
    47    55    56   ar
    48    86    87    1
    49    92    90    1
    50    90    89    2
    51    90    91    1
    52    89    88    1
    53    87    88    1
    54     8     9    1
    55    14    12    1
    56    12     9    1
    57    12    13    1
    58    40    41   ar
    59    40    38   ar
    60     9    10    1
    61    41    39   ar
    62    15    13    1
    63    38    36   ar
    64    11    10    2
    65    22    21    2
    66    30    29    1
    67    30    24    1
    68    39    37   ar
    69    23    21   am
    70    29    28    1
    71    21    20    1
    72    17    20    1
    73    17    16    1
    74    17    18    1
    75    36    37   ar
    76    36    35    1
    77    24    18   am
    78    24    25    1
    79    35    32    1
    80    18    19    2
    81    28    25    1
    82    31    32    1
    83    31    26   am
    84    25    26    1
    85    32    33    1
    86    26    27    2
    87    33    34    2
