@<TRIPOS>MOLECULE
tmp/4yztA00.pdb
 120 118 0 0 0
SMALL
GASTEIGER

@<TRIPOS>ATOM
      1  N         33.6710   -9.5860   15.7290 N.3    18  ASN18      -0.1240
      2  CA        34.0340   -8.4490   16.5820 C.3    18  ASN18       0.1653
      3  C         33.2680   -8.4150   17.9150 C.2    18  ASN18       0.2266
      4  O         32.8210   -7.3490   18.3790 O.2    18  ASN18      -0.2867
      5  CB        33.8320   -7.1260   15.8110 C.3    18  ASN18       0.1155
      6  CG        34.9380   -6.8660   14.7690 C.2    18  ASN18       0.2627
      7  OD1       35.6990   -7.7630   14.4020 O.2    18  ASN18      -0.2716
      8  ND2       35.0290   -5.6160   14.3030 N.am   18  ASN18      -0.0877
      9  N         40.5320  -17.4700   18.2580 N.3    95  HIS95      -0.1226
     10  CA        40.5820  -16.5030   17.1730 C.3    95  HIS95       0.1752
     11  C         41.8510  -15.6310   17.1730 C.2    95  HIS95       0.2596
     12  O         42.9060  -16.0680   16.6810 O.2    95  HIS95      -0.2718
     13  CB        39.3050  -15.6330   17.1950 C.3    95  HIS95       0.0759
     14  CG        38.9320  -15.0850   15.8470 C.ar   95  HIS95       0.0818
     15  ND1       38.3780  -15.8660   14.8520 N.ar   95  HIS95      -0.2268
     16  CD2       39.0830  -13.8490   15.3130 C.ar   95  HIS95       0.1154
     17  CE1       38.1700  -15.1250   13.7800 C.ar   95  HIS95       0.1986
     18  NE2       38.5860  -13.8930   14.0350 N.ar   95  HIS95      -0.2212
     19  N         41.7820  -14.4160   17.7190 N.am   96  HIS96      -0.1975
     20  CA        42.9090  -13.4870   17.5520 C.3    96  HIS96       0.1656
     21  C         44.1210  -13.8180   18.4190 C.2    96  HIS96       0.2291
     22  O         45.1780  -13.1890   18.2790 O.2    96  HIS96      -0.2864
     23  CB        42.4560  -12.0530   17.7960 C.3    96  HIS96       0.0771
     24  CG        41.6240  -11.5030   16.6760 C.ar   96  HIS96       0.0820
     25  ND1       41.9030  -11.7650   15.3530 N.ar   96  HIS96      -0.2267
     26  CD2       40.5130  -10.7270   16.6840 C.ar   96  HIS96       0.1154
     27  CE1       41.0010  -11.1660   14.5890 C.ar   96  HIS96       0.1986
     28  NE2       40.1480  -10.5350   15.3730 N.ar   96  HIS96      -0.2212
     29  N         42.1320  -19.7780   14.2580 N.3   140  ASN140     -0.1225
     30  CA        41.8650  -18.8530   13.1640 C.3   140  ASN140      0.1785
     31  C         43.1410  -18.3050   12.5250 C.2   140  ASN140      0.2597
     32  O         44.0460  -17.8960   13.2420 O.2   140  ASN140     -0.2718
     33  CB        41.0280  -17.6720   13.6710 C.3   140  ASN140      0.1169
     34  CG        40.5920  -16.7600   12.5570 C.2   140  ASN140      0.2627
     35  OD1       39.7880  -17.1540   11.7170 O.2   140  ASN140     -0.2716
     36  ND2       41.1140  -15.5360   12.5360 N.am  140  ASN140     -0.0877
     37  N         43.1900  -18.2820   11.1910 N.am  141  GLU141     -0.1979
     38  CA        44.3160  -17.7160   10.4270 C.3   141  GLU141      0.1602
     39  C         45.6970  -17.8640   11.0820 C.2   141  GLU141      0.2287
     40  O         46.3750  -16.8690   11.3580 O.2   141  GLU141     -0.2864
     41  CB        44.0380  -16.2450   10.1470 C.3   141  GLU141      0.0415
     42  CG        42.6800  -16.0520    9.5550 C.3   141  GLU141      0.1163
     43  CD        42.6170  -14.9160    8.5740 C.2   141  GLU141      0.3649
     44  OE1       43.2940  -13.8800    8.7860 O.co2 141  GLU141     -0.2457
     45  OE2       41.8460  -15.0450    7.5910 O.co2 141  GLU141     -0.2457
     46  N         39.4610  -19.4500    4.2100 N.3   202  HIS202     -0.1241
     47  CA        38.6910  -18.2170    4.0940 C.3   202  HIS202      0.1621
     48  C         38.8380  -17.6950    2.6700 C.2   202  HIS202      0.2264
     49  O         39.8570  -17.9400    2.0040 O.2   202  HIS202     -0.2867
     50  CB        39.1700  -17.1630    5.1030 C.3   202  HIS202      0.0745
     51  CG        39.0170  -17.5850    6.5340 C.ar  202  HIS202      0.0817
     52  ND1       39.5090  -16.8380    7.5820 N.ar  202  HIS202     -0.2268
     53  CD2       38.4130  -18.6660    7.0880 C.ar  202  HIS202      0.1154
     54  CE1       39.2210  -17.4460    8.7240 C.ar  202  HIS202      0.1986
     55  NE2       38.5640  -18.5620    8.4490 N.ar  202  HIS202     -0.2212
     56  N         38.3980  -14.1510    0.3480 N.3   204  TYR204     -0.1241
     57  CA        38.1290  -12.7160    0.2360 C.3   204  TYR204      0.1605
     58  C         38.7050  -12.1320   -1.0590 C.2   204  TYR204      0.2264
     59  O         39.2440  -11.0220   -1.0590 O.2   204  TYR204     -0.2867
     60  CB        38.7240  -11.9700    1.4260 C.3   204  TYR204      0.0534
     61  CG        38.0080  -12.1130    2.7600 C.ar  204  TYR204     -0.0201
     62  CD1       36.7160  -11.6040    2.9500 C.ar  204  TYR204     -0.0009
     63  CD2       38.6490  -12.7090    3.8490 C.ar  204  TYR204     -0.0009
     64  CE1       36.0790  -11.7030    4.1790 C.ar  204  TYR204      0.0417
     65  CE2       38.0210  -12.8070    5.0880 C.ar  204  TYR204      0.0417
     66  CZ        36.7430  -12.2980    5.2450 C.ar  204  TYR204      0.1957
     67  OH        36.1240  -12.3960    6.4750 O.3   204  TYR204     -0.2866
     68  N         40.7760   -9.0560   -3.1710 N.3   207  TRP207     -0.1241
     69  CA        40.8630   -8.2560   -1.9500 C.3   207  TRP207      0.1605
     70  C         40.4980   -6.7900   -2.1830 C.2   207  TRP207      0.2264
     71  O         39.8050   -6.1810   -1.3620 O.2   207  TRP207     -0.2867
     72  CB        42.2670   -8.3260   -1.3600 C.3   207  TRP207      0.0550
     73  CG        42.4030   -7.5050   -0.1250 C.ar  207  TRP207      0.0003
     74  CD1       43.0520   -6.3100    0.0040 C.ar  207  TRP207      0.0946
     75  CD2       41.8810   -7.8240    1.1720 C.ar  207  TRP207      0.0152
     76  NE1       42.9530   -5.8570    1.3020 N.ar  207  TRP207     -0.2442
     77  CE2       42.2360   -6.7660    2.0370 C.ar  207  TRP207      0.0810
     78  CE3       41.1390   -8.8990    1.6830 C.ar  207  TRP207      0.0012
     79  CZ2       41.8830   -6.7580    3.3870 C.ar  207  TRP207      0.0191
     80  CZ3       40.7810   -8.8830    3.0240 C.ar  207  TRP207      0.0001
     81  CH2       41.1610   -7.8210    3.8600 C.ar  207  TRP207      0.0015
     82  N         34.9970  -17.9140    6.5030 N.3   250  GLU250     -0.1245
     83  CA        34.6860  -16.5020    6.2710 C.3   250  GLU250      0.1567
     84  C         34.6890  -16.1690    4.7860 C.2   250  GLU250      0.2260
     85  O         35.5950  -16.5860    4.0520 O.2   250  GLU250     -0.2867
     86  CB        35.6970  -15.5700    6.9760 C.3   250  GLU250      0.0388
     87  CG        35.8090  -15.7250    8.5000 C.3   250  GLU250      0.1160
     88  CD        36.8160  -14.7740    9.1090 C.2   250  GLU250      0.3649
     89  OE1       37.1220  -13.7410    8.4560 O.co2 250  GLU250     -0.2457
     90  OE2       37.3050  -15.0400   10.2380 O.co2 250  GLU250     -0.2457
     91  N         33.7010   -6.2560    2.4000 N.3   254  LEU254     -0.1245
     92  CA        34.2850   -5.5870    3.5510 C.3   254  LEU254      0.1561
     93  C         34.2950   -4.0890    3.2930 C.2   254  LEU254      0.2260
     94  O         35.3210   -3.4280    3.4630 O.2   254  LEU254     -0.2867
     95  CB        35.7150   -6.0900    3.8150 C.3   254  LEU254      0.0270
     96  CG        35.9280   -7.5970    4.0480 C.3   254  LEU254      0.0019
     97  CD1       37.4230   -7.9040    4.2220 C.3   254  LEU254      0.0001
     98  CD2       35.1160   -8.1000    5.2470 C.3   254  LEU254      0.0001
     99  N         31.0480  -13.4510    6.7750 N.3   283  TRP283     -0.1241
    100  CA        31.6930  -12.5830    7.7710 C.3   283  TRP283      0.1605
    101  C         30.9050  -11.3070    7.9670 C.2   283  TRP283      0.2264
    102  O         30.7040  -10.5180    7.0340 O.2   283  TRP283     -0.2867
    103  CB        33.1410  -12.2400    7.3960 C.3   283  TRP283      0.0550
    104  CG        33.7900  -11.3630    8.4530 C.ar  283  TRP283      0.0003
    105  CD1       34.1160  -10.0400    8.3490 C.ar  283  TRP283      0.0946
    106  CD2       34.1610  -11.7640    9.7860 C.ar  283  TRP283      0.0152
    107  NE1       34.6600   -9.5890    9.5410 N.ar  283  TRP283     -0.2442
    108  CE2       34.7030  -10.6310   10.4330 C.ar  283  TRP283      0.0810
    109  CE3       34.0870  -12.9730   10.4910 C.ar  283  TRP283      0.0012
    110  CZ2       35.1760  -10.6730   11.7480 C.ar  283  TRP283      0.0191
    111  CZ3       34.5550  -13.0130   11.7940 C.ar  283  TRP283      0.0001
    112  CH2       35.0910  -11.8680   12.4110 C.ar  283  TRP283      0.0015
    113  N         31.0640   -8.2260   10.7230 N.3   285  ASN285     -0.1240
    114  CA        31.7030   -7.6450   11.8980 C.3   285  ASN285      0.1653
    115  C         30.7790   -6.7410   12.7250 C.2   285  ASN285      0.2266
    116  O         31.2190   -6.1200   13.6880 O.2   285  ASN285     -0.2867
    117  CB        32.9700   -6.8690   11.5050 C.3   285  ASN285      0.1155
    118  CG        32.6820   -5.5990   10.7000 C.2   285  ASN285      0.2627
    119  OD1       31.5300   -5.2390   10.4430 O.2   285  ASN285     -0.2716
    120  ND2       33.7520   -4.9030   10.3140 N.am  285  ASN285     -0.0877
@<TRIPOS>BOND
     1    68    69    1
     2    70    69    1
     3    70    71    2
     4    69    72    1
     5    72    73    1
     6    59    58    2
     7    58    57    1
     8    73    74   ar
     9    73    75   ar
    10    74    76   ar
    11    57    56    1
    12    57    60    1
    13    75    78   ar
    14    75    77   ar
    15    76    77   ar
    16    60    61    1
    17    78    80   ar
    18    49    48    2
    19    77    79   ar
    20    91    92    1
    21    48    47    1
    22    61    62   ar
    23    61    63   ar
    24    62    64   ar
    25    80    81   ar
    26    93    94    2
    27    93    92    1
    28    79    81   ar
    29    92    95    1
    30    95    96    1
    31    63    65   ar
    32    96    97    1
    33    96    98    1
    34    85    84    2
    35    47    46    1
    36    47    50    1
    37    64    66   ar
    38    84    83    1
    39    65    66   ar
    40    50    51    1
    41    66    67    1
    42    83    82    1
    43    83    86    1
    44    51    53   ar
    45    51    52   ar
    46    99   100    1
    47    86    87    1
    48   102   101    2
    49    53    55   ar
    50   103   100    1
    51   103   104    1
    52    52    54   ar
    53    45    43   ar
    54   100   101    1
    55   105   104   ar
    56   105   107   ar
    57    55    54   ar
    58   104   106   ar
    59    89    88   ar
    60    87    88    1
    61    43    44   ar
    62    43    42    1
    63    88    90   ar
    64   107   108   ar
    65    42    41    1
    66   106   108   ar
    67   106   109   ar
    68    41    38    1
    69   120   118   am
    70    38    39    1
    71    38    37    1
    72   108   110   ar
    73   119   118    2
    74   109   111   ar
    75   118   117    1
    76   113   114    1
    77    39    40    2
    78    37    31   am
    79   117   114    1
    80    35    34    2
    81   110   112   ar
    82   111   112   ar
    83   114   115    1
    84    31    30    1
    85    31    32    2
    86    36    34   am
    87    34    33    1
    88   115   116    2
    89    30    33    1
    90    30    29    1
    91    17    18   ar
    92    17    15   ar
    93    18    16   ar
    94     8     6   am
    95     7     6    2
    96    27    25   ar
    97    27    28   ar
    98     6     5    1
    99    15    14   ar
   100    16    14   ar
   101    25    24   ar
   102    28    26   ar
   103     1     2    1
   104     5     2    1
   105    14    13    1
   106     2     3    1
   107    24    26   ar
   108    24    23    1
   109    12    11    2
   110    11    10    1
   111    11    19   am
   112    10    13    1
   113    10     9    1
   114    20    19    1
   115    20    23    1
   116    20    21    1
   117     3     4    2
   118    22    21    2
