@<TRIPOS>MOLECULE
tmp/4yzuA00.pdb
 136 132 0 0 0
SMALL
GASTEIGER

@<TRIPOS>ATOM
      1  N         -9.4560  -51.0840   -9.2600 N.3    84  ASN84      -0.1240
      2  CA       -10.0790  -49.8410   -8.8780 C.3    84  ASN84       0.1653
      3  C         -9.0420  -48.7300   -9.0340 C.2    84  ASN84       0.2266
      4  O         -8.0520  -48.7210   -8.3260 O.2    84  ASN84      -0.2867
      5  CB       -10.5960  -49.9310   -7.4430 C.3    84  ASN84       0.1155
      6  CG       -11.3430  -48.7080   -6.9500 C.2    84  ASN84       0.2627
      7  OD1      -11.2010  -47.6010   -7.4750 O.2    84  ASN84      -0.2716
      8  ND2      -12.1350  -48.8730   -5.8940 N.am   84  ASN84      -0.0877
      9  N         -9.1670  -45.7840   -8.0330 N.3    86  TYR86      -0.1241
     10  CA        -9.1820  -44.8510   -6.9020 C.3    86  TYR86       0.1605
     11  C         -8.9860  -45.4280   -5.4930 C.2    86  TYR86       0.2264
     12  O         -9.0050  -44.6610   -4.5380 O.2    86  TYR86      -0.2867
     13  CB       -10.5050  -44.0950   -6.9580 C.3    86  TYR86       0.0534
     14  CG       -10.7070  -43.4230   -8.2990 C.ar   86  TYR86      -0.0201
     15  CD1      -10.0010  -42.2670   -8.6380 C.ar   86  TYR86      -0.0009
     16  CD2      -11.5400  -43.9810   -9.2640 C.ar   86  TYR86      -0.0009
     17  CE1      -10.1490  -41.6700   -9.8850 C.ar   86  TYR86       0.0417
     18  CE2      -11.6890  -43.3940  -10.5180 C.ar   86  TYR86       0.0417
     19  CZ       -11.0210  -42.2160  -10.8110 C.ar   86  TYR86       0.1957
     20  OH       -11.1400  -41.6270  -12.0470 O.3    86  TYR86      -0.2866
     21  N        -16.9380  -26.7900  -13.0180 N.3   135  HIS135     -0.1241
     22  CA       -17.1200  -28.1320  -13.5620 C.3   135  HIS135      0.1621
     23  C        -17.1340  -28.0480  -15.0900 C.2   135  HIS135      0.2264
     24  O        -17.8860  -27.2570  -15.6730 O.2   135  HIS135     -0.2867
     25  CB       -18.4300  -28.7480  -13.0440 C.3   135  HIS135      0.0745
     26  CG       -18.7500  -30.1000  -13.6090 C.ar  135  HIS135      0.0817
     27  ND1      -19.9680  -30.3620  -14.2360 N.ar  135  HIS135     -0.2268
     28  CD2      -18.0010  -31.2260  -13.6320 C.ar  135  HIS135      0.1154
     29  CE1      -19.9210  -31.6370  -14.5940 C.ar  135  HIS135      0.1986
     30  NE2      -18.7500  -32.1850  -14.2950 N.ar  135  HIS135     -0.2212
     31  N        -20.7490  -44.5710   -5.9460 N.3   162  PHE162     -0.1227
     32  CA       -19.4840  -45.2940   -5.8530 C.3   162  PHE162      0.1736
     33  C        -19.1250  -45.4910   -4.3850 C.2   162  PHE162      0.2596
     34  O        -19.5900  -44.7460   -3.5300 O.2   162  PHE162     -0.2718
     35  CB       -18.3780  -44.5480   -6.6080 C.3   162  PHE162      0.0547
     36  CG       -18.6650  -44.4230   -8.0840 C.ar  162  PHE162     -0.0202
     37  CD1      -18.6330  -45.5390   -8.9100 C.ar  162  PHE162     -0.0042
     38  CD2      -19.0890  -43.2150   -8.6260 C.ar  162  PHE162     -0.0042
     39  CE1      -18.9810  -45.4410  -10.2570 C.ar  162  PHE162     -0.0003
     40  CE2      -19.4120  -43.1150   -9.9790 C.ar  162  PHE162     -0.0003
     41  CZ       -19.3830  -44.2360  -10.7810 C.ar  162  PHE162     -0.0000
     42  N        -18.3050  -46.4950   -4.0830 N.am  163  THR163     -0.1953
     43  CA       -17.9930  -46.8260   -2.7020 C.3   163  THR163      0.1897
     44  C        -16.9200  -45.9300   -2.1050 C.2   163  THR163      0.2313
     45  O        -15.9150  -45.6120   -2.7690 O.2   163  THR163     -0.2863
     46  CB       -17.5430  -48.2810   -2.6020 C.3   163  THR163      0.1794
     47  OG1      -18.5020  -49.1010   -3.2690 O.3   163  THR163     -0.2208
     48  CG2      -17.3650  -48.7410   -1.1540 C.3   163  THR163      0.0378
     49  N        -15.1580  -26.5700   -3.9720 N.3   179  ASP179     -0.1225
     50  CA       -14.6560  -27.9340   -4.0120 C.3   179  ASP179      0.1805
     51  C        -13.3870  -28.0390   -4.8070 C.2   179  ASP179      0.2598
     52  O        -13.0190  -27.1370   -5.5430 O.2   179  ASP179     -0.2718
     53  CB       -15.7300  -28.7790   -4.7660 C.3   179  ASP179      0.1424
     54  CG       -15.7600  -30.2890   -4.6250 C.2   179  ASP179      0.3668
     55  OD1      -14.9140  -30.8300   -3.9310 O.co2 179  ASP179     -0.2456
     56  OD2      -16.6630  -30.9190   -5.2340 O.co2 179  ASP179     -0.2456
     57  N        -12.6740  -29.1590   -4.6210 N.am  180  SER180     -0.1938
     58  CA       -11.5960  -29.5150   -5.5310 C.3   180  SER180      0.2055
     59  C        -12.2620  -29.9300   -6.8560 C.2   180  SER180      0.2643
     60  O        -13.4830  -30.0870   -6.9410 O.2   180  SER180     -0.2714
     61  CB       -10.7780  -30.6710   -4.9830 C.3   180  SER180      0.2130
     62  OG       -10.0450  -30.2380   -3.8640 O.3   180  SER180     -0.2179
     63  N        -11.4820  -30.0710   -7.9140 N.am  181  CYS181     -0.1953
     64  CA       -12.0290  -30.4420   -9.2100 C.3   181  CYS181      0.1843
     65  C        -10.9850  -31.1990  -10.0440 C.2   181  CYS181      0.2625
     66  O         -9.8370  -31.3880   -9.6080 O.2   181  CYS181     -0.2714
     67  CB       -12.5650  -29.2060   -9.9530 C.3   181  CYS181      0.0997
     68  SG       -13.7330  -29.5430  -11.3350 S.3   181  CYS181     -0.0797
     69  N        -11.3750  -31.6220  -11.2350 N.am  182  GLN182     -0.1977
     70  CA       -10.4610  -32.3110  -12.1490 C.3   182  GLN182      0.1601
     71  C         -9.2210  -31.4770  -12.3780 C.2   182  GLN182      0.2287
     72  O         -9.3010  -30.2670  -12.5860 O.2   182  GLN182     -0.2864
     73  CB       -11.1410  -32.5410  -13.4870 C.3   182  GLN182      0.0394
     74  CG       -10.3390  -33.4450  -14.4120 C.3   182  GLN182      0.0908
     75  CD       -11.1850  -33.8310  -15.5870 C.2   182  GLN182      0.2608
     76  OE1      -11.6650  -32.9570  -16.3140 O.2   182  GLN182     -0.2717
     77  NE2      -11.4820  -35.1110  -15.7510 N.am  182  GLN182     -0.0878
     78  N         -6.3860  -33.3620   -8.5970 N.3   185  SER185     -0.1217
     79  CA        -6.0130  -34.6870   -8.0800 C.3   185  SER185      0.1889
     80  C         -4.5470  -34.7900   -7.8360 C.2   185  SER185      0.2288
     81  O         -3.7300  -34.2940   -8.6210 O.2   185  SER185     -0.2866
     82  CB        -6.4000  -35.7960   -9.0470 C.3   185  SER185      0.2089
     83  OG        -7.7940  -35.7960   -9.2730 O.3   185  SER185     -0.2183
     84  N         -5.8610  -35.1760   -2.5980 N.3   203  ILE203     -0.1245
     85  CA        -7.0480  -34.9120   -3.4250 C.3   203  ILE203      0.1561
     86  C         -7.1620  -36.0930   -4.4010 C.2   203  ILE203      0.2260
     87  O         -6.1730  -36.4520   -5.0340 O.2   203  ILE203     -0.2867
     88  CB        -6.8480  -33.6170   -4.1740 C.3   203  ILE203      0.0252
     89  CG1       -6.6630  -32.4250   -3.2050 C.3   203  ILE203      0.0019
     90  CG2       -8.0580  -33.3190   -5.0700 C.3   203  ILE203      0.0019
     91  CD1       -6.2620  -31.1280   -3.8790 C.3   203  ILE203      0.0001
     92  N        -10.7570  -37.7910   -6.0290 N.3   205  TRP205     -0.1227
     93  CA       -11.7410  -37.8300   -7.0910 C.3   205  TRP205      0.1737
     94  C        -13.0300  -37.1950   -6.6720 C.2   205  TRP205      0.2596
     95  O        -13.1900  -36.7420   -5.5460 O.2   205  TRP205     -0.2718
     96  CB       -11.9690  -39.3030   -7.5260 C.3   205  TRP205      0.0564
     97  CG       -12.5200  -40.2000   -6.4610 C.ar  205  TRP205      0.0003
     98  CD1      -11.8000  -40.9260   -5.5570 C.ar  205  TRP205      0.0946
     99  CD2      -13.8830  -40.5940   -6.2960 C.ar  205  TRP205      0.0152
    100  NE1      -12.6390  -41.7230   -4.8090 N.ar  205  TRP205     -0.2442
    101  CE2      -13.9280  -41.5070   -5.2190 C.ar  205  TRP205      0.0810
    102  CE3      -15.0870  -40.2120   -6.9090 C.ar  205  TRP205      0.0012
    103  CZ2      -15.1210  -42.0940   -4.7930 C.ar  205  TRP205      0.0191
    104  CZ3      -16.2680  -40.7870   -6.4750 C.ar  205  TRP205      0.0001
    105  CH2      -16.2810  -41.6730   -5.3990 C.ar  205  TRP205      0.0015
    106  N        -13.9280  -37.1080   -7.6470 N.am  206  GLY206     -0.1942
    107  CA       -15.2740  -36.6080   -7.4530 C.3   206  GLY206      0.2014
    108  C        -16.0020  -36.8050   -8.7620 C.2   206  GLY206      0.2638
    109  O        -15.4430  -37.3830   -9.7040 O.2   206  GLY206     -0.2714
    110  N        -17.2130  -36.2940   -8.8530 N.am  207  GLU207     -0.1977
    111  CA       -18.0320  -36.4310  -10.0600 C.3   207  GLU207      0.1602
    112  C        -18.2890  -35.0200  -10.5490 C.2   207  GLU207      0.2287
    113  O        -17.3530  -34.4030  -11.0790 O.2   207  GLU207     -0.2864
    114  CB       -19.2800  -37.2310   -9.7140 C.3   207  GLU207      0.0415
    115  CG       -18.9590  -38.6940   -9.4480 C.3   207  GLU207      0.1163
    116  CD       -20.0580  -39.3890   -8.6900 C.2   207  GLU207      0.3649
    117  OE1      -20.0570  -39.3250   -7.4390 O.co2 207  GLU207     -0.2457
    118  OE2      -20.9610  -39.9470   -9.3490 O.co2 207  GLU207     -0.2457
    119  N        -18.0290  -31.4570  -10.0750 N.3   209  CYS209     -0.1235
    120  CA       -17.3470  -30.5780   -9.1310 C.3   209  CYS209      0.1677
    121  C        -18.2580  -29.5800   -8.5630 C.2   209  CYS209      0.2270
    122  O        -18.9520  -28.9000   -9.3260 O.2   209  CYS209     -0.2867
    123  CB       -16.1750  -29.8570   -9.7850 C.3   209  CYS209      0.0956
    124  SG       -15.0270  -30.9390  -10.6490 S.3   209  CYS209     -0.0801
    125  N        -16.0440  -33.6070   -2.6240 N.3   216  GLY216     -0.1210
    126  CA       -14.7520  -34.0850   -3.0780 C.3   216  GLY216      0.1956
    127  C        -14.3510  -35.2680   -2.2180 C.2   216  GLY216      0.2611
    128  O        -14.6350  -35.2920   -1.0230 O.2   216  GLY216     -0.2717
    129  N        -13.6860  -36.2490   -2.8190 N.am  217  ILE217     -0.1979
    130  CA       -13.2430  -37.4570   -2.1310 C.3   217  ILE217      0.1595
    131  C        -11.7290  -37.4440   -2.0850 C.2   217  ILE217      0.2287
    132  O        -11.0370  -37.1190   -3.0680 O.2   217  ILE217     -0.2864
    133  CB       -13.7110  -38.7330   -2.8300 C.3   217  ILE217      0.0276
    134  CG1      -15.1660  -38.6490   -3.2670 C.3   217  ILE217      0.0022
    135  CG2      -13.4510  -39.9530   -1.9330 C.3   217  ILE217      0.0022
    136  CD1      -16.1530  -38.4430   -2.1840 C.3   217  ILE217      0.0001
@<TRIPOS>BOND
     1    76    75    2
     2    77    75   am
     3    24    23    2
     4    75    74    1
     5    23    22    1
     6    29    30   ar
     7    29    27   ar
     8    74    73    1
     9    30    28   ar
    10    27    26   ar
    11    28    26   ar
    12    26    25    1
    13    22    25    1
    14    22    21    1
    15    73    70    1
    16    72    71    2
    17    71    70    1
    18    70    69    1
    19    20    19    1
    20    68   124    1
    21    68    67    1
    22    69    65   am
    23   113   112    2
    24    19    18   ar
    25    19    17   ar
    26    41    39   ar
    27    41    40   ar
    28   124   123    1
    29   112   111    1
    30    18    16   ar
    31    39    37   ar
    32   119   120    1
    33   111   114    1
    34   111   110    1
    35    65    66    2
    36    65    64    1
    37    40    38   ar
    38    67    64    1
    39    17    15   ar
    40   123   120    1
    41   114   115    1
    42   109   108    2
    43   115   116    1
    44   118   116   ar
    45   122   121    2
    46    83    82    1
    47    16    14   ar
    48     1     2    1
    49    64    63    1
    50   120   121    1
    51    82    79    1
    52     3     2    1
    53     3     4    2
    54    37    36   ar
    55     2     5    1
    56   110   108   am
    57   108   107    1
    58   116   117   ar
    59    15    14   ar
    60    38    36   ar
    61    81    80    2
    62    78    79    1
    63    14    13    1
    64    36    35    1
    65    79    80    1
    66     9    10    1
    67    63    59   am
    68   106   107    1
    69   106    94   am
    70    96    93    1
    71    96    97    1
    72     7     6    2
    73     5     6    1
    74    93    94    1
    75    93    92    1
    76    13    10    1
    77     6     8   am
    78    60    59    2
    79   102   104   ar
    80   102    99   ar
    81    10    11    1
    82    59    58    1
    83    94    95    2
    84    35    32    1
    85   104   105   ar
    86    97    99   ar
    87    97    98   ar
    88    99   101   ar
    89    31    32    1
    90    32    33    1
    91    98   100   ar
    92    52    51    2
    93    58    61    1
    94    58    57    1
    95    11    12    2
    96   105   103   ar
    97    56    54   ar
    98   101   100   ar
    99   101   103   ar
   100    90    88    1
   101    87    86    2
   102    61    62    1
   103    51    57   am
   104    51    50    1
   105    53    54    1
   106    53    50    1
   107    54    55   ar
   108    86    85    1
   109    33    42   am
   110    33    34    2
   111    88    85    1
   112    88    89    1
   113    42    43    1
   114    50    49    1
   115    91    89    1
   116    85    84    1
   117    47    46    1
   118   134   133    1
   119   134   136    1
   120   126   125    1
   121   126   127    1
   122   132   131    2
   123   133   130    1
   124   133   135    1
   125   129   127   am
   126   129   130    1
   127    45    44    2
   128    43    46    1
   129    43    44    1
   130    46    48    1
   131   127   128    2
   132   130   131    1
