@<TRIPOS>MOLECULE
tmp/4yzuA01.pdb
 69 65 0 0 0
SMALL
GASTEIGER

@<TRIPOS>ATOM
      1  N        -14.6320  -22.1730   -6.5440 N.3     3  GLY3       -0.1210
      2  CA       -14.9720  -21.3640   -5.3770 C.3     3  GLY3        0.1956
      3  C        -13.8340  -20.9990   -4.4720 C.2     3  GLY3        0.2612
      4  O        -14.0830  -20.5810   -3.3350 O.2     3  GLY3       -0.2717
      5  N        -12.6180  -21.1180   -4.9770 N.am    4  GLY4       -0.1956
      6  CA       -11.4320  -20.7720   -4.2290 C.3     4  GLY4        0.1869
      7  C        -10.9690  -19.3510   -4.5240 C.2     4  GLY4        0.2309
      8  O        -11.6800  -18.5520   -5.1570 O.2     4  GLY4       -0.2863
      9  N         -7.1420  -16.9140   -5.3900 N.3     6  ASP6       -0.1239
     10  CA        -5.7710  -16.9620   -5.8200 C.3     6  ASP6        0.1674
     11  C         -4.8310  -17.0230   -4.6010 C.2     6  ASP6        0.2266
     12  O         -4.8720  -16.1420   -3.7140 O.2     6  ASP6       -0.2867
     13  CB        -5.3860  -15.6970   -6.5900 C.3     6  ASP6        0.1410
     14  CG        -5.9980  -15.5030   -7.9490 C.2     6  ASP6        0.3668
     15  OD1       -6.8910  -16.3070   -8.3300 O.co2   6  ASP6       -0.2456
     16  OD2       -5.6420  -14.4860   -8.6210 O.co2   6  ASP6       -0.2456
     17  N        -11.7060  -24.4940  -12.6360 N.3   133  VAL133     -0.1231
     18  CA       -12.3250  -23.4890  -11.7640 C.3   133  VAL133      0.1692
     19  C        -13.8520  -23.5290  -11.8710 C.2   133  VAL133      0.2592
     20  O        -14.5330  -22.8890  -11.0680 O.2   133  VAL133     -0.2718
     21  CB       -11.7300  -22.0860  -11.9680 C.3   133  VAL133      0.0266
     22  CG1      -10.2300  -22.1280  -11.6980 C.3   133  VAL133      0.0020
     23  CG2      -12.0350  -21.5210  -13.3440 C.3   133  VAL133      0.0020
     24  N        -14.3870  -24.3200  -12.8070 N.am  134  PHE134     -0.1976
     25  CA       -15.7990  -24.6490  -12.8730 C.3   134  PHE134      0.1639
     26  C        -15.8590  -26.0720  -13.3490 C.2   134  PHE134      0.2290
     27  O        -14.9720  -26.5030  -14.0850 O.2   134  PHE134     -0.2864
     28  CB       -16.5540  -23.7840  -13.8820 C.3   134  PHE134      0.0560
     29  CG       -16.6110  -22.3200  -13.5470 C.ar  134  PHE134     -0.0200
     30  CD1      -17.3070  -21.8760  -12.4280 C.ar  134  PHE134     -0.0042
     31  CD2      -15.8860  -21.4000  -14.2780 C.ar  134  PHE134     -0.0042
     32  CE1      -17.3700  -20.5160  -12.1230 C.ar  134  PHE134     -0.0003
     33  CE2      -15.9360  -20.0470  -13.9650 C.ar  134  PHE134     -0.0003
     34  CZ       -16.6730  -19.6200  -12.8800 C.ar  134  PHE134     -0.0000
     35  N         -9.1040  -24.5240  -16.6860 N.3   139  SER139     -0.1202
     36  CA        -8.2190  -24.7000  -15.5780 C.3   139  SER139      0.2020
     37  C         -7.6460  -23.3650  -15.1230 C.2   139  SER139      0.2619
     38  O         -7.6670  -22.3580  -15.8330 O.2   139  SER139     -0.2717
     39  CB        -7.1410  -25.7140  -15.9240 C.3   139  SER139      0.2103
     40  OG        -6.3860  -25.4060  -17.0620 O.3   139  SER139     -0.2182
     41  N         -7.1460  -23.3580  -13.8830 N.am  140  ALA140     -0.1965
     42  CA        -6.5930  -22.1370  -13.3120 C.3   140  ALA140      0.1728
     43  C         -5.2190  -21.8050  -13.8880 C.2   140  ALA140      0.2616
     44  O         -4.4290  -22.7270  -14.1240 O.2   140  ALA140     -0.2715
     45  CB        -6.4490  -22.2620  -11.8050 C.3   140  ALA140      0.0334
     46  N         -4.8870  -20.5300  -13.9500 N.am  141  LEU141     -0.1963
     47  CA        -3.5500  -20.0640  -14.3030 C.3   141  LEU141      0.1728
     48  C         -2.7890  -19.8020  -13.0080 C.2   141  LEU141      0.2616
     49  O         -1.6490  -20.2700  -12.8440 O.2   141  LEU141     -0.2715
     50  CB        -3.6030  -18.7850  -15.1400 C.3   141  LEU141      0.0311
     51  CG        -4.2650  -18.9500  -16.5060 C.3   141  LEU141      0.0022
     52  CD1       -4.1400  -17.6770  -17.3060 C.3   141  LEU141      0.0001
     53  CD2       -3.6890  -20.1620  -17.2650 C.3   141  LEU141      0.0001
     54  N         -3.4250  -19.1200  -12.0610 N.am  142  VAL142     -0.1977
     55  CA        -2.8630  -18.8380  -10.7510 C.3   142  VAL142      0.1596
     56  C         -3.3480  -19.9040   -9.7780 C.2   142  VAL142      0.2287
     57  O         -4.5360  -20.2300   -9.7140 O.2   142  VAL142     -0.2864
     58  CB        -3.2160  -17.4370  -10.2230 C.3   142  VAL142      0.0276
     59  CG1       -2.6110  -17.2020   -8.8290 C.3   142  VAL142      0.0022
     60  CG2       -2.7190  -16.3600  -11.2010 C.3   142  VAL142      0.0022
     61  N         -4.9250  -21.9160   -6.9930 N.3   144  GLN144     -0.1245
     62  CA        -6.1090  -21.6510   -6.1970 C.3   144  GLN144      0.1566
     63  C         -6.0590  -22.3800   -4.8650 C.2   144  GLN144      0.2260
     64  O         -5.4840  -23.4690   -4.7940 O.2   144  GLN144     -0.2867
     65  CB        -7.3700  -22.1430   -6.9340 C.3   144  GLN144      0.0367
     66  CG        -7.5960  -21.4610   -8.2970 C.3   144  GLN144      0.0905
     67  CD        -7.9090  -20.0140   -8.1410 C.2   144  GLN144      0.2608
     68  OE1       -8.9700  -19.6550   -7.6560 O.2   144  GLN144     -0.2717
     69  NE2       -6.9730  -19.1630   -8.5200 N.am  144  GLN144     -0.0878
@<TRIPOS>BOND
     1    52    51    1
     2    53    51    1
     3    40    39    1
     4    35    36    1
     5    51    50    1
     6    39    36    1
     7    38    37    2
     8    36    37    1
     9    50    47    1
    10    37    41   am
    11    47    46    1
    12    47    48    1
    13    31    33   ar
    14    31    29   ar
    15    44    43    2
    16    27    26    2
    17    33    34   ar
    18    46    43   am
    19    43    42    1
    20    41    42    1
    21    28    29    1
    22    28    25    1
    23    29    30   ar
    24    26    25    1
    25    23    21    1
    26    42    45    1
    27    48    49    2
    28    48    54   am
    29    34    32   ar
    30    25    24    1
    31    24    19   am
    32    17    18    1
    33    30    32   ar
    34    54    55    1
    35    21    18    1
    36    21    22    1
    37    19    18    1
    38    19    20    2
    39    60    58    1
    40    55    58    1
    41    55    56    1
    42    58    59    1
    43    56    57    2
    44    16    14   ar
    45    69    67   am
    46    15    14   ar
    47    66    67    1
    48    66    65    1
    49    67    68    2
    50    14    13    1
    51    61    62    1
    52    65    62    1
    53    13    10    1
    54     1     2    1
    55    62    63    1
    56    10     9    1
    57    10    11    1
    58     2     3    1
    59     8     7    2
    60     5     3   am
    61     5     6    1
    62    63    64    2
    63    11    12    2
    64     7     6    1
    65     3     4    2
