@<TRIPOS>MOLECULE
tmp/4yzzB02.pdb
 145 139 0 0 0
SMALL
GASTEIGER

@<TRIPOS>ATOM
      1  N         -8.4520   -5.5840   37.8930 N.3    12  TRP12      -0.1241
      2  CA        -8.1650   -6.9340   37.3920 C.3    12  TRP12       0.1605
      3  C         -8.3410   -7.9960   38.4520 C.2    12  TRP12       0.2264
      4  O         -8.0360   -7.7570   39.6260 O.2    12  TRP12      -0.2867
      5  CB        -6.7150   -7.0540   36.9020 C.3    12  TRP12       0.0550
      6  CG        -6.1180   -5.7530   36.5070 C.ar   12  TRP12       0.0003
      7  CD1       -5.1570   -5.0590   37.1770 C.ar   12  TRP12       0.0946
      8  CD2       -6.4840   -4.9380   35.3800 C.ar   12  TRP12       0.0152
      9  NE1       -4.9030   -3.8720   36.5440 N.ar   12  TRP12      -0.2442
     10  CE2       -5.6880   -3.7860   35.4260 C.ar   12  TRP12       0.0810
     11  CE3       -7.3880   -5.0900   34.3240 C.ar   12  TRP12       0.0012
     12  CZ2       -5.7860   -2.7720   34.4800 C.ar   12  TRP12       0.0191
     13  CZ3       -7.4700   -4.0870   33.3730 C.ar   12  TRP12       0.0001
     14  CH2       -6.6750   -2.9430   33.4610 C.ar   12  TRP12       0.0015
     15  N         -5.4960  -12.3700   35.9900 N.3    16  LEU16      -0.1245
     16  CA        -4.8910  -11.6280   34.8690 C.3    16  LEU16       0.1561
     17  C         -3.4930  -11.2660   35.3360 C.2    16  LEU16       0.2260
     18  O         -3.1930  -10.1120   35.6390 O.2    16  LEU16      -0.2867
     19  CB        -5.6730  -10.3690   34.4810 C.3    16  LEU16       0.0270
     20  CG        -6.9530  -10.5060   33.6560 C.3    16  LEU16       0.0019
     21  CD1       -7.3540   -9.1280   33.1560 C.3    16  LEU16       0.0001
     22  CD2       -6.7950  -11.4620   32.4910 C.3    16  LEU16       0.0001
     23  N         -0.8170   -8.4410   34.2340 N.3    19  ILE19      -0.1245
     24  CA        -1.2080   -7.0730   34.5320 C.3    19  ILE19       0.1561
     25  C         -1.2790   -6.8550   36.0400 C.2    19  ILE19       0.2260
     26  O         -0.6940   -5.9050   36.5400 O.2    19  ILE19      -0.2867
     27  CB        -2.5390   -6.7140   33.8650 C.3    19  ILE19       0.0252
     28  CG1       -2.4270   -6.9180   32.3450 C.3    19  ILE19       0.0019
     29  CG2       -2.9350   -5.2690   34.1660 C.3    19  ILE19       0.0019
     30  CD1       -3.7630   -6.7230   31.5910 C.3    19  ILE19       0.0001
     31  N         -7.6720    0.4930   32.8580 N.3    69  LEU69      -0.1245
     32  CA        -7.7310    0.8010   31.4410 C.3    69  LEU69       0.1561
     33  C         -8.6430    2.0030   31.2730 C.2    69  LEU69       0.2260
     34  O         -9.8450    1.8930   31.4720 O.2    69  LEU69      -0.2867
     35  CB        -8.3040   -0.3960   30.6930 C.3    69  LEU69       0.0270
     36  CG        -8.2150   -0.3620   29.1840 C.3    69  LEU69       0.0019
     37  CD1       -6.8330   -0.8440   28.7410 C.3    69  LEU69       0.0001
     38  CD2       -9.3270   -1.2100   28.5840 C.3    69  LEU69       0.0001
     39  N         -0.0310   -3.5870   27.2070 N.3   125  VAL125     -0.1245
     40  CA        -0.2990   -5.0030   27.0100 C.3   125  VAL125      0.1561
     41  C          0.2020   -5.4810   25.6490 C.2   125  VAL125      0.2260
     42  O          0.1730   -6.6760   25.3600 O.2   125  VAL125     -0.2867
     43  CB        -1.8010   -5.3110   27.1720 C.3   125  VAL125      0.0252
     44  CG1       -2.3180   -4.7570   28.4950 C.3   125  VAL125      0.0019
     45  CG2       -2.6030   -4.7320   26.0350 C.3   125  VAL125      0.0019
     46  N         -2.8730   -7.0760   20.8250 N.3   128  GLN128     -0.1245
     47  CA        -3.6450   -8.2570   21.1530 C.3   128  GLN128      0.1566
     48  C         -4.1470   -8.8640   19.8700 C.2   128  GLN128      0.2260
     49  O         -3.9560   -8.3200   18.7800 O.2   128  GLN128     -0.2867
     50  CB        -4.8620   -7.8690   21.9850 C.3   128  GLN128      0.0367
     51  CG        -4.5330   -7.1880   23.3020 C.3   128  GLN128      0.0905
     52  CD        -5.7610   -6.5960   23.9350 C.2   128  GLN128      0.2608
     53  OE1       -6.7490   -7.3020   24.2000 O.2   128  GLN128     -0.2717
     54  NE2       -5.7500   -5.2830   24.1520 N.am  128  GLN128     -0.0878
     55  N        -18.5790  -10.9090   20.9990 N.3   149  ARG149     -0.1231
     56  CA       -18.2030  -10.3600   22.3000 C.3   149  ARG149      0.1694
     57  C        -17.0430   -9.3910   22.1140 C.2   149  ARG149      0.2592
     58  O        -15.9150   -9.7870   21.7970 O.2   149  ARG149     -0.2718
     59  CB       -17.8630  -11.4750   23.2900 C.3   149  ARG149      0.0321
     60  CG       -17.6940  -11.0100   24.7220 C.3   149  ARG149      0.0489
     61  CD       -16.2550  -10.8210   25.0770 C.3   149  ARG149      0.2205
     62  NE       -16.1470  -10.2460   26.4110 N.pl3 149  ARG149     -0.0865
     63  CZ       -15.1170   -9.5320   26.8390 C.cat 149  ARG149      0.5346
     64  NH1      -14.0750   -9.3120   26.0470 N.pl3 149  ARG149      0.1354
     65  NH2      -15.1250   -9.0390   28.0710 N.pl3 149  ARG149      0.1354
     66  N        -17.3290   -8.1120   22.3000 N.am  150  ILE150     -0.1966
     67  CA       -16.3610   -7.0370   22.1450 C.3   150  ILE150      0.1727
     68  C        -17.0550   -5.8120   22.7170 C.2   150  ILE150      0.2617
     69  O        -18.3000   -5.7650   22.7580 O.2   150  ILE150     -0.2715
     70  CB       -15.9620   -6.7870   20.6670 C.3   150  ILE150      0.0290
     71  CG1      -14.7530   -5.8400   20.5900 C.3   150  ILE150      0.0022
     72  CG2      -17.1680   -6.2920   19.8440 C.3   150  ILE150      0.0023
     73  CD1      -14.1830   -5.7110   19.1860 C.3   150  ILE150      0.0001
     74  N        -16.2820   -4.8500   23.1960 N.am  151  GLY151     -0.1940
     75  CA       -16.8470   -3.6260   23.7210 C.3   151  GLY151      0.2014
     76  C        -15.9800   -2.4360   23.4150 C.2   151  GLY151      0.2639
     77  O        -15.1640   -2.4560   22.4990 O.2   151  GLY151     -0.2714
     78  N        -16.1680   -1.3840   24.1870 N.am  152  GLY152     -0.1954
     79  CA       -15.3730   -0.1840   24.0380 C.3   152  GLY152      0.1869
     80  C        -15.3500    0.3600   22.6210 C.2   152  GLY152      0.2309
     81  O        -16.3350    0.3150   21.8690 O.2   152  GLY152     -0.2863
     82  N        -13.5530  -11.5330   21.4470 N.3   186  GLU186     -0.1231
     83  CA       -12.2220  -11.0410   21.7330 C.3   186  GLU186      0.1699
     84  C        -12.0620  -11.0710   23.2400 C.2   186  GLU186      0.2592
     85  O        -12.9470  -10.6190   23.9740 O.2   186  GLU186     -0.2718
     86  CB       -12.0220   -9.6180   21.1820 C.3   186  GLU186      0.0402
     87  CG       -10.8560   -8.8600   21.7960 C.3   186  GLU186      0.1161
     88  CD        -9.5210   -9.5700   21.6010 C.2   186  GLU186      0.3649
     89  OE1       -9.4640  -10.5340   20.8150 O.co2 186  GLU186     -0.2457
     90  OE2       -8.5150   -9.1620   22.2260 O.co2 186  GLU186     -0.2457
     91  N        -10.9590  -11.6420   23.7060 N.am  187  TRP187     -0.1962
     92  CA       -10.6120  -11.5830   25.1200 C.3   187  TRP187      0.1771
     93  C         -9.3590  -10.7060   25.2060 C.2   187  TRP187      0.2619
     94  O         -9.4690   -9.4780   25.3020 O.2   187  TRP187     -0.2715
     95  CB       -10.4550  -13.0030   25.6940 C.3   187  TRP187      0.0590
     96  CG       -10.1560  -13.0620   27.1580 C.ar  187  TRP187      0.0006
     97  CD1       -9.0190  -13.5220   27.7470 C.ar  187  TRP187      0.0946
     98  CD2      -11.0230  -12.6620   28.2210 C.ar  187  TRP187      0.0152
     99  NE1       -9.1050  -13.3970   29.1200 N.ar  187  TRP187     -0.2442
    100  CE2      -10.3340  -12.8880   29.4340 C.ar  187  TRP187      0.0810
    101  CE3      -12.3170  -12.1300   28.2680 C.ar  187  TRP187      0.0012
    102  CZ2      -10.8940  -12.6010   30.6770 C.ar  187  TRP187      0.0191
    103  CZ3      -12.8720  -11.8470   29.5090 C.ar  187  TRP187      0.0001
    104  CH2      -12.1610  -12.0870   30.6940 C.ar  187  TRP187      0.0015
    105  N         -8.1700  -11.2890   25.1180 N.am  188  ILE188     -0.1977
    106  CA        -6.9440  -10.4940   25.1010 C.3   188  ILE188      0.1596
    107  C         -6.0160  -11.0270   24.0070 C.2   188  ILE188      0.2287
    108  O         -6.2730  -10.7850   22.8250 O.2   188  ILE188     -0.2864
    109  CB        -6.2840  -10.4340   26.5170 C.3   188  ILE188      0.0276
    110  CG1       -7.3040  -10.0090   27.5790 C.3   188  ILE188      0.0022
    111  CG2       -5.1210   -9.4560   26.5180 C.3   188  ILE188      0.0022
    112  CD1       -6.8010  -10.0690   29.0120 C.3   188  ILE188      0.0001
    113  N         -8.3110   -3.2040   17.4060 N.3   211  PHE211     -0.1227
    114  CA        -9.3740   -2.5620   18.1980 C.3   211  PHE211      0.1736
    115  C         -8.8580   -1.5340   19.1860 C.2   211  PHE211      0.2595
    116  O         -9.3810   -0.4350   19.2900 O.2   211  PHE211     -0.2718
    117  CB       -10.1560   -3.6180   19.0080 C.3   211  PHE211      0.0547
    118  CG       -10.5310   -4.8530   18.2420 C.ar  211  PHE211     -0.0202
    119  CD1      -11.1820   -4.7860   17.0370 C.ar  211  PHE211     -0.0042
    120  CD2      -10.2280   -6.1110   18.7620 C.ar  211  PHE211     -0.0042
    121  CE1      -11.5370   -5.9430   16.3610 C.ar  211  PHE211     -0.0003
    122  CE2      -10.5610   -7.2490   18.0960 C.ar  211  PHE211     -0.0003
    123  CZ       -11.2140   -7.1800   16.8890 C.ar  211  PHE211     -0.0000
    124  N         -7.8350   -1.9160   19.9450 N.am  212  GLU212     -0.1979
    125  CA        -7.3790   -1.1030   21.0510 C.3   212  GLU212      0.1602
    126  C         -5.9890   -0.5490   20.8060 C.2   212  GLU212      0.2287
    127  O         -5.3930    0.0150   21.7010 O.2   212  GLU212     -0.2864
    128  CB        -7.3670   -1.9250   22.3440 C.3   212  GLU212      0.0415
    129  CG        -8.7310   -2.3540   22.8070 C.3   212  GLU212      0.1163
    130  CD        -8.6930   -3.0430   24.1630 C.2   212  GLU212      0.3649
    131  OE1       -8.9460   -2.3820   25.1980 O.co2 212  GLU212     -0.2457
    132  OE2       -8.4170   -4.2560   24.2130 O.co2 212  GLU212     -0.2457
    133  N         -2.6770   -1.2510   23.9260 N.3   215  ALA215     -0.1245
    134  CA        -3.3480   -0.6470   25.0710 C.3   215  ALA215      0.1562
    135  C         -2.3970   -0.3530   26.2320 C.2   215  ALA215      0.2260
    136  O         -1.7160   -1.2490   26.7380 O.2   215  ALA215     -0.2867
    137  CB        -4.4630   -1.5310   25.5520 C.3   215  ALA215      0.0290
    138  N         -1.7440    1.0990   30.1200 N.3   217  ILE217     -0.1245
    139  CA        -2.3540    0.9720   31.4360 C.3   217  ILE217      0.1561
    140  C         -2.0160    2.2190   32.2380 C.2   217  ILE217      0.2260
    141  O         -0.8930    2.7170   32.1750 O.2   217  ILE217     -0.2867
    142  CB        -1.8500   -0.2980   32.1420 C.3   217  ILE217      0.0252
    143  CG1       -2.1270   -1.5440   31.2780 C.3   217  ILE217      0.0019
    144  CG2       -2.4210   -0.4180   33.5750 C.3   217  ILE217      0.0019
    145  CD1       -3.5900   -1.8040   30.9970 C.3   217  ILE217      0.0001
@<TRIPOS>BOND
     1   121   123   ar
     2   121   119   ar
     3   123   122   ar
     4   119   118   ar
     5   113   114    1
     6   122   120   ar
     7   114   117    1
     8   114   115    1
     9   118   120   ar
    10   118   117    1
    11    49    48    2
    12    73    71    1
    13   115   116    2
    14   115   124   am
    15    72    70    1
    16    48    47    1
    17   124   125    1
    18    71    70    1
    19    70    67    1
    20   126   125    1
    21   126   127    2
    22    89    88   ar
    23    46    47    1
    24    55    56    1
    25   125   128    1
    26    47    50    1
    27    86    83    1
    28    86    87    1
    29    82    83    1
    30    88    87    1
    31    88    90   ar
    32    83    84    1
    33    58    57    2
    34    81    80    2
    35    50    51    1
    36    57    66   am
    37    57    56    1
    38    67    66    1
    39    67    68    1
    40    56    59    1
    41   128   129    1
    42    77    76    2
    43    80    79    1
    44    68    69    2
    45    68    74   am
    46   129   130    1
    47   108   107    2
    48    74    75    1
    49    84    91   am
    50    84    85    2
    51    59    60    1
    52    51    52    1
    53    76    75    1
    54    76    78   am
    55    91    92    1
    56   133   134    1
    57    52    54   am
    58    52    53    2
    59   107   106    1
    60    79    78    1
    61   130   132   ar
    62   130   131   ar
    63    60    61    1
    64   134   137    1
    65   134   135    1
    66    61    62    1
    67   106   105    1
    68   106   109    1
    69   105    93   am
    70    92    93    1
    71    92    95    1
    72    93    94    2
    73    42    41    2
    74    41    40    1
    75    95    96    1
    76    45    43    1
    77    64    63    1
    78   135   136    2
    79    62    63    2
    80   109   111    1
    81   109   110    1
    82    63    65    1
    83    40    43    1
    84    40    39    1
    85    96    97   ar
    86    96    98   ar
    87    43    44    1
    88   110   112    1
    89    97    99   ar
    90    98   101   ar
    91    98   100   ar
    92   101   103   ar
    93    38    36    1
    94    37    36    1
    95    99   100   ar
    96    36    35    1
    97   100   102   ar
    98   103   104   ar
    99   138   139    1
   100   102   104   ar
   101    35    32    1
   102   145   143    1
   103    33    32    1
   104    33    34    2
   105   143   142    1
   106   139   142    1
   107   139   140    1
   108    32    31    1
   109    30    28    1
   110   142   144    1
   111   141   140    2
   112    28    27    1
   113    22    20    1
   114    21    20    1
   115    13    14   ar
   116    13    11   ar
   117    14    12   ar
   118    20    19    1
   119    27    29    1
   120    27    24    1
   121    23    24    1
   122    11     8   ar
   123    12    10   ar
   124    19    16    1
   125    24    25    1
   126    16    17    1
   127    16    15    1
   128    17    18    2
   129     8    10   ar
   130     8     6   ar
   131    10     9   ar
   132    25    26    2
   133     6     5    1
   134     6     7   ar
   135     9     7   ar
   136     5     2    1
   137     2     1    1
   138     2     3    1
   139     3     4    2
