@<TRIPOS>MOLECULE
tmp/4z07B00.pdb
 120 113 0 0 0
SMALL
GASTEIGER

@<TRIPOS>ATOM
      1  N         28.5950  -44.6770  -52.3450 N.3    53  ILE53      -0.1245
      2  CA        28.7180  -43.2390  -52.1460 C.3    53  ILE53       0.1561
      3  C         29.0820  -42.5650  -53.4510 C.2    53  ILE53       0.2260
      4  O         30.0610  -42.9420  -54.0930 O.2    53  ILE53      -0.2867
      5  CB        29.8100  -42.8920  -51.1200 C.3    53  ILE53       0.0252
      6  CG1       29.4200  -43.3180  -49.7170 C.3    53  ILE53       0.0019
      7  CG2       30.1380  -41.4080  -51.1500 C.3    53  ILE53       0.0019
      8  CD1       30.5380  -43.0980  -48.7370 C.3    53  ILE53       0.0001
      9  N         37.7570  -46.5680  -54.3170 N.3    72  VAL72      -0.1245
     10  CA        37.5600  -45.1560  -54.0400 C.3    72  VAL72       0.1561
     11  C         38.1240  -44.3350  -55.1840 C.2    72  VAL72       0.2260
     12  O         39.3160  -44.4270  -55.4950 O.2    72  VAL72      -0.2867
     13  CB        38.2530  -44.7250  -52.7320 C.3    72  VAL72       0.0252
     14  CG1       38.0620  -43.2300  -52.4730 C.3    72  VAL72       0.0019
     15  CG2       37.7610  -45.5560  -51.5790 C.3    72  VAL72       0.0019
     16  N         38.0720  -40.3230  -57.2250 N.3    74  LYS74      -0.1245
     17  CA        37.7400  -38.9090  -57.1770 C.3    74  LYS74       0.1561
     18  C         38.0310  -38.3080  -58.5420 C.2    74  LYS74       0.2260
     19  O         39.1370  -38.4630  -59.0610 O.2    74  LYS74      -0.2867
     20  CB        38.5210  -38.1910  -56.0790 C.3    74  LYS74       0.0271
     21  CG        38.1070  -36.7430  -55.8780 C.3    74  LYS74       0.0035
     22  CD        39.0500  -36.0280  -54.9050 C.3    74  LYS74       0.0206
     23  CE        38.6540  -34.5680  -54.7030 C.3    74  LYS74       0.1093
     24  NZ        37.3990  -34.3840  -53.9000 N.3    74  LYS74      -0.1314
     25  N         41.8640  -43.6690  -56.2560 N.3    79  LEU79      -0.1231
     26  CA        42.5880  -43.2530  -55.0510 C.3    79  LEU79       0.1693
     27  C         43.1240  -44.4520  -54.2780 C.2    79  LEU79       0.2592
     28  O         44.2620  -44.4300  -53.8160 O.2    79  LEU79      -0.2718
     29  CB        41.7060  -42.3870  -54.1330 C.3    79  LEU79       0.0284
     30  CG        41.2460  -41.0280  -54.6750 C.3    79  LEU79       0.0019
     31  CD1       40.6260  -40.1490  -53.5710 C.3    79  LEU79       0.0001
     32  CD2       42.4040  -40.3220  -55.3550 C.3    79  LEU79       0.0001
     33  N         42.2790  -45.4670  -54.0980 N.am   80  CYS80      -0.1970
     34  CA        42.6720  -46.7160  -53.4470 C.3    80  CYS80       0.1712
     35  C         41.5550  -47.7360  -53.5150 C.2    80  CYS80       0.2296
     36  O         40.4680  -47.4630  -54.0240 O.2    80  CYS80      -0.2864
     37  CB        43.0470  -46.4960  -51.9790 C.3    80  CYS80       0.0983
     38  SG        41.6350  -45.9800  -50.9530 S.3    80  CYS80      -0.0798
     39  N         39.7500  -50.4450  -50.5920 N.3    82  MET82      -0.1245
     40  CA        39.6890  -50.6750  -49.1550 C.3    82  MET82       0.1570
     41  C         39.0920  -52.0440  -48.8480 C.2    82  MET82       0.2261
     42  O         38.1440  -52.4900  -49.5000 O.2    82  MET82      -0.2867
     43  CB        38.8690  -49.5890  -48.4560 C.3    82  MET82       0.0387
     44  CG        39.3990  -48.1950  -48.6010 C.3    82  MET82       0.0595
     45  SD        38.4800  -47.0630  -47.5340 S.3    82  MET82      -0.1393
     46  CE        36.9600  -47.0300  -48.4530 C.3    82  MET82       0.0692
     47  N         37.0770  -47.6950  -41.9000 N.3    87  VAL87      -0.1231
     48  CA        36.0150  -46.7120  -41.9430 C.3    87  VAL87       0.1692
     49  C         36.0450  -46.0120  -43.2820 C.2    87  VAL87       0.2592
     50  O         37.1220  -45.7020  -43.7950 O.2    87  VAL87      -0.2718
     51  CB        36.1700  -45.6440  -40.8480 C.3    87  VAL87       0.0266
     52  CG1       35.1880  -44.4910  -41.0920 C.3    87  VAL87       0.0020
     53  CG2       36.0230  -46.2660  -39.4560 C.3    87  VAL87       0.0020
     54  N         34.8750  -45.7660  -43.8550 N.am   88  PHE88      -0.1962
     55  CA        34.7820  -44.7640  -44.9000 C.3    88  PHE88       0.1771
     56  C         33.4450  -44.0520  -44.8230 C.2    88  PHE88       0.2620
     57  O         32.4960  -44.5840  -44.2480 O.2    88  PHE88      -0.2715
     58  CB        34.9860  -45.3840  -46.2700 C.3    88  PHE88       0.0574
     59  CG        33.9830  -46.4330  -46.6190 C.ar   88  PHE88      -0.0200
     60  CD1       32.7500  -46.0870  -47.1590 C.ar   88  PHE88      -0.0042
     61  CD2       34.2710  -47.7730  -46.4200 C.ar   88  PHE88      -0.0042
     62  CE1       31.8150  -47.0620  -47.4860 C.ar   88  PHE88      -0.0003
     63  CE2       33.3470  -48.7570  -46.7500 C.ar   88  PHE88      -0.0003
     64  CZ        32.1150  -48.3970  -47.2820 C.ar   88  PHE88      -0.0000
     65  N         33.3870  -42.8490  -45.3940 N.am   89  GLY89      -0.1940
     66  CA        32.1850  -42.0380  -45.3920 C.3    89  GLY89       0.2014
     67  C         32.0570  -41.1630  -44.1540 C.2    89  GLY89       0.2639
     68  O         30.9730  -40.6440  -43.8590 O.2    89  GLY89      -0.2714
     69  N         33.1540  -40.9950  -43.4160 N.am   90  GLU90      -0.1963
     70  CA        33.1210  -40.1800  -42.2080 C.3    90  GLU90       0.1733
     71  C         33.4040  -38.6950  -42.4900 C.2    90  GLU90       0.2616
     72  O         33.0390  -37.8270  -41.7030 O.2    90  GLU90      -0.2715
     73  CB        34.1080  -40.7320  -41.1640 C.3    90  GLU90       0.0429
     74  CG        35.5830  -40.3180  -41.3680 C.3    90  GLU90       0.1163
     75  CD        36.2670  -41.0690  -42.5220 C.2    90  GLU90       0.3649
     76  OE1       35.5710  -41.6000  -43.4200 O.co2  90  GLU90      -0.2457
     77  OE2       37.5160  -41.1190  -42.5380 O.co2  90  GLU90      -0.2457
     78  N         34.0500  -38.3990  -43.6080 N.am   91  LEU91      -0.1963
     79  CA        34.4750  -37.0320  -43.8570 C.3    91  LEU91       0.1728
     80  C         33.2810  -36.1020  -43.9880 C.2    91  LEU91       0.2616
     81  O         33.2400  -35.0430  -43.3440 O.2    91  LEU91      -0.2715
     82  CB        35.3670  -36.9570  -45.1000 C.3    91  LEU91       0.0311
     83  CG        36.6990  -37.7060  -44.9320 C.3    91  LEU91       0.0022
     84  CD1       37.5450  -37.6110  -46.1840 C.3    91  LEU91       0.0001
     85  CD2       37.4840  -37.1900  -43.7390 C.3    91  LEU91       0.0001
     86  N         32.2910  -36.5100  -44.7740 N.am   92  ALA92      -0.1977
     87  CA        31.1050  -35.6770  -44.9840 C.3    92  ALA92       0.1597
     88  C         30.3980  -35.3830  -43.6590 C.2    92  ALA92       0.2287
     89  O         29.8140  -34.3250  -43.4800 O.2    92  ALA92      -0.2864
     90  CB        30.1450  -36.3440  -45.9660 C.3    92  ALA92       0.0319
     91  N         30.0480  -35.4310  -50.0000 N.3    99  ARG99      -0.1231
     92  CA        30.9590  -36.5540  -50.1630 C.3    99  ARG99       0.1694
     93  C         32.1470  -36.1470  -51.0350 C.2    99  ARG99       0.2593
     94  O         31.9700  -35.5820  -52.1060 O.2    99  ARG99      -0.2718
     95  CB        30.2210  -37.7530  -50.7630 C.3    99  ARG99       0.0321
     96  CG        29.0490  -38.2800  -49.9190 C.3    99  ARG99       0.0489
     97  CD        29.5330  -38.9710  -48.6470 C.3    99  ARG99       0.2205
     98  NE        28.4970  -39.8500  -48.1100 N.pl3  99  ARG99      -0.0865
     99  CZ        28.5610  -40.4760  -46.9360 C.cat  99  ARG99       0.5346
    100  NH1       29.6160  -40.3300  -46.1440 N.pl3  99  ARG99       0.1354
    101  NH2       27.5590  -41.2580  -46.5590 N.pl3  99  ARG99       0.1354
    102  N         33.3550  -36.4190  -50.5500 N.am  100  THR100     -0.1939
    103  CA        34.5700  -35.9240  -51.1840 C.3   100  THR100      0.2028
    104  C         35.1510  -36.8920  -52.1970 C.2   100  THR100      0.2642
    105  O         36.1730  -36.5990  -52.8300 O.2   100  THR100     -0.2714
    106  CB        35.6440  -35.6390  -50.1500 C.3   100  THR100      0.1808
    107  OG1       36.0780  -36.8820  -49.5790 O.3   100  THR100     -0.2208
    108  CG2       35.0910  -34.7140  -49.0670 C.3   100  THR100      0.0379
    109  N         34.5160  -38.0530  -52.3230 N.am  101  ALA101     -0.1977
    110  CA        34.9750  -39.0780  -53.2550 C.3   101  ALA101      0.1597
    111  C         33.8760  -40.0960  -53.4990 C.2   101  ALA101      0.2287
    112  O         32.8250  -40.0590  -52.8570 O.2   101  ALA101     -0.2864
    113  CB        36.2370  -39.7670  -52.7330 C.3   101  ALA101      0.0319
    114  N         32.6570  -44.1810  -53.7160 N.3   103  VAL103     -0.1245
    115  CA        32.9420  -45.5390  -53.2560 C.3   103  VAL103      0.1561
    116  C         32.0430  -46.5740  -53.9410 C.2   103  VAL103      0.2260
    117  O         30.8240  -46.4960  -53.8380 O.2   103  VAL103     -0.2867
    118  CB        32.7700  -45.6580  -51.7290 C.3   103  VAL103      0.0252
    119  CG1       33.2250  -47.0140  -51.2450 C.3   103  VAL103      0.0019
    120  CG2       33.5390  -44.5640  -51.0190 C.3   103  VAL103      0.0019
@<TRIPOS>BOND
     1    19    18    2
     2    18    17    1
     3    16    17    1
     4    17    20    1
     5    25    26    1
     6    20    21    1
     7    21    22    1
     8    12    11    2
     9    32    30    1
    10    11    10    1
    11    26    27    1
    12    26    29    1
    13    22    23    1
    14    23    24    1
    15    30    29    1
    16    30    31    1
    17     9    10    1
    18    27    33   am
    19    27    28    2
    20    33    34    1
    21     4     3    2
    22    10    13    1
    23    36    35    2
    24   116   117    2
    25   116   115    1
    26   114   115    1
    27    35    34    1
    28   111   110    1
    29   111   112    2
    30     3     2    1
    31    34    37    1
    32   115   118    1
    33   110   113    1
    34   110   109    1
    35   105   104    2
    36    13    14    1
    37    13    15    1
    38     1     2    1
    39   109   104   am
    40   104   103    1
    41     2     5    1
    42    94    93    2
    43    37    38    1
    44   118   119    1
    45   118   120    1
    46   103   102    1
    47   103   106    1
    48     7     5    1
    49     5     6    1
    50    93   102   am
    51    93    92    1
    52    95    92    1
    53    95    96    1
    54    39    40    1
    55    92    91    1
    56   106   107    1
    57   106   108    1
    58    96    97    1
    59     6     8    1
    60    42    41    2
    61    40    41    1
    62    40    43    1
    63    97    98    1
    64    44    43    1
    65    44    45    1
    66    46    45    1
    67    98    99    2
    68    62    64   ar
    69    62    60   ar
    70    64    63   ar
    71    60    59   ar
    72    99   101    1
    73    99   100    1
    74    63    61   ar
    75    59    61   ar
    76    59    58    1
    77    58    55    1
    78    84    83    1
    79    90    87    1
    80    65    66    1
    81    65    56   am
    82    66    67    1
    83    82    83    1
    84    82    79    1
    85    87    86    1
    86    87    88    1
    87    83    85    1
    88    55    56    1
    89    55    54    1
    90    56    57    2
    91    86    80   am
    92    67    68    2
    93    67    69   am
    94    80    79    1
    95    80    81    2
    96    79    78    1
    97    54    49   am
    98    50    49    2
    99    88    89    2
   100    78    71   am
   101    76    75   ar
   102    69    70    1
   103    49    48    1
   104    77    75   ar
   105    75    74    1
   106    71    70    1
   107    71    72    2
   108    70    73    1
   109    48    47    1
   110    48    51    1
   111    74    73    1
   112    52    51    1
   113    51    53    1
