@<TRIPOS>MOLECULE
tmp/4z0cA02.pdb
 85 81 0 0 0
SMALL
GASTEIGER

@<TRIPOS>ATOM
      1  N        -35.3720  -28.8990   78.1760 N.3    15  HIS15      -0.1226
      2  CA       -35.9020  -29.7730   77.1300 C.3    15  HIS15       0.1752
      3  C        -34.9700  -30.9550   76.9050 C.2    15  HIS15       0.2596
      4  O        -33.7730  -30.7700   76.6770 O.2    15  HIS15      -0.2718
      5  CB       -36.1140  -28.9920   75.8230 C.3    15  HIS15       0.0759
      6  CG       -37.1980  -27.9610   75.9040 C.ar   15  HIS15       0.0818
      7  ND1      -38.0170  -27.6530   74.8410 N.ar   15  HIS15      -0.2268
      8  CD2      -37.6040  -27.1730   76.9260 C.ar   15  HIS15       0.1154
      9  CE1      -38.8720  -26.7140   75.2010 C.ar   15  HIS15       0.1986
     10  NE2      -38.6510  -26.4140   76.4650 N.ar   15  HIS15      -0.2212
     11  N        -35.5100  -32.1700   76.9510 N.am   16  VAL16      -0.1966
     12  CA       -34.6670  -33.3560   76.7900 C.3    16  VAL16       0.1727
     13  C        -35.1400  -34.2300   75.6310 C.2    16  VAL16       0.2616
     14  O        -36.3220  -34.5270   75.5200 O.2    16  VAL16      -0.2715
     15  CB       -34.6150  -34.1910   78.1030 C.3    16  VAL16       0.0290
     16  CG1      -33.8430  -35.4870   77.9030 C.3    16  VAL16       0.0023
     17  CG2      -33.9800  -33.3820   79.2060 C.3    16  VAL16       0.0023
     18  N        -34.2010  -34.6510   74.7870 N.am   17  LEU17      -0.1977
     19  CA       -34.5060  -35.4250   73.5900 C.3    17  LEU17       0.1596
     20  C        -33.8780  -36.8110   73.6580 C.2    17  LEU17       0.2287
     21  O        -32.7020  -36.9340   73.9180 O.2    17  LEU17      -0.2864
     22  CB       -33.9510  -34.7000   72.3640 C.3    17  LEU17       0.0297
     23  CG       -34.2850  -33.2190   72.2140 C.3    17  LEU17       0.0022
     24  CD1      -33.2010  -32.5310   71.3880 C.3    17  LEU17       0.0001
     25  CD2      -35.6500  -33.0390   71.5660 C.3    17  LEU17       0.0001
     26  N        -34.4640  -39.3550   70.9770 N.3    19  ILE19      -0.1245
     27  CA       -35.1480  -39.7180   69.7440 C.3    19  ILE19       0.1561
     28  C        -34.3500  -40.7220   68.9060 C.2    19  ILE19       0.2260
     29  O        -33.1710  -40.5200   68.6290 O.2    19  ILE19      -0.2867
     30  CB       -35.5140  -38.4360   68.9570 C.3    19  ILE19       0.0252
     31  CG1      -36.6020  -37.6890   69.7390 C.3    19  ILE19       0.0019
     32  CG2      -36.0240  -38.7600   67.5620 C.3    19  ILE19       0.0019
     33  CD1      -36.4430  -36.2050   69.7340 C.3    19  ILE19       0.0001
     34  N        -39.6300  -30.5430   79.5480 N.3    39  HIS39      -0.1226
     35  CA       -40.0560  -31.2010   78.3010 C.3    39  HIS39       0.1752
     36  C        -39.2020  -32.4270   78.0010 C.2    39  HIS39       0.2596
     37  O        -37.9640  -32.3430   77.9350 O.2    39  HIS39      -0.2718
     38  CB       -39.9760  -30.2560   77.0980 C.3    39  HIS39       0.0759
     39  CG       -40.8670  -29.0580   77.1930 C.ar   39  HIS39       0.0818
     40  ND1      -40.7120  -28.0850   78.1540 N.ar   39  HIS39      -0.2268
     41  CD2      -41.9240  -28.6740   76.4400 C.ar   39  HIS39       0.1154
     42  CE1      -41.6290  -27.1490   77.9870 C.ar   39  HIS39       0.1986
     43  NE2      -42.3910  -27.4930   76.9640 N.ar   39  HIS39      -0.2212
     44  N        -39.8560  -33.5620   77.8110 N.am   40  LEU40      -0.1966
     45  CA       -39.1540  -34.8090   77.5600 C.3    40  LEU40       0.1728
     46  C        -39.7370  -35.4490   76.3230 C.2    40  LEU40       0.2616
     47  O        -40.9220  -35.7210   76.2900 O.2    40  LEU40      -0.2715
     48  CB       -39.3050  -35.7570   78.7460 C.3    40  LEU40       0.0311
     49  CG       -38.6900  -37.1550   78.6060 C.3    40  LEU40       0.0022
     50  CD1      -37.1570  -37.0820   78.3320 C.3    40  LEU40       0.0001
     51  CD2      -38.9770  -37.9930   79.8490 C.3    40  LEU40       0.0001
     52  N        -38.9160  -35.6740   75.2990 N.am   41  ASN41      -0.1972
     53  CA       -39.4090  -36.2510   74.0430 C.3    41  ASN41       0.1688
     54  C        -38.7860  -37.6170   73.7700 C.2    41  ASN41       0.2292
     55  O        -37.6030  -37.7130   73.4610 O.2    41  ASN41      -0.2864
     56  CB       -39.1710  -35.2880   72.8540 C.3    41  ASN41       0.1181
     57  CG       -39.9150  -35.7280   71.5820 C.2    41  ASN41       0.2629
     58  OD1      -40.2860  -36.8970   71.4800 O.2    41  ASN41      -0.2716
     59  ND2      -40.1670  -34.8080   70.6260 N.am   41  ASN41      -0.0877
     60  N        -39.9600  -39.8150   71.3850 N.3    43  THR43      -0.1218
     61  CA       -40.4900  -40.2670   70.0940 C.3    43  THR43       0.1862
     62  C        -39.5210  -41.1990   69.3640 C.2    43  THR43       0.2287
     63  O        -38.3090  -41.0070   69.4280 O.2    43  THR43      -0.2866
     64  CB       -40.7830  -39.0590   69.1920 C.3    43  THR43       0.1770
     65  OG1      -41.6530  -38.1660   69.8950 O.3    43  THR43      -0.2211
     66  CG2      -41.4090  -39.4860   67.8510 C.3    43  THR43       0.0375
     67  N        -44.4430  -31.4420   79.4030 N.3    63  ASP63      -0.1239
     68  CA       -44.6970  -31.9380   78.0610 C.3    63  ASP63       0.1674
     69  C        -44.0170  -33.2960   77.9120 C.2    63  ASP63       0.2266
     70  O        -42.8050  -33.3920   77.9470 O.2    63  ASP63      -0.2867
     71  CB       -44.1130  -30.9220   77.0730 C.3    63  ASP63       0.1410
     72  CG       -44.4600  -31.2070   75.6130 C.2    63  ASP63       0.3668
     73  OD1      -44.3410  -32.3660   75.1530 O.co2  63  ASP63      -0.2456
     74  OD2      -44.8300  -30.2400   74.9130 O.co2  63  ASP63      -0.2456
     75  N        -43.7560  -36.6640   75.4060 N.3    65  ARG65      -0.1245
     76  CA       -44.1110  -37.2400   74.1120 C.3    65  ARG65       0.1563
     77  C        -43.5230  -38.6270   73.9500 C.2    65  ARG65       0.2260
     78  O        -42.3060  -38.8080   73.9590 O.2    65  ARG65      -0.2867
     79  CB       -43.6600  -36.3400   72.9710 C.3    65  ARG65       0.0307
     80  CG       -44.3260  -34.9840   72.9720 C.3    65  ARG65       0.0489
     81  CD       -43.7560  -34.0610   71.8860 C.3    65  ARG65       0.2205
     82  NE       -44.1650  -32.6840   72.1560 N.pl3  65  ARG65      -0.0865
     83  CZ       -44.2700  -31.7220   71.2420 C.cat  65  ARG65       0.5346
     84  NH1      -43.9630  -31.9530   69.9540 N.pl3  65  ARG65       0.1354
     85  NH2      -44.6660  -30.5140   71.6290 N.pl3  65  ARG65       0.1354
@<TRIPOS>BOND
     1    32    30    1
     2    66    64    1
     3    29    28    2
     4    28    27    1
     5    30    31    1
     6    30    27    1
     7    64    65    1
     8    64    61    1
     9    62    63    2
    10    62    61    1
    11    33    31    1
    12    27    26    1
    13    84    83    1
    14    61    60    1
    15    59    57   am
    16    83    85    1
    17    83    82    2
    18    24    23    1
    19    58    57    2
    20    25    23    1
    21    57    56    1
    22    81    82    1
    23    81    80    1
    24    23    22    1
    25    22    19    1
    26    56    53    1
    27    79    80    1
    28    79    76    1
    29    55    54    2
    30    19    20    1
    31    19    18    1
    32    20    21    2
    33    54    53    1
    34    77    78    2
    35    77    76    1
    36    53    52    1
    37    76    75    1
    38    18    13   am
    39     7     9   ar
    40     7     6   ar
    41    74    72   ar
    42    73    72   ar
    43     9    10   ar
    44    52    46   am
    45    14    13    2
    46    72    71    1
    47    13    12    1
    48     5     6    1
    49     5     2    1
    50     6     8   ar
    51    47    46    2
    52    46    45    1
    53    41    43   ar
    54    41    39   ar
    55    10     8   ar
    56     4     3    2
    57    12    11    1
    58    12    15    1
    59     3    11   am
    60     3     2    1
    61    43    42   ar
    62    71    68    1
    63    38    39    1
    64    38    35    1
    65     2     1    1
    66    39    40   ar
    67    45    44    1
    68    45    48    1
    69    44    36   am
    70    16    15    1
    71    69    70    2
    72    69    68    1
    73    37    36    2
    74    42    40   ar
    75    36    35    1
    76    68    67    1
    77    15    17    1
    78    35    34    1
    79    50    49    1
    80    49    48    1
    81    49    51    1
