@<TRIPOS>MOLECULE
tmp/4z0cA07.pdb
 87 78 0 0 0
SMALL
GASTEIGER

@<TRIPOS>ATOM
      1  N        -65.3140  -37.5110   61.3020 N.3   187  GLU187     -0.1245
      2  CA       -64.7710  -37.6570   59.9570 C.3   187  GLU187      0.1567
      3  C        -64.2140  -39.0610   59.7200 C.2   187  GLU187      0.2260
      4  O        -63.5000  -39.6070   60.5500 O.2   187  GLU187     -0.2867
      5  CB       -63.6760  -36.6110   59.7040 C.3   187  GLU187      0.0388
      6  CG       -62.9610  -36.7700   58.3780 C.3   187  GLU187      0.1160
      7  CD       -61.7070  -35.9160   58.2760 C.2   187  GLU187      0.3649
      8  OE1      -61.6780  -34.8350   58.9080 O.co2 187  GLU187     -0.2457
      9  OE2      -60.7610  -36.3150   57.5490 O.co2 187  GLU187     -0.2457
     10  N        -68.1900  -32.2130   62.5320 N.3   208  SER208     -0.1217
     11  CA       -67.8750  -32.8300   61.2550 C.3   208  SER208      0.1889
     12  C        -68.3950  -34.2470   61.1740 C.2   208  SER208      0.2288
     13  O        -68.2170  -35.0280   62.1040 O.2   208  SER208     -0.2866
     14  CB       -66.3570  -32.8130   60.9730 C.3   208  SER208      0.2089
     15  OG       -66.1180  -33.5040   59.7630 O.3   208  SER208     -0.2183
     16  N        -67.9270  -35.6500   57.9780 N.3   210  SER210     -0.1202
     17  CA       -67.3890  -35.8280   56.6360 C.3   210  SER210      0.2020
     18  C        -66.8640  -37.2440   56.3490 C.2   210  SER210      0.2618
     19  O        -66.4540  -37.9560   57.2580 O.2   210  SER210     -0.2717
     20  CB       -66.2970  -34.7880   56.3810 C.3   210  SER210      0.2103
     21  OG       -65.0280  -35.3980   56.3840 O.3   210  SER210     -0.2182
     22  N        -66.9250  -37.6460   55.0790 N.am  211  ARG211     -0.1979
     23  CA       -66.3960  -38.9280   54.5950 C.3   211  ARG211      0.1597
     24  C        -66.9220  -40.1470   55.3500 C.2   211  ARG211      0.2287
     25  O        -66.1350  -40.9640   55.8250 O.2   211  ARG211     -0.2864
     26  CB       -64.8590  -38.9250   54.6400 C.3   211  ARG211      0.0334
     27  CG       -64.2020  -37.6790   54.0330 C.3   211  ARG211      0.0492
     28  CD       -62.7600  -37.5350   54.5150 C.3   211  ARG211      0.2205
     29  NE       -61.9050  -38.4200   53.7450 N.pl3 211  ARG211     -0.0865
     30  CZ       -61.4420  -39.5880   54.1770 C.cat 211  ARG211      0.5346
     31  NH1      -61.7370  -40.0230   55.4000 N.pl3 211  ARG211      0.1354
     32  NH2      -60.6780  -40.3220   53.3760 N.pl3 211  ARG211      0.1354
     33  N        -70.3260  -24.3420   62.2390 N.3   230  SER230     -0.1217
     34  CA       -69.8080  -24.9670   61.0310 C.3   230  SER230      0.1889
     35  C        -70.2800  -26.3810   60.9990 C.2   230  SER230      0.2288
     36  O        -70.0970  -27.1230   61.9680 O.2   230  SER230     -0.2866
     37  CB       -68.2690  -25.0310   61.0020 C.3   230  SER230      0.2089
     38  OG       -67.6780  -23.8470   61.4900 O.3   230  SER230     -0.2183
     39  N        -69.7420  -29.7800   58.7080 N.3   232  ASN232     -0.1240
     40  CA       -68.9260  -30.3540   57.6560 C.3   232  ASN232      0.1653
     41  C        -69.5030  -31.6680   57.1680 C.2   232  ASN232      0.2266
     42  O        -69.4300  -32.6820   57.8580 O.2   232  ASN232     -0.2867
     43  CB       -67.4870  -30.5510   58.1570 C.3   232  ASN232      0.1155
     44  CG       -66.4940  -30.7130   57.0230 C.2   232  ASN232      0.2627
     45  OD1      -66.8500  -31.1700   55.9370 O.2   232  ASN232     -0.2716
     46  ND2      -65.2420  -30.3210   57.2680 N.am  232  ASN232     -0.0877
     47  N        -68.6840  -32.7920   53.9650 N.3   234  SER234     -0.1217
     48  CA       -67.8390  -33.0740   52.7930 C.3   234  SER234      0.1889
     49  C        -67.6280  -34.5750   52.5740 C.2   234  SER234      0.2288
     50  O        -67.0900  -35.2650   53.4450 O.2   234  SER234     -0.2866
     51  CB       -66.4830  -32.3660   52.9280 C.3   234  SER234      0.2089
     52  OG       -65.6670  -32.5820   51.7880 O.3   234  SER234     -0.2183
     53  N        -70.9180  -21.5310   58.4820 N.3   253  ALA253     -0.1231
     54  CA       -70.1240  -22.1880   57.4570 C.3   253  ALA253      0.1694
     55  C        -70.6500  -23.5920   57.2190 C.2   253  ALA253      0.2592
     56  O        -71.0300  -24.2980   58.1630 O.2   253  ALA253     -0.2718
     57  CB       -68.6190  -22.2170   57.8560 C.3   253  ALA253      0.0304
     58  N        -70.6750  -23.9910   55.9510 N.am  254  MET254     -0.1965
     59  CA       -71.1080  -25.3280   55.5850 C.3   254  MET254      0.1736
     60  C        -70.1840  -25.9160   54.5430 C.2   254  MET254      0.2616
     61  O        -69.6410  -25.2030   53.6980 O.2   254  MET254     -0.2715
     62  CB       -72.5340  -25.3020   55.0280 C.3   254  MET254      0.0427
     63  CG       -73.1740  -26.6770   55.0010 C.3   254  MET254      0.0599
     64  SD       -74.9600  -26.6120   54.9370 S.3   254  MET254     -0.1393
     65  CE       -75.3470  -28.3490   55.0890 C.3   254  MET254      0.0692
     66  N        -70.0290  -27.2310   54.5880 N.am  255  ASP255     -0.1971
     67  CA       -69.2300  -27.9050   53.5900 C.3   255  ASP255      0.1709
     68  C        -70.0910  -29.0000   52.9850 C.2   255  ASP255      0.2293
     69  O        -70.4500  -29.9570   53.6670 O.2   255  ASP255     -0.2864
     70  CB       -67.9380  -28.4870   54.2140 C.3   255  ASP255      0.1436
     71  CG       -66.8720  -28.8340   53.1550 C.2   255  ASP255      0.3671
     72  OD1      -67.2350  -29.0650   51.9760 O.co2 255  ASP255     -0.2456
     73  OD2      -65.6700  -28.9040   53.5050 O.co2 255  ASP255     -0.2456
     74  N        -69.8810  -18.7460   54.7500 N.3   283  THR283     -0.1218
     75  CA       -68.8570  -19.5680   54.1360 C.3   283  THR283      0.1862
     76  C        -69.4740  -20.8500   53.6030 C.2   283  THR283      0.2287
     77  O        -70.1410  -21.5900   54.3400 O.2   283  THR283     -0.2866
     78  CB       -67.7500  -19.9310   55.1330 C.3   283  THR283      0.1770
     79  OG1      -66.9420  -18.7780   55.4050 O.3   283  THR283     -0.2211
     80  CG2      -66.8720  -21.0400   54.5850 C.3   283  THR283      0.0375
     81  N        -68.2140  -24.1700   51.3560 N.3   285  VAL285     -0.1245
     82  CA       -67.2410  -24.9860   50.6610 C.3   285  VAL285      0.1561
     83  C        -67.9830  -25.9990   49.7810 C.2   285  VAL285      0.2260
     84  O        -68.7470  -26.8400   50.2600 O.2   285  VAL285     -0.2867
     85  CB       -66.2520  -25.6340   51.6520 C.3   285  VAL285      0.0252
     86  CG1      -65.1760  -26.4300   50.9120 C.3   285  VAL285      0.0019
     87  CG2      -65.5740  -24.5390   52.4820 C.3   285  VAL285      0.0019
@<TRIPOS>BOND
     1    83    84    2
     2    83    82    1
     3    82    81    1
     4    82    85    1
     5    86    85    1
     6    85    87    1
     7    52    51    1
     8    72    71   ar
     9    49    48    1
    10    49    50    2
    11    48    51    1
    12    48    47    1
    13    68    67    1
    14    68    69    2
    15    71    73   ar
    16    71    70    1
    17    32    30    1
    18    67    70    1
    19    67    66    1
    20    76    75    1
    21    76    77    2
    22    61    60    2
    23    29    30    2
    24    29    28    1
    25    27    28    1
    26    27    26    1
    27    75    74    1
    28    75    78    1
    29    30    31    1
    30    60    66   am
    31    60    59    1
    32    80    78    1
    33    23    26    1
    34    23    22    1
    35    23    24    1
    36    64    63    1
    37    64    65    1
    38    63    62    1
    39    62    59    1
    40    22    18   am
    41    78    79    1
    42    24    25    2
    43    59    58    1
    44    45    44    2
    45    58    55   am
    46    18    17    1
    47    18    19    2
    48    20    21    1
    49    20    17    1
    50    17    16    1
    51    44    46   am
    52    44    43    1
    53    41    40    1
    54    41    42    2
    55    55    54    1
    56    55    56    2
    57    54    57    1
    58    54    53    1
    59     9     7   ar
    60    40    43    1
    61    40    39    1
    62     7     6    1
    63     7     8   ar
    64     6     5    1
    65     5     2    1
    66     3     2    1
    67     3     4    2
    68    15    14    1
    69     2     1    1
    70    14    11    1
    71    35    34    1
    72    35    36    2
    73    37    34    1
    74    37    38    1
    75    34    33    1
    76    12    11    1
    77    12    13    2
    78    11    10    1
