@<TRIPOS>MOLECULE
tmp/4z0gB00.pdb
 191 179 0 0 0
SMALL
GASTEIGER

@<TRIPOS>ATOM
      1  N         30.5570  120.0060   -6.7350 N.3    72  SER72      -0.1217
      2  CA        30.2760  121.3900   -7.0890 C.3    72  SER72       0.1889
      3  C         31.1450  122.3690   -6.3000 C.2    72  SER72       0.2288
      4  O         31.3930  122.1630   -5.1060 O.2    72  SER72      -0.2866
      5  CB        28.8020  121.6920   -6.7670 C.3    72  SER72       0.2089
      6  OG        28.4930  123.0070   -7.1040 O.3    72  SER72      -0.2183
      7  N         30.9700  124.8660   -4.2210 N.3    74  MET74      -0.1245
      8  CA        30.1010  125.5110   -3.2600 C.3    74  MET74       0.1570
      9  C         30.7080  125.4000   -1.8760 C.2    74  MET74       0.2261
     10  O         31.3900  124.4070   -1.5600 O.2    74  MET74      -0.2867
     11  CB        28.7170  124.8630   -3.2910 C.3    74  MET74       0.0387
     12  CG        28.0140  124.9810   -4.6240 C.3    74  MET74       0.0595
     13  SD        26.4360  124.1410   -4.7100 S.3    74  MET74      -0.1393
     14  CE        25.4640  125.1640   -3.6120 C.3    74  MET74       0.0692
     15  N         26.1900  132.1660  -13.0820 N.3   162  SER162     -0.1217
     16  CA        24.8860  131.6500  -13.4550 C.3   162  SER162      0.1889
     17  C         24.5570  131.8760  -14.9290 C.2   162  SER162      0.2288
     18  O         23.6510  131.2390  -15.4610 O.2   162  SER162     -0.2866
     19  CB        23.8040  132.2800  -12.5910 C.3   162  SER162      0.2089
     20  OG        23.7690  133.6540  -12.7980 O.3   162  SER162     -0.2183
     21  N         27.9050  129.1830  -16.5310 N.3   189  ASN189     -0.1240
     22  CA        26.9630  128.1470  -16.9860 C.3   189  ASN189      0.1653
     23  C         26.1820  128.5750  -18.2080 C.2   189  ASN189      0.2266
     24  O         25.8920  129.7600  -18.3910 O.2   189  ASN189     -0.2867
     25  CB        25.9790  127.7990  -15.8700 C.3   189  ASN189      0.1155
     26  CG        26.5650  126.8790  -14.8270 C.2   189  ASN189      0.2627
     27  OD1       27.7440  126.9440  -14.5260 O.2   189  ASN189     -0.2716
     28  ND2       25.7400  125.9920  -14.2760 N.am  189  ASN189     -0.0877
     29  N         29.9490  123.9610  -18.6080 N.3   208  ARG208     -0.1245
     30  CA        29.1160  123.6360  -17.4650 C.3   208  ARG208      0.1563
     31  C         27.6730  124.0420  -17.8060 C.2   208  ARG208      0.2260
     32  O         27.3940  125.2050  -18.0740 O.2   208  ARG208     -0.2867
     33  CB        29.6800  124.3800  -16.2700 C.3   208  ARG208      0.0307
     34  CG        29.1220  124.0570  -14.9320 C.3   208  ARG208      0.0489
     35  CD        29.8760  124.8750  -13.8240 C.3   208  ARG208      0.2205
     36  NE        29.2510  124.7500  -12.5300 N.pl3 208  ARG208     -0.0865
     37  CZ        29.3970  125.5970  -11.5200 C.cat 208  ARG208      0.5346
     38  NH1       30.1640  126.6790  -11.6510 N.pl3 208  ARG208      0.1354
     39  NH2       28.8070  125.3350  -10.3650 N.pl3 208  ARG208      0.1354
     40  N         23.6040  124.3360  -17.0420 N.3   210  GLY210     -0.1210
     41  CA        22.4850  124.3790  -16.1340 C.3   210  GLY210      0.1956
     42  C         22.1610  125.7900  -15.7040 C.2   210  GLY210      0.2612
     43  O         23.0670  126.5990  -15.4970 O.2   210  GLY210     -0.2717
     44  N         20.8730  126.0840  -15.5870 N.am  211  MET211     -0.1965
     45  CA        20.4430  127.3870  -15.0830 C.3   211  MET211      0.1736
     46  C         19.0870  127.2310  -14.4290 C.2   211  MET211      0.2617
     47  O         18.0650  127.0710  -15.0990 O.2   211  MET211     -0.2715
     48  CB        20.4160  128.4580  -16.1710 C.3   211  MET211      0.0427
     49  CG        20.1550  129.8540  -15.6480 C.3   211  MET211      0.0599
     50  SD        20.2020  131.0670  -16.9660 S.3   211  MET211     -0.1393
     51  CE        20.1700  132.5810  -16.0240 C.3   211  MET211      0.0692
     52  N         19.1290  127.2070  -13.1090 N.am  212  GLY212     -0.1955
     53  CA        17.9550  127.1650  -12.2650 C.3   212  GLY212      0.1869
     54  C         17.5630  125.8180  -11.7220 C.2   212  GLY212      0.2309
     55  O         16.6460  125.7290  -10.9310 O.2   212  GLY212     -0.2863
     56  N         19.3440  123.7290   -9.8240 N.3   214  GLY214     -0.1210
     57  CA        19.9310  123.3490   -8.5550 C.3   214  GLY214      0.1956
     58  C         18.9120  123.2700   -7.4290 C.2   214  GLY214      0.2613
     59  O         17.9700  124.0780   -7.3640 O.2   214  GLY214     -0.2717
     60  N         19.1000  122.3200   -6.5300 N.am  215  SER215     -0.1938
     61  CA        18.1480  122.0720   -5.4780 C.3   215  SER215      0.2055
     62  C         17.9270  123.3060   -4.5760 C.2   215  SER215      0.2643
     63  O         16.8270  123.4900   -4.0470 O.2   215  SER215     -0.2714
     64  CB        18.5810  120.8410   -4.6840 C.3   215  SER215      0.2130
     65  OG        19.8100  121.0220   -4.0180 O.3   215  SER215     -0.2179
     66  N         18.9670  124.1310   -4.4340 N.am  216  ILE216     -0.1963
     67  CA        18.9430  125.3440   -3.6010 C.3   216  ILE216      0.1727
     68  C         18.7370  126.6440   -4.3920 C.2   216  ILE216      0.2616
     69  O         18.8450  127.7240   -3.8270 O.2   216  ILE216     -0.2715
     70  CB        20.2340  125.5060   -2.7630 C.3   216  ILE216      0.0290
     71  CG1       21.5150  125.1220   -3.5270 C.3   216  ILE216      0.0022
     72  CG2       20.1170  124.7100   -1.4840 C.3   216  ILE216      0.0023
     73  CD1       21.7370  125.7830   -4.8550 C.3   216  ILE216      0.0001
     74  N         18.4710  126.5280   -5.6930 N.am  217  CYS217     -0.1968
     75  CA        18.4630  127.6750   -6.6050 C.3   217  CYS217      0.1712
     76  C         17.0520  128.1660   -6.8630 C.2   217  CYS217      0.2296
     77  O         16.1540  127.3620   -7.1140 O.2   217  CYS217     -0.2864
     78  CB        19.0800  127.2340   -7.9660 C.3   217  CYS217      0.0983
     79  SG        19.1650  128.5080   -9.1620 S.3   217  CYS217     -0.0798
     80  N         16.7710  130.9690   -9.1470 N.3   219  THR219     -0.1218
     81  CA        16.9660  131.8180  -10.3190 C.3   219  THR219      0.1862
     82  C         15.7820  131.8060  -11.2770 C.2   219  THR219      0.2287
     83  O         15.4040  132.8560  -11.7950 O.2   219  THR219     -0.2866
     84  CB        18.2430  131.3690  -11.0320 C.3   219  THR219      0.1770
     85  OG1       19.3540  131.6150  -10.1630 O.3   219  THR219     -0.2211
     86  CG2       18.4690  132.1070  -12.3330 C.3   219  THR219      0.0375
     87  N         25.1310  120.0750  -14.7660 N.3   250  ASP250     -0.1225
     88  CA        25.2240  120.6400  -13.4240 C.3   250  ASP250      0.1805
     89  C         23.8640  121.0840  -12.9140 C.2   250  ASP250      0.2598
     90  O         23.2770  122.0390  -13.4400 O.2   250  ASP250     -0.2718
     91  CB        26.1440  121.8530  -13.4960 C.3   250  ASP250      0.1424
     92  CG        26.2950  122.5550  -12.1920 C.2   250  ASP250      0.3668
     93  OD1       25.9960  121.9670  -11.1200 O.co2 250  ASP250     -0.2456
     94  OD2       26.7010  123.7500  -12.2410 O.co2 250  ASP250     -0.2456
     95  N         23.3880  120.4250  -11.8610 N.am  251  GLY251     -0.1942
     96  CA        22.1470  120.8180  -11.2150 C.3   251  GLY251      0.2014
     97  C         21.0350  119.8170  -11.4060 C.2   251  GLY251      0.2639
     98  O         20.8900  119.2360  -12.4800 O.2   251  GLY251     -0.2714
     99  N         20.2290  119.6310  -10.3870 N.am  252  GLY252     -0.1939
    100  CA        19.0430  118.7950  -10.5260 C.3   252  GLY252      0.2014
    101  C         19.2870  117.3060  -10.4740 C.2   252  GLY252      0.2639
    102  O         18.3540  116.5440  -10.7310 O.2   252  GLY252     -0.2714
    103  N         20.5030  116.8770  -10.1470 N.am  253  VAL253     -0.1963
    104  CA        20.7940  115.4490  -10.0150 C.3   253  VAL253      0.1727
    105  C         20.5470  115.0420   -8.5600 C.2   253  VAL253      0.2616
    106  O         21.0640  115.6730   -7.6230 O.2   253  VAL253     -0.2715
    107  CB        22.2650  115.1640  -10.4130 C.3   253  VAL253      0.0290
    108  CG1       22.5820  113.6820  -10.3600 C.3   253  VAL253      0.0023
    109  CG2       22.5400  115.7050  -11.8070 C.3   253  VAL253      0.0023
    110  N         19.7450  114.0020   -8.3560 N.am  254  GLN254     -0.1977
    111  CA        19.4430  113.5110   -7.0200 C.3   254  GLN254      0.1601
    112  C         19.7040  112.0180   -6.8170 C.2   254  GLN254      0.2287
    113  O         19.7000  111.5510   -5.7010 O.2   254  GLN254     -0.2864
    114  CB        17.9820  113.7980   -6.6840 C.3   254  GLN254      0.0394
    115  CG        17.7070  115.2530   -6.3640 C.3   254  GLN254      0.0908
    116  CD        18.2080  115.6330   -4.9880 C.2   254  GLN254      0.2608
    117  OE1       18.0260  114.8780   -4.0210 O.2   254  GLN254     -0.2717
    118  NE2       18.8250  116.8010   -4.8720 N.am  254  GLN254     -0.0878
    119  N         27.7170  117.0340  -12.3350 N.3   271  MET271     -0.1230
    120  CA        28.1560  117.7760  -11.1710 C.3   271  MET271      0.1702
    121  C         27.0570  117.7230  -10.1240 C.2   271  MET271      0.2592
    122  O         25.8810  117.8830  -10.4290 O.2   271  MET271     -0.2718
    123  CB        28.4820  119.2190  -11.5350 C.3   271  MET271      0.0401
    124  CG        28.8350  120.0910  -10.3420 C.3   271  MET271      0.0596
    125  SD        29.3390  121.7640  -10.8080 S.3   271  MET271     -0.1393
    126  CE        31.0210  121.4900  -11.3460 C.3   271  MET271      0.0692
    127  N         27.4680  117.4700   -8.8910 N.am  272  MET272     -0.1965
    128  CA        26.5540  117.3640   -7.7750 C.3   272  MET272      0.1736
    129  C         26.9110  118.2700   -6.6220 C.2   272  MET272      0.2617
    130  O         28.0630  118.3590   -6.2130 O.2   272  MET272     -0.2715
    131  CB        26.5490  115.9310   -7.2550 C.3   272  MET272      0.0427
    132  CG        26.0270  114.9130   -8.2460 C.3   272  MET272      0.0599
    133  SD        26.4210  113.2150   -7.7750 S.3   272  MET272     -0.1393
    134  CE        28.1460  113.1140   -8.2340 C.3   272  MET272      0.0692
    135  N         25.8850  118.9260   -6.1030 N.am  273  GLY273     -0.1940
    136  CA        26.0100  119.7590   -4.9350 C.3   273  GLY273      0.2014
    137  C         25.2190  119.1190   -3.8000 C.2   273  GLY273      0.2639
    138  O         25.7930  118.6120   -2.8480 O.2   273  GLY273     -0.2714
    139  N         23.8960  119.1050   -3.9170 N.am  274  GLY274     -0.1939
    140  CA        23.0440  118.5600   -2.8750 C.3   274  GLY274      0.2014
    141  C         23.3260  117.1170   -2.4940 C.2   274  GLY274      0.2638
    142  O         23.2840  116.7640   -1.3210 O.2   274  GLY274     -0.2714
    143  N         23.6250  116.2720   -3.4810 N.am  275  MET275     -0.1976
    144  CA        23.8860  114.8640   -3.1850 C.3   275  MET275      0.1605
    145  C         25.1400  114.6860   -2.3510 C.2   275  MET275      0.2287
    146  O         25.2660  113.6710   -1.6640 O.2   275  MET275     -0.2864
    147  CB        24.0290  114.0590   -4.4710 C.3   275  MET275      0.0413
    148  CG        22.7230  113.7780   -5.1500 C.3   275  MET275      0.0598
    149  SD        22.8980  113.1170   -6.8170 S.3   275  MET275     -0.1393
    150  CE        23.4210  111.4300   -6.5030 C.3   275  MET275      0.0692
    151  N         23.2760  123.3850    3.7920 N.3   296  TYR296     -0.1241
    152  CA        23.5520  123.3720    2.3720 C.3   296  TYR296      0.1605
    153  C         22.8960  124.6470    1.8560 C.2   296  TYR296      0.2264
    154  O         21.7280  124.8830    2.1090 O.2   296  TYR296     -0.2867
    155  CB        22.9860  122.0930    1.6810 C.3   296  TYR296      0.0534
    156  CG        23.1670  122.0950    0.1760 C.ar  296  TYR296     -0.0201
    157  CD1       24.4150  122.3790   -0.3770 C.ar  296  TYR296     -0.0009
    158  CD2       22.1230  121.8420   -0.7010 C.ar  296  TYR296     -0.0009
    159  CE1       24.6110  122.4020   -1.7300 C.ar  296  TYR296      0.0417
    160  CE2       22.3020  121.8880   -2.0720 C.ar  296  TYR296      0.0417
    161  CZ        23.5490  122.1830   -2.5850 C.ar  296  TYR296      0.1957
    162  OH        23.7410  122.2660   -3.9410 O.3   296  TYR296     -0.2866
    163  N         22.7300  127.8780   -1.3650 N.3   298  GLY298     -0.1210
    164  CA        23.0790  128.4370   -2.6520 C.3   298  GLY298      0.1956
    165  C         24.1820  129.4730   -2.5260 C.2   298  GLY298      0.2612
    166  O         24.2710  130.2020   -1.5280 O.2   298  GLY298     -0.2717
    167  N         25.0380  129.5560   -3.5330 N.am  299  MET299     -0.1965
    168  CA        26.0820  130.5750   -3.5370 C.3   299  MET299      0.1736
    169  C         25.5170  131.9690   -3.7740 C.2   299  MET299      0.2617
    170  O         26.1960  132.9630   -3.5060 O.2   299  MET299     -0.2715
    171  CB        27.1900  130.2180   -4.5270 C.3   299  MET299      0.0427
    172  CG        27.9400  128.9480   -4.1430 C.3   299  MET299      0.0599
    173  SD        28.5380  128.9240   -2.4440 S.3   299  MET299     -0.1393
    174  CE        29.7590  130.1600   -2.4960 C.3   299  MET299      0.0692
    175  N         24.2660  132.0350   -4.2410 N.am  300  GLY300     -0.1955
    176  CA        23.5390  133.2810   -4.3730 C.3   300  GLY300      0.1869
    177  C         22.5330  133.5020   -3.2500 C.2   300  GLY300      0.2309
    178  O         21.6640  134.3730   -3.3470 O.2   300  GLY300     -0.2863
    179  N         19.4860  134.6930   -5.2370 N.3   316  GLN316     -0.1231
    180  CA        19.1820  133.7000   -6.2650 C.3   316  GLN316      0.1698
    181  C         19.3050  132.2680   -5.7720 C.2   316  GLN316      0.2592
    182  O         19.1590  131.3320   -6.5470 O.2   316  GLN316     -0.2718
    183  CB        20.0330  133.9410   -7.5160 C.3   316  GLN316      0.0381
    184  CG        19.6660  135.2850   -8.1470 C.3   316  GLN316      0.0905
    185  CD        20.2600  135.5200   -9.4890 C.2   316  GLN316      0.2608
    186  OE1       20.2420  134.6480  -10.3410 O.2   316  GLN316     -0.2717
    187  NE2       20.7480  136.7350   -9.7160 N.am  316  GLN316     -0.0878
    188  N         19.4660  132.1150   -4.4640 N.am  317  GLY317     -0.1957
    189  CA        19.4740  130.8120   -3.8360 C.3   317  GLY317      0.1869
    190  C         19.0310  130.9310   -2.4020 C.2   317  GLY317      0.2309
    191  O         18.8840  132.0430   -1.8860 O.2   317  GLY317     -0.2863
@<TRIPOS>BOND
     1    29    30    1
     2    24    23    2
     3    23    22    1
     4    32    31    2
     5    31    30    1
     6    30    33    1
     7    40    41    1
     8    22    21    1
     9    22    25    1
    10    50    51    1
    11    50    49    1
    12    33    34    1
    13    48    49    1
    14    48    45    1
    15    41    42    1
    16    25    26    1
    17    42    44   am
    18    42    43    2
    19    44    45    1
    20    18    17    2
    21    47    46    2
    22    45    46    1
    23    34    35    1
    24    17    16    1
    25    26    27    2
    26    26    28   am
    27    87    88    1
    28    46    52   am
    29    35    36    1
    30    91    88    1
    31    91    92    1
    32    16    15    1
    33    16    19    1
    34    90    89    2
    35    88    89    1
    36    52    53    1
    37    89    95   am
    38    20    19    1
    39    36    37    2
    40    98    97    2
    41   119   120    1
    42    86    84    1
    43    53    54    1
    44    94    92   ar
    45    92    93   ar
    46    95    96    1
    47   109   107    1
    48    83    82    2
    49    54    55    2
    50    38    37    1
    51   123   120    1
    52   123   124    1
    53    37    39    1
    54    97    96    1
    55    97    99   am
    56   126   125    1
    57    82    81    1
    58   120   121    1
    59    84    81    1
    60    84    85    1
    61   125   124    1
    62   102   101    2
    63   100   101    1
    64   100    99    1
    65   101   103   am
    66   122   121    2
    67   107   108    1
    68   107   104    1
    69   186   185    2
    70    81    80    1
    71   103   104    1
    72   121   127   am
    73   104   105    1
    74    56    57    1
    75   187   185   am
    76   185   184    1
    77    79    78    1
    78   127   128    1
    79   105   110   am
    80   105   106    2
    81    57    58    1
    82   110   111    1
    83   132   133    1
    84   132   131    1
    85   134   133    1
    86   184   183    1
    87    78    75    1
    88   128   131    1
    89   128   129    1
    90   183   180    1
    91    58    59    2
    92    58    60   am
    93    77    76    2
    94     6     5    1
    95     2     5    1
    96     2     1    1
    97     2     3    1
    98   111   112    1
    99   111   114    1
   100    76    75    1
   101   149   150    1
   102   149   148    1
   103   112   113    2
   104   114   115    1
   105   129   130    2
   106   129   135   am
   107    75    74    1
   108   182   181    2
   109    60    61    1
   110   115   116    1
   111     3     4    2
   112   180   181    1
   113   180   179    1
   114   135   136    1
   115   181   188   am
   116    74    68   am
   117    61    64    1
   118    61    62    1
   119   148   147    1
   120   116   118   am
   121   116   117    2
   122   136   137    1
   123    73    71    1
   124    13    12    1
   125    13    14    1
   126    64    65    1
   127    12    11    1
   128    62    66   am
   129    62    63    2
   130   171   172    1
   131   171   168    1
   132   147   144    1
   133   188   189    1
   134    66    67    1
   135    68    69    2
   136    68    67    1
   137   176   175    1
   138   176   177    1
   139   175   169   am
   140     7     8    1
   141   172   173    1
   142   162   161    1
   143   139   137   am
   144   139   140    1
   145   189   190    1
   146   137   138    2
   147   169   168    1
   148   169   170    2
   149    67    70    1
   150   168   167    1
   151   167   165   am
   152    71    70    1
   153   143   144    1
   154   143   141   am
   155   178   177    2
   156    11     8    1
   157     8     9    1
   158   144   145    1
   159   140   141    1
   160    70    72    1
   161   164   165    1
   162   164   163    1
   163   161   160   ar
   164   161   159   ar
   165   165   166    2
   166   174   173    1
   167   141   142    2
   168   190   191    2
   169   145   146    2
   170   160   158   ar
   171     9    10    2
   172   159   157   ar
   173   158   156   ar
   174   157   156   ar
   175   156   155    1
   176   155   152    1
   177   153   154    2
   178   153   152    1
   179   152   151    1
