@<TRIPOS>MOLECULE
tmp/4z0kA00.pdb
 153 151 0 0 0
SMALL
GASTEIGER

@<TRIPOS>ATOM
      1  N        -10.0420  -50.7790   -8.8690 N.3    84  ASN84      -0.1240
      2  CA       -10.5740  -49.4800   -8.5540 C.3    84  ASN84       0.1653
      3  C         -9.4690  -48.4570   -8.7620 C.2    84  ASN84       0.2266
      4  O         -8.4910  -48.4510   -8.0270 O.2    84  ASN84      -0.2867
      5  CB       -11.0980  -49.4470   -7.1160 C.3    84  ASN84       0.1155
      6  CG       -11.8300  -48.1720   -6.7450 C.2    84  ASN84       0.2627
      7  OD1      -11.7860  -47.1470   -7.4520 O.2    84  ASN84      -0.2716
      8  ND2      -12.5240  -48.2080   -5.6180 N.am   84  ASN84      -0.0877
      9  N         -9.4350  -45.5070   -7.8940 N.3    86  TYR86      -0.1241
     10  CA        -9.4000  -44.5530   -6.7840 C.3    86  TYR86       0.1605
     11  C         -9.2240  -45.1390   -5.3520 C.2    86  TYR86       0.2264
     12  O         -9.3560  -44.3950   -4.3800 O.2    86  TYR86      -0.2867
     13  CB       -10.6790  -43.7190   -6.8710 C.3    86  TYR86       0.0534
     14  CG       -10.8120  -43.0470   -8.2170 C.ar   86  TYR86      -0.0201
     15  CD1      -10.0320  -41.9390   -8.5450 C.ar   86  TYR86      -0.0009
     16  CD2      -11.6370  -43.5730   -9.2040 C.ar   86  TYR86      -0.0009
     17  CE1      -10.0800  -41.3710   -9.8100 C.ar   86  TYR86       0.0417
     18  CE2      -11.7170  -42.9900  -10.4680 C.ar   86  TYR86       0.0417
     19  CZ       -10.9450  -41.8800  -10.7650 C.ar   86  TYR86       0.1957
     20  OH       -11.0100  -41.2800  -12.0000 O.3    86  TYR86      -0.2866
     21  N        -16.9800  -26.8260  -13.0700 N.3   135  HIS135     -0.1226
     22  CA       -17.1430  -28.1810  -13.5940 C.3   135  HIS135      0.1752
     23  C        -17.1680  -28.1170  -15.1280 C.2   135  HIS135      0.2595
     24  O        -17.8630  -27.2830  -15.7230 O.2   135  HIS135     -0.2718
     25  CB       -18.4240  -28.8250  -13.0590 C.3   135  HIS135      0.0759
     26  CG       -18.7310  -30.1800  -13.6350 C.ar  135  HIS135      0.0818
     27  ND1      -17.9230  -31.2770  -13.3770 N.ar  135  HIS135     -0.2268
     28  CD2      -19.7420  -30.5640  -14.4520 C.ar  135  HIS135      0.1154
     29  CE1      -18.4810  -32.2960  -14.0190 C.ar  135  HIS135      0.1986
     30  NE2      -19.5720  -31.9150  -14.6820 N.ar  135  HIS135     -0.2212
     31  N        -16.3270  -28.9430  -15.7650 N.am  136  LYS136     -0.1980
     32  CA       -16.1320  -28.9740  -17.2190 C.3   136  LYS136      0.1596
     33  C        -15.7030  -27.6250  -17.8110 C.2   136  LYS136      0.2287
     34  O        -15.8130  -27.4220  -19.0090 O.2   136  LYS136     -0.2864
     35  CB       -17.3690  -29.5170  -17.9310 C.3   136  LYS136      0.0298
     36  CG       -17.6230  -30.9850  -17.6260 C.3   136  LYS136      0.0038
     37  CD       -18.8010  -31.4710  -18.4810 C.3   136  LYS136      0.0206
     38  CE       -19.1160  -32.9330  -18.3270 C.3   136  LYS136      0.1093
     39  NZ       -20.3270  -33.3050  -19.1110 N.3   136  LYS136     -0.1314
     40  N        -21.1840  -44.8360   -5.4020 N.3   162  PHE162     -0.1241
     41  CA       -19.9180  -45.5320   -5.1580 C.3   162  PHE162      0.1605
     42  C        -19.6910  -45.7760   -3.6660 C.2   162  PHE162      0.2264
     43  O        -20.1750  -45.0130   -2.8290 O.2   162  PHE162     -0.2867
     44  CB       -18.7370  -44.7280   -5.7160 C.3   162  PHE162      0.0534
     45  CG       -18.7890  -44.4480   -7.2010 C.ar  162  PHE162     -0.0203
     46  CD1      -18.4370  -45.4250   -8.1200 C.ar  162  PHE162     -0.0042
     47  CD2      -19.1270  -43.1860   -7.6780 C.ar  162  PHE162     -0.0042
     48  CE1      -18.4690  -45.1590   -9.4900 C.ar  162  PHE162     -0.0003
     49  CE2      -19.1330  -42.9160   -9.0440 C.ar  162  PHE162     -0.0003
     50  CZ       -18.8140  -43.9070   -9.9430 C.ar  162  PHE162     -0.0000
     51  N        -15.1680  -26.6140   -4.0730 N.3   179  ASP179     -0.1225
     52  CA       -14.6890  -27.9890   -4.1380 C.3   179  ASP179      0.1805
     53  C        -13.4090  -28.1000   -4.8910 C.2   179  ASP179      0.2598
     54  O        -12.9990  -27.1870   -5.6020 O.2   179  ASP179     -0.2718
     55  CB       -15.7310  -28.8160   -4.9330 C.3   179  ASP179      0.1424
     56  CG       -15.8320  -30.3140   -4.7540 C.2   179  ASP179      0.3668
     57  OD1      -14.9760  -30.8910   -4.0490 O.co2 179  ASP179     -0.2456
     58  OD2      -16.7920  -30.9150   -5.3410 O.co2 179  ASP179     -0.2456
     59  N        -12.7350  -29.2500   -4.7490 N.am  180  SER180     -0.1938
     60  CA       -11.5990  -29.5470   -5.6170 C.3   180  SER180      0.2055
     61  C        -12.2590  -29.9860   -6.9630 C.2   180  SER180      0.2643
     62  O        -13.4830  -30.1390   -7.0270 O.2   180  SER180     -0.2714
     63  CB       -10.7500  -30.6740   -5.0450 C.3   180  SER180      0.2130
     64  OG       -11.5740  -31.7390   -4.6180 O.3   180  SER180     -0.2179
     65  N        -11.4850  -30.1300   -8.0400 N.am  181  CYS181     -0.1953
     66  CA       -12.0130  -30.4970   -9.3490 C.3   181  CYS181      0.1843
     67  C        -10.9610  -31.2460  -10.1580 C.2   181  CYS181      0.2625
     68  O         -9.8050  -31.3860   -9.7210 O.2   181  CYS181     -0.2714
     69  CB       -12.5350  -29.2620  -10.0900 C.3   181  CYS181      0.0997
     70  SG       -13.7070  -29.5990  -11.4520 S.3   181  CYS181     -0.0797
     71  N        -11.3430  -31.6670  -11.3430 N.am  182  GLN182     -0.1977
     72  CA       -10.4200  -32.3520  -12.2430 C.3   182  GLN182      0.1601
     73  C         -9.1720  -31.5080  -12.4920 C.2   182  GLN182      0.2287
     74  O         -9.2730  -30.2920  -12.7090 O.2   182  GLN182     -0.2864
     75  CB       -11.1110  -32.6020  -13.5730 C.3   182  GLN182      0.0394
     76  CG       -10.2650  -33.4130  -14.5590 C.3   182  GLN182      0.0908
     77  CD       -11.0850  -33.8150  -15.7430 C.2   182  GLN182      0.2608
     78  OE1      -11.8510  -33.0180  -16.2930 O.2   182  GLN182     -0.2717
     79  NE2      -10.9770  -35.0660  -16.1630 N.am  182  GLN182     -0.0878
     80  N         -6.3360  -33.4130   -8.7090 N.3   185  SER185     -0.1217
     81  CA        -5.9540  -34.7200   -8.1620 C.3   185  SER185      0.1889
     82  C         -4.4920  -34.8140   -7.8600 C.2   185  SER185      0.2288
     83  O         -3.6610  -34.3270   -8.6240 O.2   185  SER185     -0.2866
     84  CB        -6.2590  -35.8520   -9.1390 C.3   185  SER185      0.2089
     85  OG        -7.6380  -35.9430   -9.3990 O.3   185  SER185     -0.2183
     86  N         -5.8420  -35.1970   -2.6520 N.3   203  ILE203     -0.1231
     87  CA        -7.0360  -34.9400   -3.4790 C.3   203  ILE203      0.1692
     88  C         -7.1880  -36.1100   -4.4420 C.2   203  ILE203      0.2593
     89  O         -6.2230  -36.4880   -5.0860 O.2   203  ILE203     -0.2718
     90  CB        -6.8230  -33.6310   -4.2160 C.3   203  ILE203      0.0266
     91  CG1       -6.6380  -32.4610   -3.2380 C.3   203  ILE203      0.0019
     92  CG2       -8.0150  -33.3470   -5.1550 C.3   203  ILE203      0.0020
     93  CD1       -6.2190  -31.1500   -3.9520 C.3   203  ILE203      0.0001
     94  N         -8.3890  -36.7390   -4.4930 N.am  204  SER204     -0.1938
     95  CA        -8.5690  -37.9400   -5.2940 C.3   204  SER204      0.2055
     96  C         -9.6260  -37.7860   -6.3550 C.2   204  SER204      0.2643
     97  O         -9.2870  -37.8390   -7.5210 O.2   204  SER204     -0.2714
     98  CB        -8.9030  -39.0940   -4.3690 C.3   204  SER204      0.2130
     99  OG        -8.8710  -40.3270   -5.0730 O.3   204  SER204     -0.2179
    100  N        -10.8960  -37.6140   -5.9970 N.am  205  TRP205     -0.1959
    101  CA       -11.9250  -37.5650   -7.0410 C.3   205  TRP205      0.1771
    102  C        -13.2030  -36.9760   -6.5130 C.2   205  TRP205      0.2620
    103  O        -13.3180  -36.6310   -5.3490 O.2   205  TRP205     -0.2715
    104  CB       -12.2050  -39.0000   -7.5840 C.3   205  TRP205      0.0590
    105  CG       -12.7480  -39.9630   -6.5700 C.ar  205  TRP205      0.0006
    106  CD1      -12.0280  -40.7030   -5.6850 C.ar  205  TRP205      0.0946
    107  CD2      -14.1210  -40.3320   -6.3770 C.ar  205  TRP205      0.0152
    108  NE1      -12.8630  -41.5120   -4.9480 N.ar  205  TRP205     -0.2442
    109  CE2      -14.1540  -41.2960   -5.3450 C.ar  205  TRP205      0.0810
    110  CE3      -15.3270  -39.9580   -6.9880 C.ar  205  TRP205      0.0012
    111  CZ2      -15.3410  -41.9080   -4.9260 C.ar  205  TRP205      0.0191
    112  CZ3      -16.5090  -40.5230   -6.5290 C.ar  205  TRP205      0.0001
    113  CH2      -16.5060  -41.4790   -5.5050 C.ar  205  TRP205      0.0015
    114  N        -14.1660  -36.8670   -7.4110 N.am  206  GLY206     -0.1940
    115  CA       -15.5270  -36.4900   -7.0930 C.3   206  GLY206      0.2014
    116  C        -16.3600  -36.7520   -8.3230 C.2   206  GLY206      0.2639
    117  O        -15.8090  -37.0600   -9.3870 O.2   206  GLY206     -0.2714
    118  N        -17.6830  -36.6450   -8.2110 N.am  207  GLU207     -0.1963
    119  CA       -18.5690  -36.9230   -9.3540 C.3   207  GLU207      0.1733
    120  C        -18.8800  -35.7470  -10.2530 C.2   207  GLU207      0.2616
    121  O        -18.9910  -35.9120  -11.4650 O.2   207  GLU207     -0.2715
    122  CB       -19.8800  -37.4960   -8.8460 C.3   207  GLU207      0.0429
    123  CG       -19.7010  -38.8700   -8.2610 C.3   207  GLU207      0.1163
    124  CD       -21.0060  -39.5150   -7.8570 C.2   207  GLU207      0.3649
    125  OE1      -21.1510  -39.8360   -6.6590 O.co2 207  GLU207     -0.2457
    126  OE2      -21.9210  -39.6000   -8.7060 O.co2 207  GLU207     -0.2457
    127  N        -19.0770  -34.5690   -9.6630 N.am  208  GLU208     -0.1963
    128  CA       -19.3970  -33.3610  -10.4000 C.3   208  GLU208      0.1733
    129  C        -18.9320  -32.2140   -9.5390 C.2   208  GLU208      0.2616
    130  O        -19.4470  -32.0350   -8.4470 O.2   208  GLU208     -0.2715
    131  CB       -20.9030  -33.3040  -10.6540 C.3   208  GLU208      0.0429
    132  CG       -21.2930  -32.1330  -11.5220 C.3   208  GLU208      0.1163
    133  CD       -22.7550  -32.0230  -11.9000 C.2   208  GLU208      0.3649
    134  OE1      -23.5060  -33.0060  -11.7220 O.co2 208  GLU208     -0.2457
    135  OE2      -23.1420  -30.9470  -12.4040 O.co2 208  GLU208     -0.2457
    136  N        -17.9090  -31.4880   -9.9800 N.am  209  CYS209     -0.1968
    137  CA       -17.2810  -30.5120   -9.1100 C.3   209  CYS209      0.1712
    138  C        -18.2240  -29.4940   -8.6040 C.2   209  CYS209      0.2296
    139  O        -18.9060  -28.8580   -9.4090 O.2   209  CYS209     -0.2864
    140  CB       -16.1050  -29.8290   -9.8020 C.3   209  CYS209      0.0983
    141  SG       -15.0100  -30.9660  -10.6790 S.3   209  CYS209     -0.0798
    142  N        -16.1770  -33.6200   -2.3880 N.3   216  GLY216     -0.1210
    143  CA       -14.8790  -34.0490   -2.8560 C.3   216  GLY216      0.1956
    144  C        -14.4500  -35.2360   -2.0210 C.2   216  GLY216      0.2611
    145  O        -14.7360  -35.2780   -0.8230 O.2   216  GLY216     -0.2717
    146  N        -13.8000  -36.2180   -2.6620 N.am  217  ILE217     -0.1979
    147  CA       -13.3340  -37.4440   -2.0190 C.3   217  ILE217      0.1595
    148  C        -11.8150  -37.4210   -1.9980 C.2   217  ILE217      0.2287
    149  O        -11.1720  -37.0880   -3.0020 O.2   217  ILE217     -0.2864
    150  CB       -13.8690  -38.7000   -2.7330 C.3   217  ILE217      0.0276
    151  CG1      -15.3470  -38.5630   -3.0900 C.3   217  ILE217      0.0022
    152  CG2      -13.6130  -39.9290   -1.8740 C.3   217  ILE217      0.0022
    153  CD1      -16.3040  -38.3910   -2.0040 C.3   217  ILE217      0.0001
@<TRIPOS>BOND
     1    39    38    1
     2    34    33    2
     3    37    38    1
     4    37    36    1
     5    35    36    1
     6    35    32    1
     7    33    32    1
     8    32    31    1
     9    78    77    2
    10    79    77   am
    11    31    23   am
    12    77    76    1
    13    24    23    2
    14    23    22    1
    15    30    28   ar
    16    30    29   ar
    17    76    75    1
    18    28    26   ar
    19    29    27   ar
    20    26    27   ar
    21    26    25    1
    22    22    21    1
    23    22    25    1
    24    75    72    1
    25    74    73    2
    26    73    72    1
    27   135   133   ar
    28    72    71    1
    29    20    19    1
    30   133   134   ar
    31   133   132    1
    32   132   131    1
    33   121   120    2
    34    70   141    1
    35    70    69    1
    36    71    67   am
    37    19    18   ar
    38    19    17   ar
    39   141   140    1
    40   131   128    1
    41    18    16   ar
    42   128   127    1
    43   128   129    1
    44   120   127   am
    45   120   119    1
    46    67    68    2
    47    67    66    1
    48    69    66    1
    49   136   129   am
    50   136   137    1
    51    50    48   ar
    52    50    49   ar
    53    17    15   ar
    54   140   137    1
    55   129   130    2
    56    48    46   ar
    57   139   138    2
    58    85    84    1
    59   117   116    2
    60   119   122    1
    61   119   118    1
    62    66    65    1
    63    16    14   ar
    64    84    81    1
    65   137   138    1
    66    49    47   ar
    67     1     2    1
    68   122   123    1
    69     3     2    1
    70     3     4    2
    71    80    81    1
    72   126   124   ar
    73    83    82    2
    74     2     5    1
    75    15    14   ar
    76   116   118   am
    77   116   115    1
    78   123   124    1
    79    14    13    1
    80    81    82    1
    81    46    45   ar
    82    65    61   am
    83     9    10    1
    84   124   125   ar
    85    47    45   ar
    86   104   101    1
    87   104   105    1
    88    97    96    2
    89     7     6    2
    90   114   115    1
    91   114   102   am
    92    45    44    1
    93     5     6    1
    94   101   102    1
    95   101   100    1
    96    62    61    2
    97   110   112   ar
    98   110   107   ar
    99    61    60    1
   100    13    10    1
   101    10    11    1
   102     6     8   am
   103   105   107   ar
   104   105   106   ar
   105   112   113   ar
   106   102   103    2
   107   107   109   ar
   108    96   100   am
   109    96    95    1
   110    44    41    1
   111   106   108   ar
   112    60    63    1
   113    60    59    1
   114    54    53    2
   115   113   111   ar
   116    40    41    1
   117    11    12    2
   118   109   108   ar
   119   109   111   ar
   120    58    56   ar
   121    95    94    1
   122    95    98    1
   123    41    42    1
   124    92    90    1
   125    89    88    2
   126    99    98    1
   127    63    64    1
   128    55    56    1
   129    55    52    1
   130    53    59   am
   131    53    52    1
   132    56    57   ar
   133    94    88   am
   134    88    87    1
   135    90    87    1
   136    90    91    1
   137    52    51    1
   138    93    91    1
   139    42    43    2
   140    87    86    1
   141   151   150    1
   142   151   153    1
   143   149   148    2
   144   143   142    1
   145   143   144    1
   146   150   147    1
   147   150   152    1
   148   146   144   am
   149   146   147    1
   150   144   145    2
   151   147   148    1
