@<TRIPOS>MOLECULE
tmp/4z0lC04.pdb
 216 205 0 0 0
SMALL
GASTEIGER

@<TRIPOS>ATOM
      1  N        170.9870    9.8380   16.5970 N.3    58  HIS58      -0.1241
      2  CA       171.6830    9.7900   15.3180 C.3    58  HIS58       0.1621
      3  C        172.7870    8.7400   15.3360 C.2    58  HIS58       0.2264
      4  O        173.0880    8.1290   14.3110 O.2    58  HIS58      -0.2867
      5  CB       172.2700   11.1570   14.9630 C.3    58  HIS58       0.0745
      6  CG       173.0110   11.1700   13.6630 C.ar   58  HIS58       0.0817
      7  ND1      174.3810   11.0330   13.5850 N.ar   58  HIS58      -0.2268
      8  CD2      172.5720   11.2870   12.3890 C.ar   58  HIS58       0.1154
      9  CE1      174.7530   11.0740   12.3180 C.ar   58  HIS58       0.1986
     10  NE2      173.6740   11.2290   11.5720 N.ar   58  HIS58      -0.2212
     11  N        159.3320    3.5310   12.3880 N.3    82  MET82      -0.1245
     12  CA       159.0460    4.6580   11.5050 C.3    82  MET82       0.1570
     13  C        158.0180    5.5800   12.1520 C.2    82  MET82       0.2261
     14  O        158.1140    6.8030   12.0460 O.2    82  MET82      -0.2867
     15  CB       158.5460    4.1790   10.1420 C.3    82  MET82       0.0387
     16  CG       158.3220    5.3070    9.1440 C.3    82  MET82       0.0595
     17  SD       159.8280    6.2540    8.8460 S.3    82  MET82      -0.1393
     18  CE       159.1910    7.6440    7.9110 C.3    82  MET82       0.0692
     19  N        159.7880    7.6210   14.6870 N.3    85  VAL85      -0.1231
     20  CA       160.5620    8.6710   14.0320 C.3    85  VAL85       0.1692
     21  C        159.6620    9.8300   13.6130 C.2    85  VAL85       0.2591
     22  O        160.0050   10.9970   13.8160 O.2    85  VAL85      -0.2718
     23  CB       161.3150    8.1290   12.7990 C.3    85  VAL85       0.0266
     24  CG1      161.9860    9.2610   12.0360 C.3    85  VAL85       0.0020
     25  CG2      162.3400    7.0870   13.2210 C.3    85  VAL85       0.0020
     26  N        158.5090    9.5010   13.0390 N.am   86  LEU86      -0.1980
     27  CA       157.5240   10.5060   12.6530 C.3    86  LEU86       0.1596
     28  C        157.0400   11.3000   13.8620 C.2    86  LEU86       0.2287
     29  O        156.9190   12.5230   13.8040 O.2    86  LEU86      -0.2864
     30  CB       156.3310    9.8490   11.9560 C.3    86  LEU86       0.0297
     31  CG       156.5400    9.2930   10.5470 C.3    86  LEU86       0.0022
     32  CD1      155.3600    8.4250   10.1490 C.3    86  LEU86       0.0001
     33  CD2      156.7290   10.4240    9.5510 C.3    86  LEU86       0.0001
     34  N        159.4080   14.0460   15.3900 N.3    89  ARG89      -0.1245
     35  CA       159.4980   15.3230   14.6900 C.3    89  ARG89       0.1563
     36  C        158.1990   16.1150   14.8030 C.2    89  ARG89       0.2260
     37  O        158.0920   17.2230   14.2810 O.2    89  ARG89      -0.2867
     38  CB       159.8520   15.1100   13.2160 C.3    89  ARG89       0.0307
     39  CG       161.3430   15.1460   12.9090 C.3    89  ARG89       0.0489
     40  CD       162.0840   13.9810   13.5450 C.3    89  ARG89       0.2205
     41  NE       163.4720   13.9070   13.0960 N.pl3  89  ARG89      -0.0865
     42  CZ       164.4840   14.5370   13.6850 C.cat  89  ARG89       0.5346
     43  NH1      164.2680   15.2930   14.7530 N.pl3  89  ARG89       0.1354
     44  NH2      165.7140   14.4090   13.2050 N.pl3  89  ARG89       0.1354
     45  N        179.5580   11.9440    2.5010 N.3   161  GLN161     -0.1245
     46  CA       178.4540   11.0090    2.3100 C.3   161  GLN161      0.1566
     47  C        178.2780   10.6720    0.8340 C.2   161  GLN161      0.2260
     48  O        177.4500    9.8370    0.4710 O.2   161  GLN161     -0.2867
     49  CB       177.1550   11.5760    2.8800 C.3   161  GLN161      0.0367
     50  CG       177.1590   11.7130    4.3900 C.3   161  GLN161      0.0905
     51  CD       175.7960   12.0670    4.9440 C.2   161  GLN161      0.2608
     52  OE1      175.6520   13.0270    5.7010 O.2   161  GLN161     -0.2717
     53  NE2      174.7860   11.2860    4.5760 N.am  161  GLN161     -0.0878
     54  N        161.0870   11.0160    0.6070 N.3   314  ILE314     -0.1245
     55  CA       161.2900   10.3140    1.8720 C.3   314  ILE314      0.1561
     56  C        162.2520    9.1250    1.7550 C.2   314  ILE314      0.2260
     57  O        163.2290    9.0410    2.5020 O.2   314  ILE314     -0.2867
     58  CB       159.9590    9.8160    2.4630 C.3   314  ILE314      0.0252
     59  CG1      159.0800   11.0020    2.8590 C.3   314  ILE314      0.0019
     60  CG2      160.2120    8.9340    3.6760 C.3   314  ILE314      0.0019
     61  CD1      157.7680   10.6020    3.4990 C.3   314  ILE314      0.0001
     62  N        165.8560   10.4830   -1.2230 N.3   317  TYR317     -0.1227
     63  CA       166.4760   11.7610   -0.8920 C.3   317  TYR317      0.1736
     64  C        166.8990   11.8370    0.5770 C.2   317  TYR317      0.2595
     65  O        168.0940   11.9080    0.9050 O.2   317  TYR317     -0.2718
     66  CB       165.4830   12.8760   -1.2410 C.3   317  TYR317      0.0548
     67  CG       165.9310   14.2970   -1.0010 C.ar  317  TYR317     -0.0200
     68  CD1      166.6420   14.9950   -1.9680 C.ar  317  TYR317     -0.0009
     69  CD2      165.5940   14.9590    0.1700 C.ar  317  TYR317     -0.0009
     70  CE1      167.0310   16.3050   -1.7600 C.ar  317  TYR317      0.0417
     71  CE2      165.9760   16.2660    0.3880 C.ar  317  TYR317      0.0417
     72  CZ       166.6940   16.9350   -0.5790 C.ar  317  TYR317      0.1957
     73  OH       167.0750   18.2380   -0.3590 O.3   317  TYR317     -0.2866
     74  N        165.9090   11.8060    1.4600 N.am  318  VAL318     -0.1980
     75  CA       166.1630   11.8770    2.8890 C.3   318  VAL318      0.1595
     76  C        166.8420   10.6050    3.3930 C.2   318  VAL318      0.2287
     77  O        167.6290   10.6480    4.3340 O.2   318  VAL318     -0.2864
     78  CB       164.8630   12.1170    3.6780 C.3   318  VAL318      0.0276
     79  CG1      165.1510   12.1440    5.1580 C.3   318  VAL318      0.0022
     80  CG2      164.2140   13.4250    3.2440 C.3   318  VAL318      0.0022
     81  N        170.3330   11.3630    2.7230 N.3   321  LEU321     -0.1231
     82  CA       170.7980   12.4420    3.5930 C.3   321  LEU321      0.1693
     83  C        171.0740   11.9840    5.0250 C.2   321  LEU321      0.2592
     84  O        172.0720   12.3770    5.6300 O.2   321  LEU321     -0.2718
     85  CB       169.7810   13.5810    3.6170 C.3   321  LEU321      0.0284
     86  CG       170.0280   14.6950    2.6030 C.3   321  LEU321      0.0019
     87  CD1      168.9630   15.7760    2.7150 C.3   321  LEU321      0.0001
     88  CD2      171.4180   15.2780    2.8030 C.3   321  LEU321      0.0001
     89  N        170.1900   11.1460    5.5540 N.am  322  SER322     -0.1952
     90  CA       170.2350   10.7440    6.9550 C.3   322  SER322      0.1924
     91  C        171.4180    9.8410    7.2790 C.2   322  SER322      0.2314
     92  O        171.9720    9.9030    8.3760 O.2   322  SER322     -0.2863
     93  CB       168.9400   10.0310    7.3380 C.3   322  SER322      0.2116
     94  OG       168.8430    8.7800    6.6760 O.3   322  SER322     -0.2180
     95  N        171.0620    6.7670    7.6000 N.3   324  TYR324     -0.1241
     96  CA       170.4720    5.7680    8.4840 C.3   324  TYR324      0.1605
     97  C        170.5980    4.3640    7.9100 C.2   324  TYR324      0.2264
     98  O        170.5020    4.1690    6.6980 O.2   324  TYR324     -0.2867
     99  CB       168.9940    6.0760    8.7420 C.3   324  TYR324      0.0534
    100  CG       168.7360    7.2990    9.5930 C.ar  324  TYR324     -0.0201
    101  CD1      169.7650    7.9180   10.2910 C.ar  324  TYR324     -0.0009
    102  CD2      167.4560    7.8270    9.7070 C.ar  324  TYR324     -0.0009
    103  CE1      169.5270    9.0340   11.0740 C.ar  324  TYR324      0.0417
    104  CE2      167.2080    8.9420   10.4860 C.ar  324  TYR324      0.0417
    105  CZ       168.2470    9.5420   11.1660 C.ar  324  TYR324      0.1957
    106  OH       168.0060   10.6500   11.9440 O.3   324  TYR324     -0.2866
    107  N        163.7280    4.2600    5.9660 N.3   328  LEU328     -0.1245
    108  CA       162.5520    5.1090    6.1190 C.3   328  LEU328      0.1561
    109  C        161.4190    4.6200    5.2240 C.2   328  LEU328      0.2260
    110  O        161.6590    4.0110    4.1810 O.2   328  LEU328     -0.2867
    111  CB       162.8980    6.5630    5.7950 C.3   328  LEU328      0.0270
    112  CG       163.9730    7.2050    6.6750 C.3   328  LEU328      0.0019
    113  CD1      164.3880    8.5590    6.1190 C.3   328  LEU328      0.0001
    114  CD2      163.4810    7.3380    8.1090 C.3   328  LEU328      0.0001
    115  N        167.5640   27.9630    5.8930 N.3   353  LEU353     -0.1231
    116  CA       168.4290   26.8230    6.1880 C.3   353  LEU353      0.1693
    117  C        168.6720   25.9520    4.9580 C.2   353  LEU353      0.2592
    118  O        169.6330   25.1840    4.9150 O.2   353  LEU353     -0.2718
    119  CB       167.8400   25.9820    7.3310 C.3   353  LEU353      0.0284
    120  CG       166.6170   25.0830    7.1320 C.3   353  LEU353      0.0019
    121  CD1      167.0100   23.6830    6.6640 C.3   353  LEU353      0.0001
    122  CD2      165.8150   25.0030    8.4240 C.3   353  LEU353      0.0001
    123  N        167.8040   26.0730    3.9590 N.am  354  TYR354     -0.1976
    124  CA       167.8880   25.2170    2.7820 C.3   354  TYR354      0.1639
    125  C        168.7590   25.8140    1.6790 C.2   354  TYR354      0.2290
    126  O        168.7630   25.3200    0.5510 O.2   354  TYR354     -0.2864
    127  CB       166.4890   24.9280    2.2330 C.3   354  TYR354      0.0560
    128  CG       166.2020   23.4530    2.0590 C.ar  354  TYR354     -0.0198
    129  CD1      166.8790   22.7020    1.1080 C.ar  354  TYR354     -0.0009
    130  CD2      165.2550   22.8130    2.8460 C.ar  354  TYR354     -0.0009
    131  CE1      166.6230   21.3540    0.9460 C.ar  354  TYR354      0.0417
    132  CE2      164.9890   21.4650    2.6900 C.ar  354  TYR354      0.0417
    133  CZ       165.6750   20.7390    1.7390 C.ar  354  TYR354      0.1957
    134  OH       165.4150   19.3970    1.5800 O.3   354  TYR354     -0.2866
    135  N        171.7010   25.5810    0.2020 N.3   356  TRP356     -0.1241
    136  CA       172.8270   24.6550    0.1330 C.3   356  TRP356      0.1605
    137  C        173.7140   24.8820   -1.0700 C.2   356  TRP356      0.2264
    138  O        174.0670   23.9370   -1.7740 O.2   356  TRP356     -0.2867
    139  CB       172.3390   23.2190    0.0920 C.3   356  TRP356      0.0550
    140  CG       171.5610   22.8230    1.2630 C.ar  356  TRP356      0.0003
    141  CD1      171.4350   23.5010    2.4380 C.ar  356  TRP356      0.0946
    142  CD2      170.7810   21.6400    1.3890 C.ar  356  TRP356      0.0152
    143  NE1      170.6200   22.8060    3.2930 N.ar  356  TRP356     -0.2442
    144  CE2      170.2070   21.6590    2.6680 C.ar  356  TRP356      0.0810
    145  CE3      170.5120   20.5620    0.5420 C.ar  356  TRP356      0.0012
    146  CZ2      169.3820   20.6520    3.1170 C.ar  356  TRP356      0.0191
    147  CZ3      169.6920   19.5560    0.9940 C.ar  356  TRP356      0.0001
    148  CH2      169.1380   19.6040    2.2720 C.ar  356  TRP356      0.0015
    149  N        178.2880   16.0790   11.6660 N.3   482  ARG482     -0.1245
    150  CA       178.2760   14.7490   12.2600 C.3   482  ARG482      0.1563
    151  C        179.4140   13.9410   11.6350 C.2   482  ARG482      0.2260
    152  O        179.8740   14.2810   10.5440 O.2   482  ARG482     -0.2867
    153  CB       176.9210   14.0670   12.0410 C.3   482  ARG482      0.0307
    154  CG       175.9770   14.1350   13.2340 C.3   482  ARG482      0.0489
    155  CD       175.3980   15.5250   13.4290 C.3   482  ARG482      0.2205
    156  NE       174.4460   15.5580   14.5360 N.pl3 482  ARG482     -0.0865
    157  CZ       173.1440   15.3200   14.4110 C.cat 482  ARG482      0.5346
    158  NH1      172.6310   15.0320   13.2220 N.pl3 482  ARG482      0.1354
    159  NH2      172.3530   15.3700   15.4740 N.pl3 482  ARG482      0.1354
    160  N        175.8900   17.4350    7.2610 N.3   487  PHE487     -0.1241
    161  CA       175.2310   18.4580    8.0680 C.3   487  PHE487      0.1605
    162  C        175.6380   18.4140    9.5330 C.2   487  PHE487      0.2264
    163  O        176.1700   17.4140   10.0140 O.2   487  PHE487     -0.2867
    164  CB       173.7100   18.3110    7.9760 C.3   487  PHE487      0.0534
    165  CG       173.1560   18.5640    6.6080 C.ar  487  PHE487     -0.0203
    166  CD1      173.7400   19.4950    5.7680 C.ar  487  PHE487     -0.0042
    167  CD2      172.0450   17.8670    6.1610 C.ar  487  PHE487     -0.0042
    168  CE1      173.2270   19.7270    4.5090 C.ar  487  PHE487     -0.0003
    169  CE2      171.5310   18.0940    4.9040 C.ar  487  PHE487     -0.0003
    170  CZ       172.1230   19.0230    4.0760 C.ar  487  PHE487     -0.0000
    171  N        171.0420   22.0150   11.5760 N.3   491  MET491     -0.1230
    172  CA       170.4490   21.8720   10.2510 C.3   491  MET491      0.1702
    173  C        169.4070   20.7600   10.2190 C.2   491  MET491      0.2592
    174  O        168.3330   20.9140    9.6360 O.2   491  MET491     -0.2718
    175  CB       171.5330   21.5930    9.2100 C.3   491  MET491      0.0401
    176  CG       171.0120   21.5020    7.7880 C.3   491  MET491      0.0596
    177  SD       170.6600   23.1220    7.0800 S.3   491  MET491     -0.1393
    178  CE       172.3190   23.7010    6.7250 C.3   491  MET491      0.0692
    179  N        169.7340   19.6420   10.8580 N.am  492  VAL492     -0.1980
    180  CA       168.8540   18.4820   10.8750 C.3   492  VAL492      0.1595
    181  C        167.6630   18.6900   11.8020 C.2   492  VAL492      0.2287
    182  O        166.5190   18.4590   11.4150 O.2   492  VAL492     -0.2864
    183  CB       169.6090   17.2130   11.3100 C.3   492  VAL492      0.0276
    184  CG1      168.6680   16.0180   11.3390 C.3   492  VAL492      0.0022
    185  CG2      170.7860   16.9540   10.3810 C.3   492  VAL492      0.0022
    186  N        165.5240   21.4080   10.1850 N.3   495  GLY495     -0.1210
    187  CA       165.0090   21.0490    8.8760 C.3   495  GLY495      0.1956
    188  C        164.0050   19.9100    8.8700 C.2   495  GLY495      0.2611
    189  O        163.0820   19.8960    8.0560 O.2   495  GLY495     -0.2717
    190  N        164.1790   18.9550    9.7780 N.am  496  ALA496     -0.1979
    191  CA       163.3490   17.7500    9.7850 C.3   496  ALA496      0.1597
    192  C        161.8690   17.9970   10.1280 C.2   496  ALA496      0.2287
    193  O        160.9980   17.4650    9.4410 O.2   496  ALA496     -0.2864
    194  CB       163.9450   16.7080   10.7350 C.3   496  ALA496      0.0319
    195  N        160.1870   19.7050    7.2900 N.3   499  SER499     -0.1202
    196  CA       160.0110   18.7360    6.2190 C.3   499  SER499      0.2020
    197  C        158.8260   17.8160    6.4900 C.2   499  SER499      0.2618
    198  O        158.0820   17.4780    5.5760 O.2   499  SER499     -0.2717
    199  CB       161.2850   17.9110    6.0320 C.3   499  SER499      0.2103
    200  OG       162.3900   18.7430    5.7260 O.3   499  SER499     -0.2182
    201  N        158.6550   17.4120    7.7450 N.am  500  LEU500     -0.1979
    202  CA       157.5300   16.5660    8.1290 C.3   500  LEU500      0.1596
    203  C        156.2140   17.2720    7.8450 C.2   500  LEU500      0.2287
    204  O        155.2850   16.6830    7.2850 O.2   500  LEU500     -0.2864
    205  CB       157.6070   16.1890    9.6100 C.3   500  LEU500      0.0297
    206  CG       156.3280   15.5710   10.1900 C.3   500  LEU500      0.0022
    207  CD1      156.0640   14.2070    9.5780 C.3   500  LEU500      0.0001
    208  CD2      156.3950   15.4750   11.7060 C.3   500  LEU500      0.0001
    209  N        155.6230   17.5090    4.0550 N.3   503  LEU503     -0.1245
    210  CA       155.4650   16.2580    3.3190 C.3   503  LEU503      0.1561
    211  C        154.1990   15.5120    3.7290 C.2   503  LEU503      0.2260
    212  O        153.3310   15.2370    2.8990 O.2   503  LEU503     -0.2867
    213  CB       156.6860   15.3560    3.5260 C.3   503  LEU503      0.0270
    214  CG       158.0160   15.7970    2.9070 C.3   503  LEU503      0.0019
    215  CD1      159.1550   14.9310    3.4240 C.3   503  LEU503      0.0001
    216  CD2      157.9530   15.7470    1.3890 C.3   503  LEU503      0.0001
@<TRIPOS>BOND
     1    68    70   ar
     2    68    67   ar
     3   138   137    2
     4    70    72   ar
     5    66    67    1
     6    66    63    1
     7    62    63    1
     8   137   136    1
     9    67    69   ar
    10    63    64    1
    11    72    73    1
    12    72    71   ar
    13   139   136    1
    14   139   140    1
    15   136   135    1
    16    69    71   ar
    17    48    47    2
    18   145   147   ar
    19   145   142   ar
    20   126   125    2
    21    64    65    2
    22    64    74   am
    23    54    55    1
    24    47    46    1
    25   131   129   ar
    26   131   133   ar
    27   147   148   ar
    28   129   128   ar
    29   140   142   ar
    30   140   141   ar
    31   216   214    1
    32   142   144   ar
    33    74    75    1
    34   134   133    1
    35   125   124    1
    36   133   132   ar
    37    56    55    1
    38    56    57    2
    39    55    58    1
    40   128   127    1
    41   128   130   ar
    42   127   124    1
    43   148   146   ar
    44    46    45    1
    45    46    49    1
    46   141   143   ar
    47    58    59    1
    48    58    60    1
    49    86    87    1
    50    86    88    1
    51    86    85    1
    52   144   146   ar
    53   144   143   ar
    54   132   130   ar
    55    81    82    1
    56   124   123    1
    57    59    61    1
    58    49    50    1
    59    75    76    1
    60    75    78    1
    61   212   211    2
    62   214   215    1
    63   214   213    1
    64    80    78    1
    65   210   213    1
    66   210   211    1
    67   210   209    1
    68    76    77    2
    69    82    85    1
    70    82    83    1
    71    78    79    1
    72   123   117   am
    73   170   168   ar
    74   170   169   ar
    75   110   109    2
    76    50    51    1
    77   168   166   ar
    78    53    51   am
    79   169   167   ar
    80   118   117    2
    81    51    52    2
    82   117   116    1
    83    83    89   am
    84    83    84    2
    85   109   108    1
    86    89    90    1
    87   198   197    2
    88   200   199    1
    89   166   165   ar
    90   111   108    1
    91   111   112    1
    92   115   116    1
    93   107   108    1
    94   199   196    1
    95   113   112    1
    96   167   165   ar
    97   116   119    1
    98   196   197    1
    99   196   195    1
   100   197   201   am
   101   165   164    1
   102   121   120    1
   103   112   114    1
   104    94    93    1
   105    98    97    2
   106   178   177    1
   107    90    91    1
   108    90    93    1
   109   177   176    1
   110   120   119    1
   111   120   122    1
   112   160   161    1
   113    91    92    2
   114   204   203    2
   115    95    96    1
   116   201   202    1
   117   176   175    1
   118   203   202    1
   119    97    96    1
   120    18    17    1
   121   164   161    1
   122   189   188    2
   123   161   162    1
   124   202   205    1
   125    96    99    1
   126    99   100    1
   127    17    16    1
   128   188   187    1
   129   188   190   am
   130   187   186    1
   131    16    15    1
   132   175   172    1
   133   193   192    2
   134   162   163    2
   135    33    31    1
   136   207   206    1
   137   100   102   ar
   138   100   101   ar
   139   205   206    1
   140   174   173    2
   141   102   104   ar
   142   190   191    1
   143   191   192    1
   144   191   194    1
   145    15    12    1
   146    32    31    1
   147   206   208    1
   148   173   172    1
   149   173   179   am
   150   172   171    1
   151   101   103   ar
   152   185   183    1
   153   104   105   ar
   154   152   151    2
   155    31    30    1
   156   179   180    1
   157   180   183    1
   158   180   181    1
   159   103   105   ar
   160   105   106    1
   161   183   184    1
   162   182   181    2
   163    12    13    1
   164    12    11    1
   165    10     9   ar
   166    10     8   ar
   167   151   150    1
   168   149   150    1
   169    30    27    1
   170    24    23    1
   171   153   150    1
   172   153   154    1
   173    14    13    2
   174     9     7   ar
   175     8     6   ar
   176    27    26    1
   177    27    28    1
   178    23    25    1
   179    23    20    1
   180    39    38    1
   181    39    40    1
   182    26    21   am
   183    41    40    1
   184    41    42    2
   185    44    42    1
   186    38    35    1
   187   158   157    1
   188   154   155    1
   189   155   156    1
   190     7     6   ar
   191    21    22    2
   192    21    20    1
   193     6     5    1
   194    42    43    1
   195    29    28    2
   196    20    19    1
   197    37    36    2
   198     4     3    2
   199   157   156    2
   200   157   159    1
   201    35    36    1
   202    35    34    1
   203     5     2    1
   204     2     3    1
   205     2     1    1
