@<TRIPOS>MOLECULE
tmp/4z0nA00.pdb
 123 116 0 0 0
SMALL
GASTEIGER

@<TRIPOS>ATOM
      1  N         32.1830    8.8420   36.3940 N.3     9  TYR9       -0.1241
      2  CA        32.2020    7.5010   35.8150 C.3     9  TYR9        0.1605
      3  C         31.4570    7.4510   34.4780 C.2     9  TYR9        0.2264
      4  O         31.8800    6.7700   33.5450 O.2     9  TYR9       -0.2867
      5  CB        31.7350    6.4250   36.8100 C.3     9  TYR9        0.0534
      6  CG        30.2400    6.2060   36.9200 C.ar    9  TYR9       -0.0201
      7  CD1       29.4520    7.0310   37.7090 C.ar    9  TYR9       -0.0009
      8  CD2       29.6240    5.1490   36.2570 C.ar    9  TYR9       -0.0009
      9  CE1       28.0860    6.8230   37.8270 C.ar    9  TYR9        0.0417
     10  CE2       28.2620    4.9280   36.3660 C.ar    9  TYR9        0.0417
     11  CZ        27.5010    5.7680   37.1470 C.ar    9  TYR9        0.1957
     12  OH        26.1530    5.5590   37.2450 O.3     9  TYR9       -0.2866
     13  N         24.7760    9.7880   34.2370 N.3    13  ASP13      -0.1239
     14  CA        24.2840    9.5030   35.5800 C.3    13  ASP13       0.1674
     15  C         23.5930   10.7640   36.1040 C.2    13  ASP13       0.2266
     16  O         24.2240   11.8270   36.1670 O.2    13  ASP13      -0.2867
     17  CB        25.4460    9.1010   36.4860 C.3    13  ASP13       0.1410
     18  CG        24.9960    8.7920   37.8980 C.2    13  ASP13       0.3668
     19  OD1       24.8320    9.7400   38.6940 O.co2  13  ASP13      -0.2456
     20  OD2       24.7990    7.6010   38.2160 O.co2  13  ASP13      -0.2456
     21  N         22.3110   11.9580   39.0230 N.3    15  PHE15      -0.1227
     22  CA        22.7550   12.6270   40.2280 C.3    15  PHE15       0.1736
     23  C         24.0990   13.3190   40.0130 C.2    15  PHE15       0.2595
     24  O         24.2790   14.4810   40.3960 O.2    15  PHE15      -0.2718
     25  CB        22.8320   11.6600   41.4160 C.3    15  PHE15       0.0547
     26  CG        23.4960   12.2610   42.6150 C.ar   15  PHE15      -0.0202
     27  CD1       22.8240   13.1770   43.4040 C.ar   15  PHE15      -0.0042
     28  CD2       24.8100   11.9510   42.9230 C.ar   15  PHE15      -0.0042
     29  CE1       23.4540   13.7740   44.4960 C.ar   15  PHE15      -0.0003
     30  CE2       25.4340   12.5320   44.0040 C.ar   15  PHE15      -0.0003
     31  CZ        24.7630   13.4500   44.7900 C.ar   15  PHE15      -0.0000
     32  N         25.0440   12.6060   39.4090 N.am   16  LEU16      -0.1980
     33  CA        26.3640   13.1790   39.1990 C.3    16  LEU16       0.1596
     34  C         26.3520   14.2890   38.1580 C.2    16  LEU16       0.2287
     35  O         27.2060   15.1650   38.1850 O.2    16  LEU16      -0.2864
     36  CB        27.3900   12.1010   38.8430 C.3    16  LEU16       0.0297
     37  CG        27.7290   11.1550   39.9920 C.3    16  LEU16       0.0022
     38  CD1       28.6800   10.0670   39.5120 C.3    16  LEU16       0.0001
     39  CD2       28.3090   11.9310   41.1820 C.3    16  LEU16       0.0001
     40  N         32.0870   10.2170   45.8500 N.3    89  ASN89      -0.1225
     41  CA        30.8590    9.4960   45.5150 C.3    89  ASN89       0.1785
     42  C         30.9180    7.9700   45.6000 C.2    89  ASN89       0.2597
     43  O         30.0020    7.3590   46.1470 O.2    89  ASN89      -0.2718
     44  CB        30.2880    9.9950   44.1860 C.3    89  ASN89       0.1169
     45  CG        29.1870    9.1100   43.6530 C.2    89  ASN89       0.2627
     46  OD1       29.4270    8.2540   42.7890 O.2    89  ASN89      -0.2716
     47  ND2       27.9610    9.3100   44.1500 N.am   89  ASN89      -0.0877
     48  N         31.9710    7.3520   45.0720 N.am   90  LYS90      -0.1980
     49  CA        32.1810    5.9150   45.2680 C.3    90  LYS90       0.1596
     50  C         33.3160    5.7190   46.2740 C.2    90  LYS90       0.2287
     51  O         34.4800    6.0130   45.9880 O.2    90  LYS90      -0.2864
     52  CB        32.4530    5.1900   43.9500 C.3    90  LYS90       0.0298
     53  CG        31.3470    5.4020   42.9210 C.3    90  LYS90       0.0038
     54  CD        31.4010    4.3680   41.8000 C.3    90  LYS90       0.0206
     55  CE        30.5620    4.7920   40.5950 C.3    90  LYS90       0.1093
     56  NZ        30.6570    3.7950   39.4950 N.3    90  LYS90      -0.1314
     57  N         29.2690   -0.7880   45.1750 N.3   149  GLN149     -0.1245
     58  CA        29.1670    0.6200   45.5290 C.3   149  GLN149      0.1566
     59  C         28.3400    0.6610   46.8100 C.2   149  GLN149      0.2260
     60  O         27.1490    0.3730   46.7820 O.2   149  GLN149     -0.2867
     61  CB        28.4750    1.3820   44.3870 C.3   149  GLN149      0.0367
     62  CG        28.8620    2.8720   44.2070 C.3   149  GLN149      0.0905
     63  CD        28.3020    3.7840   45.2690 C.2   149  GLN149      0.2608
     64  OE1       28.3710    3.4830   46.4580 O.2   149  GLN149     -0.2717
     65  NE2       27.7670    4.9290   44.8470 N.am  149  GLN149     -0.0878
     66  N         26.6870    2.5940   48.5680 N.3   151  ASP151     -0.1239
     67  CA        25.3910    3.2610   48.6290 C.3   151  ASP151      0.1674
     68  C         24.2430    2.2870   48.3190 C.2   151  ASP151      0.2266
     69  O         23.1610    2.3740   48.8960 O.2   151  ASP151     -0.2867
     70  CB        25.3250    4.4430   47.6530 C.3   151  ASP151      0.1410
     71  CG        26.2340    5.6000   48.0530 C.2   151  ASP151      0.3668
     72  OD1       26.6440    5.6780   49.2300 O.co2 151  ASP151     -0.2456
     73  OD2       26.5230    6.4460   47.1760 O.co2 151  ASP151     -0.2456
     74  N         21.4130    1.2560   51.1750 N.3   155  ARG155     -0.1245
     75  CA        20.0260    1.6620   50.9840 C.3   155  ARG155      0.1563
     76  C         19.0990    0.4590   50.9120 C.2   155  ARG155      0.2260
     77  O         17.9600    0.5170   51.3740 O.2   155  ARG155     -0.2867
     78  CB        19.8970    2.5350   49.7460 C.3   155  ARG155      0.0307
     79  CG        20.5570    3.8910   49.9430 C.3   155  ARG155      0.0489
     80  CD        20.7520    4.6100   48.6370 C.3   155  ARG155      0.2205
     81  NE        21.5880    5.7990   48.7770 N.pl3 155  ARG155     -0.0865
     82  CZ        22.0690    6.4760   47.7370 C.cat 155  ARG155      0.5346
     83  NH1       21.7770    6.0820   46.5030 N.pl3 155  ARG155      0.1354
     84  NH2       22.8540    7.5280   47.9170 N.pl3 155  ARG155      0.1354
     85  N         21.9380    2.0000   38.6890 N.3   180  TRP180     -0.1241
     86  CA        21.6030    3.4260   38.7990 C.3   180  TRP180      0.1605
     87  C         20.8550    3.9840   37.5930 C.2   180  TRP180      0.2264
     88  O         20.5580    5.1770   37.5560 O.2   180  TRP180     -0.2867
     89  CB        22.8500    4.2970   39.0160 C.3   180  TRP180      0.0550
     90  CG        23.7890    3.8580   40.0990 C.ar  180  TRP180      0.0003
     91  CD1       25.1210    3.6010   39.9490 C.ar  180  TRP180      0.0946
     92  CD2       23.4950    3.6690   41.4930 C.ar  180  TRP180      0.0152
     93  NE1       25.6750    3.2440   41.1570 N.ar  180  TRP180     -0.2442
     94  CE2       24.6950    3.2600   42.1170 C.ar  180  TRP180      0.0810
     95  CE3       22.3310    3.7740   42.2660 C.ar  180  TRP180      0.0012
     96  CZ2       24.7770    2.9970   43.4790 C.ar  180  TRP180      0.0191
     97  CZ3       22.4130    3.5070   43.6250 C.ar  180  TRP180      0.0001
     98  CH2       23.6310    3.1250   44.2160 C.ar  180  TRP180      0.0015
     99  N         18.0320    4.5050   43.8670 N.3   207  ASN207     -0.1240
    100  CA        18.1660    5.9060   43.4480 C.3   207  ASN207      0.1653
    101  C         16.9790    6.3900   42.6240 C.2   207  ASN207      0.2266
    102  O         16.1190    5.5980   42.2150 O.2   207  ASN207     -0.2867
    103  CB        19.4910    6.1790   42.7100 C.3   207  ASN207      0.1155
    104  CG        19.4560    5.7350   41.2620 C.2   207  ASN207      0.2627
    105  OD1       18.6950    4.8390   40.8940 O.2   207  ASN207     -0.2716
    106  ND2       20.3000    6.3480   40.4350 N.am  207  ASN207     -0.0877
    107  N         17.7900   10.6210   46.0710 N.3   230  ASP230     -0.1239
    108  CA        18.6550   11.6700   45.4940 C.3   230  ASP230      0.1674
    109  C         17.9450   13.0210   45.4800 C.2   230  ASP230      0.2266
    110  O         18.5800   14.0650   45.6340 O.2   230  ASP230     -0.2867
    111  CB        19.1520   11.3790   44.0720 C.3   230  ASP230      0.1410
    112  CG        20.2850   10.3800   44.0210 C.2   230  ASP230      0.3668
    113  OD1       20.9620   10.1300   45.0430 O.co2 230  ASP230     -0.2456
    114  OD2       20.4650    9.8250   42.9310 O.co2 230  ASP230     -0.2456
    115  N         19.8260   13.8770   48.2960 N.3   249  GLN249     -0.1245
    116  CA        21.2630   13.7610   48.4290 C.3   249  GLN249      0.1566
    117  C         21.8230   15.1090   47.9960 C.2   249  GLN249      0.2260
    118  O         21.4720   15.6340   46.9350 O.2   249  GLN249     -0.2867
    119  CB        21.8600   12.6190   47.5940 C.3   249  GLN249      0.0367
    120  CG        23.3590   12.5570   47.8600 C.3   249  GLN249      0.0905
    121  CD        24.1370   11.4410   47.1930 C.2   249  GLN249      0.2608
    122  OE1       25.3510   11.3800   47.3670 O.2   249  GLN249     -0.2717
    123  NE2       23.4730   10.5810   46.4090 N.am  249  GLN249     -0.0878
@<TRIPOS>BOND
     1     4     3    2
     2    13    14    1
     3     3     2    1
     4    14    15    1
     5    14    17    1
     6     2     1    1
     7     2     5    1
     8    15    16    2
     9     8    10   ar
    10     8     6   ar
    11    10    11   ar
    12    17    18    1
    13     5     6    1
    14     6     7   ar
    15    11    12    1
    16    11     9   ar
    17    88    87    2
    18    87    86    1
    19     7     9   ar
    20    18    20   ar
    21    18    19   ar
    22    34    35    2
    23    34    33    1
    24    85    86    1
    25    86    89    1
    26    36    33    1
    27    36    37    1
    28    89    90    1
    29    21    22    1
    30    33    32    1
    31    32    23   am
    32    56    55    1
    33    38    37    1
    34    91    90   ar
    35    91    93   ar
    36    37    39    1
    37    23    22    1
    38    23    24    2
    39    90    92   ar
    40    22    25    1
    41   106   104   am
    42    55    54    1
    43   105   104    2
    44    93    94   ar
    45   104   103    1
    46    25    26    1
    47    92    94   ar
    48    92    95   ar
    49    54    53    1
    50    94    96   ar
    51   102   101    2
    52    95    97   ar
    53    26    28   ar
    54    26    27   ar
    55   101   100    1
    56   103   100    1
    57    46    45    2
    58    53    52    1
    59    28    30   ar
    60   114   112   ar
    61    27    29   ar
    62   100    99    1
    63    96    98   ar
    64    97    98   ar
    65    45    47   am
    66    45    44    1
    67    52    49    1
    68    30    31   ar
    69   112   111    1
    70   112   113   ar
    71   111   108    1
    72    44    41    1
    73    62    61    1
    74    62    63    1
    75    61    58    1
    76    29    31   ar
    77    65    63   am
    78    48    49    1
    79    48    42   am
    80    57    58    1
    81    49    50    1
    82    63    64    2
    83   109   108    1
    84   109   110    2
    85   108   107    1
    86    41    42    1
    87    41    40    1
    88    58    59    1
    89    42    43    2
    90    51    50    2
    91   123   121   am
    92    83    82    1
    93    60    59    2
    94   118   117    2
    95    73    71   ar
    96   121   122    2
    97   121   120    1
    98   119   120    1
    99   119   116    1
   100    70    71    1
   101    70    67    1
   102    82    84    1
   103    82    81    2
   104   117   116    1
   105    71    72   ar
   106   115   116    1
   107    68    67    1
   108    68    69    2
   109    66    67    1
   110    80    81    1
   111    80    79    1
   112    78    79    1
   113    78    75    1
   114    76    75    1
   115    76    77    2
   116    75    74    1
