@<TRIPOS>MOLECULE
tmp/4z0rB00.pdb
 177 177 0 0 0
SMALL
GASTEIGER

@<TRIPOS>ATOM
      1  N         22.7070   -2.3670   41.7080 N.3     4  TYR4       -0.1227
      2  CA        24.0060   -2.2170   41.0500 C.3     4  TYR4        0.1736
      3  C         23.8830   -1.8960   39.5530 C.2     4  TYR4        0.2595
      4  O         24.5780   -2.4560   38.7080 O.2     4  TYR4       -0.2718
      5  CB        24.8620   -3.4720   41.2490 C.3     4  TYR4        0.0548
      6  CG        25.1330   -3.8320   42.6930 C.ar    4  TYR4       -0.0200
      7  CD1       26.1450   -3.1750   43.4100 C.ar    4  TYR4       -0.0009
      8  CD2       24.3990   -4.8360   43.3420 C.ar    4  TYR4       -0.0009
      9  CE1       26.4110   -3.5080   44.7300 C.ar    4  TYR4        0.0417
     10  CE2       24.6630   -5.1770   44.6670 C.ar    4  TYR4        0.0417
     11  CZ        25.6710   -4.5070   45.3490 C.ar    4  TYR4        0.1957
     12  OH        25.9630   -4.8160   46.6510 O.3     4  TYR4       -0.2866
     13  N         22.9850   -0.9860   39.2360 N.am    5  VAL5       -0.1966
     14  CA        22.7300   -0.5970   37.8600 C.3     5  VAL5        0.1727
     15  C         23.6930    0.5220   37.4750 C.2     5  VAL5        0.2616
     16  O         23.8240    1.5050   38.2130 O.2     5  VAL5       -0.2715
     17  CB        21.2560   -0.1570   37.6800 C.3     5  VAL5        0.0290
     18  CG1       20.9700    0.2360   36.2330 C.3     5  VAL5        0.0023
     19  CG2       20.3330   -1.2540   38.1740 C.3     5  VAL5        0.0023
     20  N         24.3340    0.4020   36.3110 N.am    6  ASN6       -0.1958
     21  CA        25.1740    1.4570   35.7660 C.3     6  ASN6        0.1819
     22  C         24.3810    2.5500   35.0710 C.2     6  ASN6        0.2621
     23  O         23.3040    2.3100   34.4990 O.2     6  ASN6       -0.2715
     24  CB        26.1890    0.8840   34.7850 C.3     6  ASN6        0.1195
     25  CG        27.1800   -0.0260   35.4460 C.2     6  ASN6        0.2630
     26  OD1       27.4690    0.0970   36.6330 O.2     6  ASN6       -0.2716
     27  ND2       27.6860   -0.9860   34.6890 N.am    6  ASN6       -0.0877
     28  N         24.9170    3.7870   35.1090 N.am    7  LYS7       -0.1963
     29  CA        24.3120    4.8870   34.4580 C.3     7  LYS7        0.1728
     30  C         24.6690    4.7310   32.9820 C.2     7  LYS7        0.2616
     31  O         25.7450    4.2160   32.6710 O.2     7  LYS7       -0.2715
     32  CB        24.9330    6.2210   34.9850 C.3     7  LYS7        0.0311
     33  CG        24.8410    6.4120   36.4990 C.3     7  LYS7        0.0038
     34  CD        25.4920    7.7550   36.9520 C.3     7  LYS7        0.0206
     35  CE        24.5030    8.8780   37.1210 C.3     7  LYS7        0.1093
     36  NZ        25.1710   10.0410   37.8060 N.3     7  LYS7       -0.1314
     37  N         23.7800    5.1140   32.0900 N.am    8  VAL8       -0.1963
     38  CA        24.1430    5.2080   30.6500 C.3     8  VAL8        0.1727
     39  C         23.9550    6.6340   30.1700 C.2     8  VAL8        0.2616
     40  O         23.1970    7.4170   30.7790 O.2     8  VAL8       -0.2715
     41  CB        23.3330    4.2530   29.7220 C.3     8  VAL8        0.0290
     42  CG1       23.5080    2.8200   30.1760 C.3     8  VAL8        0.0023
     43  CG2       21.8480    4.6330   29.6990 C.3     8  VAL8        0.0023
     44  N         24.6160    6.9340   29.0570 N.am    9  TRP9       -0.1960
     45  CA        24.2770    8.0820   28.2060 C.3     9  TRP9        0.1771
     46  C         23.2260    7.6380   27.1890 C.2     9  TRP9        0.2620
     47  O         23.3410    6.5410   26.6040 O.2     9  TRP9       -0.2715
     48  CB        25.4910    8.5870   27.4520 C.3     9  TRP9        0.0590
     49  CG        26.5340    9.1870   28.3090 C.ar    9  TRP9        0.0006
     50  CD1       27.6140    8.5540   28.8700 C.ar    9  TRP9        0.0946
     51  CD2       26.6290   10.5720   28.7040 C.ar    9  TRP9        0.0152
     52  NE1       28.3700    9.4490   29.5920 N.ar    9  TRP9       -0.2442
     53  CE2       27.7930   10.6910   29.5150 C.ar    9  TRP9        0.0810
     54  CE3       25.8500   11.7070   28.4590 C.ar    9  TRP9        0.0012
     55  CZ2       28.1980   11.9190   30.0800 C.ar    9  TRP9        0.0191
     56  CZ3       26.2410   12.9390   29.0290 C.ar    9  TRP9        0.0001
     57  CH2       27.4220   13.0210   29.8190 C.ar    9  TRP9        0.0015
     58  N         22.2010    8.4610   27.0200 N.am   10  VAL10      -0.1963
     59  CA        21.1740    8.2540   26.0000 C.3    10  VAL10       0.1727
     60  C         21.0710    9.4800   25.1070 C.2    10  VAL10       0.2616
     61  O         21.2260   10.6090   25.5950 O.2    10  VAL10      -0.2715
     62  CB        19.8100    7.8890   26.6540 C.3    10  VAL10       0.0290
     63  CG1       19.2750    9.0050   27.5590 C.3    10  VAL10       0.0023
     64  CG2       18.7940    7.4800   25.5960 C.3    10  VAL10       0.0023
     65  N         20.8220    9.2580   23.8140 N.am   11  GLN11      -0.1977
     66  CA        20.7280   10.3390   22.8580 C.3    11  GLN11       0.1601
     67  C         19.2560   10.7660   22.6520 C.2    11  GLN11       0.2287
     68  O         18.3880    9.9480   22.3920 O.2    11  GLN11      -0.2864
     69  CB        21.3790   10.0020   21.5380 C.3    11  GLN11       0.0394
     70  CG        21.5550   11.2370   20.6840 C.3    11  GLN11       0.0908
     71  CD        22.2410   10.9980   19.3730 C.2    11  GLN11       0.2608
     72  OE1       22.0880    9.9450   18.7250 O.2    11  GLN11      -0.2717
     73  NE2       22.9810   11.9870   18.9450 N.am   11  GLN11      -0.0878
     74  N         16.2810   12.0180   20.4730 N.3    13  GLU13      -0.1245
     75  CA        15.9280   11.8010   19.0730 C.3    13  GLU13       0.1567
     76  C         15.1150   12.9480   18.4320 C.2    13  GLU13       0.2260
     77  O         14.7250   12.8470   17.2850 O.2    13  GLU13      -0.2867
     78  CB        15.2720   10.4250   18.8450 C.3    13  GLU13       0.0388
     79  CG        16.2380    9.3100   19.1970 C.3    13  GLU13       0.1160
     80  CD        15.6380    7.9350   19.1250 C.2    13  GLU13       0.3649
     81  OE1       14.9080    7.6890   18.1630 O.co2  13  GLU13      -0.2457
     82  OE2       15.9450    7.0900   19.9890 O.co2  13  GLU13      -0.2457
     83  N         23.2490   14.2670   24.1490 N.3    20  TRP20      -0.1241
     84  CA        23.4280   13.1370   25.0420 C.3    20  TRP20       0.1605
     85  C         23.1770   13.5040   26.4970 C.2    20  TRP20       0.2264
     86  O         23.7050   14.5340   26.9980 O.2    20  TRP20      -0.2867
     87  CB        24.8440   12.5620   24.8960 C.3    20  TRP20       0.0550
     88  CG        25.0860   11.9260   23.5940 C.ar   20  TRP20       0.0003
     89  CD1       25.5750   12.5060   22.4800 C.ar   20  TRP20       0.0946
     90  CD2       24.8200   10.5530   23.2520 C.ar   20  TRP20       0.0152
     91  NE1       25.6620   11.5920   21.4580 N.ar   20  TRP20      -0.2442
     92  CE2       25.1930   10.3830   21.9010 C.ar   20  TRP20       0.0810
     93  CE3       24.3280    9.4480   23.9630 C.ar   20  TRP20       0.0012
     94  CZ2       25.0830    9.1720   21.2540 C.ar   20  TRP20       0.0191
     95  CZ3       24.2270    8.2600   23.3250 C.ar   20  TRP20       0.0001
     96  CH2       24.5930    8.1250   21.9760 C.ar   20  TRP20       0.0015
     97  N         22.9510   12.0190   30.6180 N.3    22  LEU22      -0.1245
     98  CA        23.4710   10.9880   31.5130 C.3    22  LEU22       0.1561
     99  C         22.4040   10.5900   32.5040 C.2    22  LEU22       0.2260
    100  O         21.9790   11.3960   33.3130 O.2    22  LEU22      -0.2867
    101  CB        24.7210   11.4960   32.2440 C.3    22  LEU22       0.0270
    102  CG        25.3320   10.5400   33.2630 C.3    22  LEU22       0.0019
    103  CD1       25.7810    9.1860   32.6640 C.3    22  LEU22       0.0001
    104  CD2       26.5210   11.2530   33.9160 C.3    22  LEU22       0.0001
    105  N         20.8780    5.7640   37.6510 N.3    25  SER25      -0.1217
    106  CA        20.7490    4.2930   37.6920 C.3    25  SER25       0.1889
    107  C         19.3160    3.8060   37.4390 C.2    25  SER25       0.2288
    108  O         19.1100    2.9410   36.5840 O.2    25  SER25      -0.2866
    109  CB        21.3100    3.7450   38.9990 C.3    25  SER25       0.2089
    110  OG        22.7220    3.8880   38.9460 O.3    25  SER25      -0.2183
    111  N         15.0170    2.4460   30.7570 N.3    31  VAL31      -0.1231
    112  CA        15.0730    2.8580   29.3470 C.3    31  VAL31       0.1692
    113  C         14.5970    1.7150   28.4810 C.2    31  VAL31       0.2592
    114  O         15.0720    0.5740   28.6600 O.2    31  VAL31      -0.2718
    115  CB        16.5110    3.2330   28.8790 C.3    31  VAL31       0.0266
    116  CG1       16.6220    3.3150   27.3500 C.3    31  VAL31       0.0020
    117  CG2       16.9530    4.5540   29.4680 C.3    31  VAL31       0.0020
    118  N         13.6830    1.9970   27.5560 N.am   32  ASP32      -0.1960
    119  CA        13.2340    1.0010   26.5770 C.3    32  ASP32       0.1840
    120  C         14.1130    1.1680   25.3260 C.2    32  ASP32       0.2622
    121  O         13.9910    2.1210   24.5540 O.2    32  ASP32      -0.2715
    122  CB        11.7540    1.1720   26.2150 C.3    32  ASP32       0.1450
    123  CG        11.2450    0.0330   25.3070 C.2    32  ASP32       0.3671
    124  OD1       12.0130   -0.6070   24.5550 O.co2  32  ASP32      -0.2456
    125  OD2       10.0410   -0.2450   25.3730 O.co2  32  ASP32      -0.2456
    126  N         15.0230    0.2120   25.1470 N.am   33  HIS33      -0.1959
    127  CA        15.9950    0.3000   24.0670 C.3    33  HIS33       0.1787
    128  C         15.3750    0.1850   22.6690 C.2    33  HIS33       0.2620
    129  O         16.0100    0.5560   21.7040 O.2    33  HIS33      -0.2715
    130  CB        17.1100   -0.7390   24.2720 C.3    33  HIS33       0.0785
    131  CG        17.9080   -0.4840   25.5160 C.ar   33  HIS33       0.0821
    132  ND1       19.0920    0.2190   25.4970 N.ar   33  HIS33      -0.2267
    133  CD2       17.6470   -0.7590   26.8200 C.ar   33  HIS33       0.1154
    134  CE1       19.5550    0.3220   26.7270 C.ar   33  HIS33       0.1986
    135  NE2       18.6790   -0.2210   27.5530 N.ar   33  HIS33      -0.2212
    136  N         14.1440   -0.3150   22.5780 N.am   34  ASP34      -0.1957
    137  CA        13.4970   -0.4750   21.2850 C.3    34  ASP34       0.1840
    138  C         12.5350    0.6760   20.9420 C.2    34  ASP34       0.2621
    139  O         11.8200    0.5880   19.9330 O.2    34  ASP34      -0.2715
    140  CB        12.7160   -1.7880   21.2400 C.3    34  ASP34       0.1450
    141  CG        13.6030   -2.9890   21.4700 C.2    34  ASP34       0.3671
    142  OD1       14.7080   -3.0420   20.8860 O.co2  34  ASP34      -0.2456
    143  OD2       13.2000   -3.8320   22.2320 O.co2  34  ASP34      -0.2456
    144  N         12.5080    1.7140   21.7760 N.am   35  GLU35      -0.1977
    145  CA        11.6570    2.8840   21.5350 C.3    35  GLU35       0.1602
    146  C         12.4900    4.1640   21.4970 C.2    35  GLU35       0.2287
    147  O         13.6000    4.2370   22.0270 O.2    35  GLU35      -0.2864
    148  CB        10.6210    3.0150   22.6630 C.3    35  GLU35       0.0415
    149  CG         9.5770    1.9110   22.7460 C.3    35  GLU35       0.1163
    150  CD         8.8010    1.7090   21.4560 C.2    35  GLU35       0.3649
    151  OE1        8.5850    2.6690   20.7190 O.co2  35  GLU35      -0.2457
    152  OE2        8.4330    0.5740   21.1500 O.co2  35  GLU35      -0.2457
    153  N         13.7990    7.9160   22.4830 N.3    37  TRP37      -0.1241
    154  CA        14.0230    8.6360   23.7390 C.3    37  TRP37       0.1605
    155  C         14.2130   10.1310   23.4050 C.2    37  TRP37       0.2264
    156  O         14.8250   10.4590   22.3840 O.2    37  TRP37      -0.2867
    157  CB        15.2320    8.0550   24.5130 C.3    37  TRP37       0.0550
    158  CG        15.3050    8.5530   25.9270 C.ar   37  TRP37       0.0003
    159  CD1       14.7900    7.9650   27.0310 C.ar   37  TRP37       0.0946
    160  CD2       15.9510    9.7470   26.3610 C.ar   37  TRP37       0.0152
    161  NE1       15.0580    8.7170   28.1320 N.ar   37  TRP37      -0.2442
    162  CE2       15.7570    9.8340   27.7480 C.ar   37  TRP37       0.0810
    163  CE3       16.6280   10.7870   25.6920 C.ar   37  TRP37       0.0012
    164  CZ2       16.2430   10.8780   28.5020 C.ar   37  TRP37       0.0191
    165  CZ3       17.1470   11.8290   26.4560 C.ar   37  TRP37       0.0001
    166  CH2       16.9380   11.8720   27.8510 C.ar   37  TRP37       0.0015
    167  N         31.2470   15.5750   29.9460 N.3    57  ARG57      -0.1245
    168  CA        31.5980   14.1810   30.2690 C.3    57  ARG57       0.1563
    169  C         32.7110   14.1430   31.3150 C.2    57  ARG57       0.2260
    170  O         32.4730   13.7240   32.4560 O.2    57  ARG57      -0.2867
    171  CB        32.0090   13.4130   29.0000 C.3    57  ARG57       0.0307
    172  CG        30.9060   13.3980   27.9050 C.3    57  ARG57       0.0489
    173  CD        31.3580   12.6670   26.6650 C.3    57  ARG57       0.2205
    174  NE        30.3090   12.5250   25.6730 N.pl3  57  ARG57      -0.0865
    175  CZ        29.6540   11.4500   25.2890 C.cat  57  ARG57       0.5346
    176  NH1       29.8940   10.2550   25.7850 N.pl3  57  ARG57       0.1354
    177  NH2       28.7340   11.5590   24.3310 N.pl3  57  ARG57       0.1354
@<TRIPOS>BOND
     1    77    76    2
     2    81    80   ar
     3    76    75    1
     4    72    71    2
     5    78    75    1
     6    78    79    1
     7    73    71   am
     8    75    74    1
     9    80    79    1
    10    80    82   ar
    11    71    70    1
    12   139   138    2
    13    70    69    1
    14   151   150   ar
    15   142   141   ar
    16   138   137    1
    17   138   144   am
    18   152   150   ar
    19   140   137    1
    20   140   141    1
    21    94    92   ar
    22    94    96   ar
    23   137   136    1
    24   150   149    1
    25    91    92   ar
    26    91    89   ar
    27   141   143   ar
    28   146   145    1
    29   146   147    2
    30   145   144    1
    31   145   148    1
    32    69    66    1
    33   129   128    2
    34    92    90   ar
    35    96    95   ar
    36   156   155    2
    37    68    67    2
    38    89    88   ar
    39   153   154    1
    40   136   128   am
    41    67    66    1
    42   148   149    1
    43   128   127    1
    44    66    65    1
    45    90    88   ar
    46    90    93   ar
    47    95    93   ar
    48   155   154    1
    49    88    87    1
    50   154   157    1
    51    65    60   am
    52   127   130    1
    53   127   126    1
    54    83    84    1
    55   130   131    1
    56   177   175    1
    57   157   158    1
    58   121   120    2
    59   124   123   ar
    60    87    84    1
    61    84    85    1
    62    60    61    2
    63    60    59    1
    64   126   120   am
    65   175   174    2
    66   175   176    1
    67   123   125   ar
    68   123   122    1
    69   120   119    1
    70   132   131   ar
    71   132   134   ar
    72   131   133   ar
    73    64    62    1
    74   174   173    1
    75   163   160   ar
    76   163   165   ar
    77   158   160   ar
    78   158   159   ar
    79    59    62    1
    80    59    58    1
    81   122   119    1
    82   160   162   ar
    83   165   166   ar
    84    85    86    2
    85   119   118    1
    86    47    46    2
    87    62    63    1
    88   173   172    1
    89   134   135   ar
    90   133   135   ar
    91    58    46   am
    92   159   161   ar
    93    46    45    1
    94   116   115    1
    95    48    45    1
    96    48    49    1
    97   118   113   am
    98   162   161   ar
    99   162   164   ar
   100   166   164   ar
   101   172   171    1
   102    45    44    1
   103    49    51   ar
   104    49    50   ar
   105    54    51   ar
   106    54    56   ar
   107   113   114    2
   108   113   112    1
   109    51    53   ar
   110    50    52   ar
   111   115   112    1
   112   115   117    1
   113   171   168    1
   114    56    57   ar
   115    44    39   am
   116   112   111    1
   117    53    52   ar
   118    53    55   ar
   119    43    41    1
   120    41    42    1
   121    41    38    1
   122    57    55   ar
   123   167   168    1
   124    39    38    1
   125    39    40    2
   126   168   169    1
   127    97    98    1
   128    38    37    1
   129   169   170    2
   130    98   101    1
   131    98    99    1
   132    37    30   am
   133   101   102    1
   134    99   100    2
   135   103   102    1
   136    31    30    2
   137    30    29    1
   138   102   104    1
   139    29    32    1
   140    29    28    1
   141    23    22    2
   142    27    25   am
   143    24    25    1
   144    24    21    1
   145    32    33    1
   146    22    28   am
   147    22    21    1
   148    25    26    2
   149    21    20    1
   150    18    17    1
   151    20    15   am
   152    33    34    1
   153   108   107    2
   154    34    35    1
   155    35    36    1
   156   107   106    1
   157    15    14    1
   158    15    16    2
   159   105   106    1
   160    17    14    1
   161    17    19    1
   162   106   109    1
   163    14    13    1
   164     4     3    2
   165   110   109    1
   166    13     3   am
   167     3     2    1
   168     2     5    1
   169     2     1    1
   170     5     6    1
   171     6     8   ar
   172     6     7   ar
   173     8    10   ar
   174     7     9   ar
   175    10    11   ar
   176     9    11   ar
   177    11    12    1
