@<TRIPOS>MOLECULE
tmp/4z0uA00.pdb
 124 118 0 0 0
SMALL
GASTEIGER

@<TRIPOS>ATOM
      1  N         82.6650   39.5320   37.8240 N.3     3  LYS3       -0.1245
      2  CA        82.0020   40.4630   36.9100 C.3     3  LYS3        0.1561
      3  C         81.0030   39.6930   36.0580 C.2     3  LYS3        0.2260
      4  O         81.3340   38.6120   35.5680 O.2     3  LYS3       -0.2867
      5  CB        83.0190   41.1270   35.9980 C.3     3  LYS3        0.0271
      6  CG        84.0160   41.9960   36.7270 C.3     3  LYS3        0.0035
      7  CD        84.9980   42.6310   35.7660 C.3     3  LYS3        0.0206
      8  CE        86.1020   43.3400   36.5270 C.3     3  LYS3        0.1093
      9  NZ        87.1860   43.7600   35.6060 N.3     3  LYS3       -0.1314
     10  N         78.8120   39.2300   32.6790 N.3     5  VAL5       -0.1245
     11  CA        78.8240   39.6030   31.2760 C.3     5  VAL5        0.1561
     12  C         77.6520   38.9180   30.5930 C.2     5  VAL5        0.2260
     13  O         77.3520   37.7580   30.8640 O.2     5  VAL5       -0.2867
     14  CB        80.1540   39.2040   30.5980 C.3     5  VAL5        0.0252
     15  CG1       80.1200   39.4920   29.1080 C.3     5  VAL5        0.0019
     16  CG2       81.3130   39.9600   31.2130 C.3     5  VAL5        0.0019
     17  N         79.2990   40.8730   23.2530 N.3    26  LEU26      -0.1245
     18  CA        79.6410   40.8460   24.6800 C.3    26  LEU26       0.1561
     19  C         79.2160   42.1820   25.2880 C.2    26  LEU26       0.2260
     20  O         79.4930   43.2230   24.7160 O.2    26  LEU26      -0.2867
     21  CB        81.1480   40.6780   24.8920 C.3    26  LEU26       0.0270
     22  CG        81.7320   39.2640   24.8760 C.3    26  LEU26       0.0019
     23  CD1       81.3920   38.5560   23.5760 C.3    26  LEU26       0.0001
     24  CD2       83.2400   39.2980   25.0870 C.3    26  LEU26       0.0001
     25  N         79.2110   44.3180   29.0820 N.3    28  TYR28      -0.1227
     26  CA        79.5030   44.4840   30.5100 C.3    28  TYR28       0.1736
     27  C         79.0150   45.8520   31.0030 C.2    28  TYR28       0.2595
     28  O         79.5380   46.8880   30.5890 O.2    28  TYR28      -0.2718
     29  CB        81.0090   44.3350   30.7820 C.3    28  TYR28       0.0548
     30  CG        81.3890   44.5900   32.2250 C.ar   28  TYR28      -0.0200
     31  CD1       80.8450   43.8270   33.2520 C.ar   28  TYR28      -0.0009
     32  CD2       82.2880   45.5960   32.5610 C.ar   28  TYR28      -0.0009
     33  CE1       81.1860   44.0570   34.5720 C.ar   28  TYR28       0.0417
     34  CE2       82.6430   45.8350   33.8820 C.ar   28  TYR28       0.0417
     35  CZ        82.0910   45.0670   34.8840 C.ar   28  TYR28       0.1957
     36  OH        82.4410   45.3120   36.1970 O.3    28  TYR28      -0.2866
     37  N         78.0230   45.8290   31.8940 N.am   29  ARG29      -0.1980
     38  CA        77.4250   47.0410   32.4770 C.3    29  ARG29       0.1597
     39  C         77.0600   48.0870   31.4240 C.2    29  ARG29       0.2287
     40  O         77.3650   49.2680   31.5620 O.2    29  ARG29      -0.2864
     41  CB        78.3410   47.6100   33.5720 C.3    29  ARG29       0.0334
     42  CG        78.4800   46.6320   34.7350 C.3    29  ARG29       0.0492
     43  CD        79.2980   47.1560   35.9040 C.3    29  ARG29       0.2205
     44  NE        78.8130   48.4300   36.4400 N.pl3  29  ARG29      -0.0865
     45  CZ        77.6660   48.6090   37.1010 C.cat  29  ARG29       0.5346
     46  NH1       76.8190   47.6040   37.3200 N.pl3  29  ARG29       0.1354
     47  NH2       77.3560   49.8180   37.5460 N.pl3  29  ARG29       0.1354
     48  N         78.1970   48.3740   28.3380 N.3    31  ARG31      -0.1231
     49  CA        79.2160   48.6020   27.3040 C.3    31  ARG31       0.1694
     50  C         79.4100   47.3430   26.4580 C.2    31  ARG31       0.2592
     51  O         79.5700   46.2570   27.0070 O.2    31  ARG31      -0.2718
     52  CB        80.5370   49.0160   27.9460 C.3    31  ARG31       0.0321
     53  CG        80.4820   50.3740   28.6320 C.3    31  ARG31       0.0489
     54  CD        81.7570   50.6690   29.4010 C.3    31  ARG31       0.2205
     55  NE        81.9430   49.7540   30.5250 N.pl3  31  ARG31      -0.0865
     56  CZ        82.9880   49.7660   31.3520 C.cat  31  ARG31       0.5346
     57  NH1       83.9690   50.6520   31.2000 N.pl3  31  ARG31       0.1354
     58  NH2       83.0520   48.8840   32.3430 N.pl3  31  ARG31       0.1354
     59  N         79.4100   47.5060   25.1290 N.am   32  GLU32      -0.1966
     60  CA        79.3950   46.3810   24.1810 C.3    32  GLU32       0.1733
     61  C         80.6620   46.2460   23.3450 C.2    32  GLU32       0.2616
     62  O         81.3600   47.2230   23.0990 O.2    32  GLU32      -0.2715
     63  CB        78.2300   46.5210   23.2070 C.3    32  GLU32       0.0429
     64  CG        76.8780   46.2100   23.8090 C.3    32  GLU32       0.1163
     65  CD        75.7630   46.1990   22.7810 C.2    32  GLU32       0.3649
     66  OE1       76.0240   46.5020   21.5950 O.co2  32  GLU32      -0.2457
     67  OE2       74.6160   45.8810   23.1610 O.co2  32  GLU32      -0.2457
     68  N         80.9390   45.0130   22.9250 N.am   33  LYS33      -0.1977
     69  CA        81.8930   44.7240   21.8470 C.3    33  LYS33       0.1596
     70  C         81.3560   43.5890   20.9660 C.2    33  LYS33       0.2287
     71  O         80.7090   42.6480   21.4580 O.2    33  LYS33      -0.2864
     72  CB        83.2520   44.3400   22.3980 C.3    33  LYS33       0.0298
     73  CG        84.3090   44.1770   21.3200 C.3    33  LYS33       0.0038
     74  CD        85.6740   43.9270   21.9270 C.3    33  LYS33       0.0206
     75  CE        86.7510   43.9640   20.8550 C.3    33  LYS33       0.1093
     76  NZ        87.9950   43.2730   21.2920 N.3    33  LYS33      -0.1314
     77  N         81.8540   40.7560   17.6240 N.3    35  PHE35      -0.1241
     78  CA        82.8050   39.9050   16.9130 C.3    35  PHE35       0.1605
     79  C         82.0600   39.2570   15.7720 C.2    35  PHE35       0.2264
     80  O         80.8830   38.8800   15.9290 O.2    35  PHE35      -0.2867
     81  CB        83.3440   38.7970   17.8190 C.3    35  PHE35       0.0534
     82  CG        84.0700   39.2970   19.0290 C.ar   35  PHE35      -0.0203
     83  CD1       83.3650   39.7620   20.1310 C.ar   35  PHE35      -0.0042
     84  CD2       85.4590   39.2870   19.0770 C.ar   35  PHE35      -0.0042
     85  CE1       84.0290   40.2330   21.2490 C.ar   35  PHE35      -0.0003
     86  CE2       86.1300   39.7380   20.2010 C.ar   35  PHE35      -0.0003
     87  CZ        85.4160   40.2120   21.2850 C.ar   35  PHE35      -0.0000
     88  N         87.3360   35.5010   24.2550 N.3    58  ALA58      -0.1231
     89  CA        87.6870   36.9270   24.3090 C.3    58  ALA58       0.1694
     90  C         87.7750   37.4720   25.7430 C.2    58  ALA58       0.2592
     91  O         88.3620   38.5390   25.9690 O.2    58  ALA58      -0.2718
     92  CB        86.6890   37.7460   23.5060 C.3    58  ALA58       0.0304
     93  N         87.2100   36.7430   26.7050 N.am   59  LEU59      -0.1966
     94  CA        87.1940   37.1890   28.0990 C.3    59  LEU59       0.1728
     95  C         88.5720   37.0440   28.7330 C.2    59  LEU59       0.2616
     96  O         89.1950   35.9830   28.6380 O.2    59  LEU59      -0.2715
     97  CB        86.1540   36.4140   28.8980 C.3    59  LEU59       0.0311
     98  CG        84.6960   36.5700   28.4600 C.3    59  LEU59       0.0022
     99  CD1       83.8110   35.6440   29.2740 C.3    59  LEU59       0.0001
    100  CD2       84.2200   38.0140   28.5880 C.3    59  LEU59       0.0001
    101  N         89.0170   38.1040   29.4110 N.am   60  LYS60      -0.1963
    102  CA        90.4140   38.2360   29.8940 C.3    60  LYS60       0.1728
    103  C         90.5730   37.7840   31.3420 C.2    60  LYS60       0.2616
    104  O         91.6850   37.7550   31.8680 O.2    60  LYS60      -0.2715
    105  CB        90.8960   39.6920   29.8140 C.3    60  LYS60       0.0311
    106  CG        90.1810   40.5480   28.7860 C.3    60  LYS60       0.0038
    107  CD        91.0260   40.8910   27.5800 C.3    60  LYS60       0.0206
    108  CE        91.5760   42.3020   27.6790 C.3    60  LYS60       0.1093
    109  NZ        91.8940   42.8020   26.3170 N.3    60  LYS60      -0.1314
    110  N         89.4570   37.4680   31.9890 N.am   61  GLU61      -0.1977
    111  CA        89.4570   36.9900   33.3590 C.3    61  GLU61       0.1602
    112  C         88.2130   36.1550   33.5500 C.2    61  GLU61       0.2287
    113  O         87.2920   36.2700   32.7380 O.2    61  GLU61      -0.2864
    114  CB        89.4400   38.1770   34.3260 C.3    61  GLU61       0.0415
    115  CG        88.2380   39.0930   34.1480 C.3    61  GLU61       0.1163
    116  CD        88.2340   40.2620   35.1190 C.2    61  GLU61       0.3649
    117  OE1       88.8450   41.2960   34.8010 O.co2  61  GLU61      -0.2457
    118  OE2       87.6030   40.1480   36.1890 O.co2  61  GLU61      -0.2457
    119  N         84.5810   35.1590   34.6690 N.3    63  CYS63      -0.1235
    120  CA        83.3770   35.9920   34.7340 C.3    63  CYS63       0.1677
    121  C         82.1560   35.1190   34.9730 C.2    63  CYS63       0.2270
    122  O         82.1920   33.9030   34.7530 O.2    63  CYS63      -0.2867
    123  CB        83.1380   36.7490   33.4260 C.3    63  CYS63       0.0956
    124  SG        84.3720   37.9700   32.9620 S.3    63  CYS63      -0.0801
@<TRIPOS>BOND
     1    79    80    2
     2    79    78    1
     3    78    77    1
     4    78    81    1
     5    81    82    1
     6    82    84   ar
     7    82    83   ar
     8    84    86   ar
     9    83    85   ar
    10    86    87   ar
    11    75    76    1
    12    75    74    1
    13    70    71    2
    14    70    69    1
    15    85    87   ar
    16    73    74    1
    17    73    72    1
    18    66    65   ar
    19    69    72    1
    20    69    68    1
    21    65    67   ar
    22    65    64    1
    23    68    61   am
    24    62    61    2
    25    63    64    1
    26    63    60    1
    27    17    18    1
    28    61    60    1
    29    92    89    1
    30    23    22    1
    31    60    59    1
    32    88    89    1
    33    89    90    1
    34    18    21    1
    35    18    19    1
    36    20    19    2
    37    22    21    1
    38    22    24    1
    39    59    50   am
    40    90    91    2
    41    90    93   am
    42   109   108    1
    43    50    51    2
    44    50    49    1
    45    93    94    1
    46    49    52    1
    47    49    48    1
    48   107   108    1
    49   107   106    1
    50    52    53    1
    51    94    95    1
    52    94    97    1
    53    98   100    1
    54    98    97    1
    55    98    99    1
    56    53    54    1
    57    96    95    2
    58    95   101   am
    59   106   105    1
    60    25    26    1
    61    15    14    1
    62    54    55    1
    63   101   102    1
    64   105   102    1
    65   102   103    1
    66    26    29    1
    67    26    27    1
    68    55    56    2
    69    28    27    2
    70    12    13    2
    71    12    11    1
    72    14    16    1
    73    14    11    1
    74    29    30    1
    75    27    37   am
    76    57    56    1
    77    11    10    1
    78   103   104    2
    79   103   110   am
    80    56    58    1
    81    39    40    2
    82    39    38    1
    83    37    38    1
    84   110   111    1
    85    30    32   ar
    86    30    31   ar
    87    38    41    1
    88    32    34   ar
    89   113   112    2
    90   124   123    1
    91    31    33   ar
    92   111   112    1
    93   111   114    1
    94   123   120    1
    95    41    42    1
    96    34    35   ar
    97   115   114    1
    98   115   116    1
    99    33    35   ar
   100   119   120    1
   101   120   121    1
   102    42    43    1
   103   122   121    2
   104   117   116   ar
   105    35    36    1
   106   116   118   ar
   107     4     3    2
   108     9     8    1
   109     7     8    1
   110     7     6    1
   111    43    44    1
   112     5     6    1
   113     5     2    1
   114     3     2    1
   115    44    45    2
   116     2     1    1
   117    45    46    1
   118    45    47    1
