@<TRIPOS>MOLECULE
tmp/4z0zE00.pdb
 88 83 0 0 0
SMALL
GASTEIGER

@<TRIPOS>ATOM
      1  N         -1.6090  -45.2120   12.5080 N.3   153  ASP153     -0.1225
      2  CA        -1.6200  -43.9680   11.7410 C.3   153  ASP153      0.1805
      3  C         -3.0230  -43.6610   11.2180 C.2   153  ASP153      0.2598
      4  O         -3.2230  -42.6860   10.5110 O.2   153  ASP153     -0.2718
      5  CB        -0.6210  -44.0290   10.5770 C.3   153  ASP153      0.1424
      6  CG        -0.7890  -45.2730    9.6990 C.2   153  ASP153      0.3668
      7  OD1       -0.7010  -46.4100   10.2150 O.co2 153  ASP153     -0.2456
      8  OD2       -1.0040  -45.1080    8.4810 O.co2 153  ASP153     -0.2456
      9  N         -3.9870  -44.5080   11.5620 N.am  154  GLU154     -0.1966
     10  CA        -5.3770  -44.3180   11.1490 C.3   154  GLU154      0.1718
     11  C         -6.2380  -44.2320   12.4000 C.2   154  GLU154      0.2458
     12  O         -6.1070  -45.0840   13.2670 O.2   154  GLU154     -0.2730
     13  CB        -5.8340  -45.4700   10.2550 C.3   154  GLU154      0.0428
     14  CG        -7.2090  -45.2960    9.6520 C.3   154  GLU154      0.1163
     15  CD        -7.5140  -46.3410    8.5920 C.2   154  GLU154      0.3649
     16  OE1       -7.0260  -46.1910    7.4570 O.co2 154  GLU154     -0.2457
     17  OE2       -8.2370  -47.3140    8.8920 O.co2 154  GLU154     -0.2457
     18  N         -7.1200  -43.2160   12.4980 N.am  155  PRO155     -0.2727
     19  CA        -7.8180  -43.0100   13.7760 C.3   155  PRO155      0.1402
     20  C         -8.4410  -44.2870   14.3680 C.2   155  PRO155      0.2269
     21  O         -8.1910  -44.5760   15.5380 O.2   155  PRO155     -0.2865
     22  CB        -8.8840  -41.9710   13.4120 C.3   155  PRO155      0.0296
     23  CG        -8.1970  -41.1260   12.3770 C.3   155  PRO155      0.0237
     24  CD        -7.3840  -42.1120   11.5560 C.3   155  PRO155      0.0939
     25  N         -9.8240  -37.3750   21.1470 N.3   201  GLN201     -0.1245
     26  CA        -9.7560  -36.7480   19.8320 C.3   201  GLN201      0.1566
     27  C         -8.4290  -36.0170   19.6660 C.2   201  GLN201      0.2260
     28  O         -7.8360  -36.0160   18.5900 O.2   201  GLN201     -0.2867
     29  CB       -10.9250  -35.7800   19.6310 C.3   201  GLN201      0.0367
     30  CG       -12.3170  -36.4060   19.6040 C.3   201  GLN201      0.0905
     31  CD       -12.4560  -37.4530   18.5290 C.2   201  GLN201      0.2608
     32  OE1      -12.1400  -37.1650   17.3580 O.2   201  GLN201     -0.2717
     33  NE2      -12.7840  -38.6550   18.8860 N.am  201  GLN201     -0.0878
     34  N         -5.6730  -38.4540   19.0600 N.3   204  VAL204     -0.1231
     35  CA        -5.6980  -38.8960   17.6620 C.3   204  VAL204      0.1692
     36  C         -4.9190  -37.9190   16.7890 C.2   204  VAL204      0.2591
     37  O         -4.0880  -38.3290   15.9800 O.2   204  VAL204     -0.2718
     38  CB        -7.1290  -39.0370   17.1240 C.3   204  VAL204      0.0266
     39  CG1       -7.1420  -39.2030   15.6010 C.3   204  VAL204      0.0020
     40  CG2       -7.8390  -40.2130   17.7860 C.3   204  VAL204      0.0020
     41  N         -5.1820  -36.6220   16.9550 N.am  205  ALA205     -0.1980
     42  CA        -4.4650  -35.6190   16.1850 C.3   205  ALA205      0.1597
     43  C         -2.9670  -35.6530   16.5350 C.2   205  ALA205      0.2287
     44  O         -2.1070  -35.5360   15.6500 O.2   205  ALA205     -0.2864
     45  CB        -5.0670  -34.2460   16.4220 C.3   205  ALA205      0.0319
     46  N         -1.4000  -38.4940   14.5880 N.3   208  LEU208     -0.1245
     47  CA        -1.2200  -38.1810   13.1730 C.3   208  LEU208      0.1561
     48  C         -0.0240  -37.2360   13.0320 C.2   208  LEU208      0.2260
     49  O          0.8280  -37.4280   12.1620 O.2   208  LEU208     -0.2867
     50  CB        -2.4940  -37.5720   12.5650 C.3   208  LEU208      0.0270
     51  CG        -3.7790  -38.3950   12.6630 C.3   208  LEU208      0.0019
     52  CD1       -4.9250  -37.6770   11.9840 C.3   208  LEU208      0.0001
     53  CD2       -3.6060  -39.7450   12.0370 C.3   208  LEU208      0.0001
     54  N          3.2820  -39.2470   13.3240 N.3   211  VAL211     -0.1231
     55  CA         3.6460  -39.9580   12.1080 C.3   211  VAL211      0.1692
     56  C          4.3090  -39.0280   11.0870 C.2   211  VAL211      0.2592
     57  O          5.3240  -39.3910   10.4920 O.2   211  VAL211     -0.2718
     58  CB         2.4250  -40.6290   11.4610 C.3   211  VAL211      0.0266
     59  CG1        2.8360  -41.3830   10.1830 C.3   211  VAL211      0.0020
     60  CG2        1.7740  -41.5860   12.4460 C.3   211  VAL211      0.0020
     61  N          3.7520  -37.8320   10.8820 N.am  212  TYR212     -0.1976
     62  CA         4.3460  -36.8800    9.9460 C.3   212  TYR212      0.1639
     63  C          5.7130  -36.4250   10.4310 C.2   212  TYR212      0.2290
     64  O          6.6110  -36.1820    9.6320 O.2   212  TYR212     -0.2864
     65  CB         3.4340  -35.6560    9.7430 C.3   212  TYR212      0.0560
     66  CG         2.3940  -35.7950    8.6480 C.ar  212  TYR212     -0.0198
     67  CD1        2.5440  -36.7150    7.6130 C.ar  212  TYR212     -0.0009
     68  CD2        1.2630  -34.9920    8.6450 C.ar  212  TYR212     -0.0009
     69  CE1        1.5950  -36.8390    6.6180 C.ar  212  TYR212      0.0417
     70  CE2        0.3070  -35.1060    7.6510 C.ar  212  TYR212      0.0417
     71  CZ         0.4770  -36.0330    6.6420 C.ar  212  TYR212      0.1957
     72  OH        -0.4720  -36.1520    5.6500 O.3   212  TYR212     -0.2866
     73  N          5.9240  -46.5810    3.1160 N.3   294  LEU294     -0.1245
     74  CA         5.3160  -45.2490    3.0140 C.3   294  LEU294      0.1561
     75  C          6.3390  -44.1290    2.8390 C.2   294  LEU294      0.2260
     76  O          6.1200  -43.1920    2.0620 O.2   294  LEU294     -0.2867
     77  CB         4.4600  -44.9640    4.2460 C.3   294  LEU294      0.0270
     78  CG         3.2740  -45.8920    4.4970 C.3   294  LEU294      0.0019
     79  CD1        2.4740  -45.3580    5.6530 C.3   294  LEU294      0.0001
     80  CD2        2.4100  -46.0240    3.2450 C.3   294  LEU294      0.0001
     81  N          6.4670  -41.4050   -0.3840 N.3   298  LEU298     -0.1245
     82  CA         6.3270  -39.9490   -0.2980 C.3   298  LEU298      0.1561
     83  C          6.9890  -39.2150   -1.4620 C.2   298  LEU298      0.2260
     84  O          6.6810  -38.0480   -1.7150 O.2   298  LEU298     -0.2867
     85  CB         6.9060  -39.4450    1.0180 C.3   298  LEU298      0.0270
     86  CG         6.0310  -39.6680    2.2510 C.3   298  LEU298      0.0019
     87  CD1        6.8100  -39.2730    3.4850 C.3   298  LEU298      0.0001
     88  CD2        4.7070  -38.9010    2.1830 C.3   298  LEU298      0.0001
@<TRIPOS>BOND
     1    84    83    2
     2    83    82    1
     3    81    82    1
     4    82    85    1
     5    85    86    1
     6    76    75    2
     7    88    86    1
     8    86    87    1
     9    75    74    1
    10    74    73    1
    11    74    77    1
    12    80    78    1
    13    77    78    1
    14    78    79    1
    15    72    71    1
    16    69    71   ar
    17    69    67   ar
    18    71    70   ar
    19    16    15   ar
    20    67    66   ar
    21    70    68   ar
    22     8     6   ar
    23    15    17   ar
    24    15    14    1
    25    68    66   ar
    26    66    65    1
    27    64    63    2
    28    14    13    1
    29     6     7   ar
    30     6     5    1
    31    65    62    1
    32    62    63    1
    33    62    61    1
    34    59    58    1
    35    13    10    1
    36    57    56    2
    37     4     3    2
    38     5     2    1
    39    61    56   am
    40    56    55    1
    41    10     9    1
    42    10    11    1
    43     3     9   am
    44     3     2    1
    45    58    55    1
    46    58    60    1
    47    24    23    1
    48    24    18    1
    49     2     1    1
    50    52    51    1
    51    53    51    1
    52    55    54    1
    53    49    48    2
    54    23    22    1
    55    11    18   am
    56    11    12    2
    57    18    19    1
    58    50    51    1
    59    50    47    1
    60    48    47    1
    61    47    46    1
    62    22    19    1
    63    19    20    1
    64    20    21    2
    65    39    38    1
    66    44    43    2
    67    37    36    2
    68    42    45    1
    69    42    43    1
    70    42    41    1
    71    36    41   am
    72    36    35    1
    73    38    35    1
    74    38    40    1
    75    32    31    2
    76    35    34    1
    77    31    33   am
    78    31    30    1
    79    28    27    2
    80    30    29    1
    81    29    26    1
    82    27    26    1
    83    26    25    1
