@<TRIPOS>MOLECULE
tmp/4z0zC00.pdb
 115 108 0 0 0
SMALL
GASTEIGER

@<TRIPOS>ATOM
      1  N         -2.0600  -19.8160   12.3880 N.3   153  ASP153     -0.1225
      2  CA        -1.2580  -21.0030   12.6950 C.3   153  ASP153      0.1805
      3  C         -1.2020  -21.2820   14.2030 C.2   153  ASP153      0.2598
      4  O         -0.6260  -22.2770   14.6440 O.2   153  ASP153     -0.2718
      5  CB         0.1560  -20.8480   12.1380 C.3   153  ASP153      0.1424
      6  CG         0.8360  -19.5830   12.6120 C.2   153  ASP153      0.3668
      7  OD1        0.2790  -18.4780   12.3940 O.co2 153  ASP153     -0.2456
      8  OD2        1.9290  -19.7020   13.2100 O.co2 153  ASP153     -0.2456
      9  N         -1.8260  -20.4130   14.9840 N.am  154  GLU154     -0.1966
     10  CA        -1.9460  -20.6020   16.4290 C.3   154  GLU154      0.1718
     11  C         -3.4340  -20.7010   16.7960 C.2   154  GLU154      0.2458
     12  O         -4.2080  -19.8660   16.3650 O.2   154  GLU154     -0.2730
     13  CB        -1.2680  -19.4430   17.1490 C.3   154  GLU154      0.0428
     14  CG        -1.1300  -19.6040   18.6360 C.3   154  GLU154      0.1163
     15  CD        -0.2410  -18.5320   19.2240 C.2   154  GLU154      0.3649
     16  OE1        0.9750  -18.7730   19.3470 O.co2 154  GLU154     -0.2457
     17  OE2       -0.7570  -17.4470   19.5440 O.co2 154  GLU154     -0.2457
     18  N         -3.8390  -21.7330   17.5680 N.am  155  PRO155     -0.2727
     19  CA        -5.2620  -21.9860   17.8370 C.3   155  PRO155      0.1402
     20  C         -6.1090  -20.7580   18.1800 C.2   155  PRO155      0.2269
     21  O         -7.1040  -20.5180   17.5130 O.2   155  PRO155     -0.2865
     22  CB        -5.2090  -22.9460   19.0280 C.3   155  PRO155      0.0296
     23  CG        -3.9940  -23.7390   18.7770 C.3   155  PRO155      0.0237
     24  CD        -2.9930  -22.7660   18.1950 C.3   155  PRO155      0.0939
     25  N         -7.1090  -28.5750   14.6780 N.3   205  ALA205     -0.1245
     26  CA        -6.1090  -29.5730   14.3220 C.3   205  ALA205      0.1562
     27  C         -5.8960  -29.6220   12.8080 C.2   205  ALA205      0.2260
     28  O         -4.7680  -29.7780   12.3390 O.2   205  ALA205     -0.2867
     29  CB        -6.5150  -30.9480   14.8480 C.3   205  ALA205      0.0290
     30  N         -3.6810  -26.7630   11.8970 N.3   208  LEU208     -0.1245
     31  CA        -2.2970  -27.0610   12.2430 C.3   208  LEU208      0.1561
     32  C         -1.6790  -28.0430   11.2420 C.2   208  LEU208      0.2260
     33  O         -0.5130  -27.9050   10.8750 O.2   208  LEU208     -0.2867
     34  CB        -2.2030  -27.6220   13.6640 C.3   208  LEU208      0.0270
     35  CG        -2.6180  -26.6650   14.7820 C.3   208  LEU208      0.0019
     36  CD1       -2.5270  -27.3940   16.1200 C.3   208  LEU208      0.0001
     37  CD2       -1.7590  -25.4020   14.7990 C.3   208  LEU208      0.0001
     38  N         -0.8260  -26.0850    7.9380 N.3   211  VAL211     -0.1231
     39  CA         0.3700  -25.2660    8.0450 C.3   211  VAL211      0.1692
     40  C          1.6080  -26.1460    7.9120 C.2   211  VAL211      0.2592
     41  O          2.5590  -25.8090    7.1990 O.2   211  VAL211     -0.2718
     42  CB         0.3800  -24.5000    9.3840 C.3   211  VAL211      0.0266
     43  CG1        1.7210  -23.8090    9.6290 C.3   211  VAL211      0.0020
     44  CG2       -0.7710  -23.5000    9.4130 C.3   211  VAL211      0.0020
     45  N          1.5830  -27.2830    8.6030 N.am  212  TYR212     -0.1976
     46  CA         2.6320  -28.2930    8.5060 C.3   212  TYR212      0.1639
     47  C          2.8080  -28.7970    7.0650 C.2   212  TYR212      0.2290
     48  O          3.9250  -28.9600    6.5740 O.2   212  TYR212     -0.2864
     49  CB         2.2900  -29.4570    9.4360 C.3   212  TYR212      0.0560
     50  CG         3.4640  -30.1820   10.0290 C.ar  212  TYR212     -0.0198
     51  CD1        4.0870  -29.7110   11.1780 C.ar  212  TYR212     -0.0009
     52  CD2        3.9290  -31.3600    9.4640 C.ar  212  TYR212     -0.0009
     53  CE1        5.1560  -30.3960   11.7440 C.ar  212  TYR212      0.0417
     54  CE2        4.9950  -32.0500   10.0180 C.ar  212  TYR212      0.0417
     55  CZ         5.6050  -31.5660   11.1570 C.ar  212  TYR212      0.1957
     56  OH         6.6590  -32.2620   11.7060 O.3   212  TYR212     -0.2866
     57  N          4.5210  -25.8750    4.9070 N.3   215  LEU215     -0.1231
     58  CA         5.8830  -25.4760    5.2580 C.3   215  LEU215      0.1693
     59  C          6.8770  -26.6320    5.3490 C.2   215  LEU215      0.2591
     60  O          8.0760  -26.3940    5.3070 O.2   215  LEU215     -0.2718
     61  CB         5.8860  -24.7080    6.5830 C.3   215  LEU215      0.0284
     62  CG         5.7520  -23.1830    6.4660 C.3   215  LEU215      0.0019
     63  CD1        4.5040  -22.7790    5.6920 C.3   215  LEU215      0.0001
     64  CD2        5.7550  -22.5440    7.8460 C.3   215  LEU215      0.0001
     65  N          6.3870  -27.8690    5.4620 N.am  216  VAL216     -0.1980
     66  CA         7.2580  -29.0380    5.6220 C.3   216  VAL216      0.1595
     67  C          6.9890  -30.0710    4.5220 C.2   216  VAL216      0.2287
     68  O          7.8810  -30.3770    3.7370 O.2   216  VAL216     -0.2864
     69  CB         7.0790  -29.6890    7.0140 C.3   216  VAL216      0.0276
     70  CG1        8.0350  -30.8970    7.1950 C.3   216  VAL216      0.0022
     71  CG2        7.2820  -28.6480    8.1200 C.3   216  VAL216      0.0022
     72  N          4.9670  -13.7700    7.0340 N.3   290  ARG290     -0.1245
     73  CA         5.6230  -14.4370    8.1540 C.3   290  ARG290      0.1563
     74  C          6.0040  -15.8880    7.8350 C.2   290  ARG290      0.2260
     75  O          7.0190  -16.3870    8.3330 O.2   290  ARG290     -0.2867
     76  CB         4.7120  -14.3940    9.3860 C.3   290  ARG290      0.0307
     77  CG         5.3030  -15.0370   10.6190 C.3   290  ARG290      0.0489
     78  CD         4.5010  -14.6470   11.8270 C.3   290  ARG290      0.2205
     79  NE         4.7630  -15.5300   12.9530 N.pl3 290  ARG290     -0.0865
     80  CZ         4.0240  -16.5940   13.2590 C.cat 290  ARG290      0.5346
     81  NH1        2.9500  -16.9060   12.5420 N.pl3 290  ARG290      0.1354
     82  NH2        4.3480  -17.3410   14.3070 N.pl3 290  ARG290      0.1354
     83  N          9.2890  -18.1800    8.8540 N.3   294  LEU294     -0.1245
     84  CA         9.2360  -19.4520    9.5690 C.3   294  LEU294      0.1561
     85  C          9.8380  -20.5800    8.7420 C.2   294  LEU294      0.2260
     86  O         10.4940  -21.4760    9.2830 O.2   294  LEU294     -0.2867
     87  CB         7.7900  -19.7970    9.9540 C.3   294  LEU294      0.0270
     88  CG         7.0770  -18.7990   10.8680 C.3   294  LEU294      0.0019
     89  CD1        5.6730  -19.2450   11.1530 C.3   294  LEU294      0.0001
     90  CD2        7.8380  -18.6130   12.1720 C.3   294  LEU294      0.0001
     91  N         13.4450  -20.5310    9.2090 N.3   297  GLU297     -0.1231
     92  CA        13.8700  -20.8060   10.5770 C.3   297  GLU297      0.1699
     93  C         13.7770  -22.2840   10.9180 C.2   297  GLU297      0.2592
     94  O         14.3240  -22.7340   11.9270 O.2   297  GLU297     -0.2718
     95  CB        13.0340  -20.0090   11.5740 C.3   297  GLU297      0.0402
     96  CG        13.2970  -18.5260   11.5530 C.3   297  GLU297      0.1161
     97  CD        12.4320  -17.7850   12.5450 C.2   297  GLU297      0.3649
     98  OE1       11.6250  -18.4410   13.2370 O.co2 297  GLU297     -0.2457
     99  OE2       12.5660  -16.5510   12.6410 O.co2 297  GLU297     -0.2457
    100  N         13.0760  -23.0430   10.0860 N.am  298  LEU298     -0.1980
    101  CA        12.9280  -24.4710   10.3270 C.3   298  LEU298      0.1596
    102  C         14.2730  -25.1560   10.1580 C.2   298  LEU298      0.2287
    103  O         14.5350  -26.1840   10.7790 O.2   298  LEU298     -0.2864
    104  CB        11.8930  -25.0810    9.3840 C.3   298  LEU298      0.0297
    105  CG        10.4350  -24.7530    9.6980 C.3   298  LEU298      0.0022
    106  CD1        9.5490  -25.3570    8.6370 C.3   298  LEU298      0.0001
    107  CD2       10.0380  -25.2540   11.0750 C.3   298  LEU298      0.0001
    108  N          6.0380  -15.7910   20.2880 N.3   346  ASN346     -0.1240
    109  CA         5.9500  -16.2740   21.6600 C.3   346  ASN346      0.1653
    110  C          7.3270  -16.3650   22.3000 C.2   346  ASN346      0.2266
    111  O          7.4520  -16.2880   23.5230 O.2   346  ASN346     -0.2867
    112  CB         5.2640  -17.6360   21.7020 C.3   346  ASN346      0.1155
    113  CG         3.8390  -17.5800   21.2020 C.2   346  ASN346      0.2627
    114  OD1        3.1820  -16.5380   21.2850 O.2   346  ASN346     -0.2716
    115  ND2        3.3470  -18.7030   20.6790 N.am  346  ASN346     -0.0877
@<TRIPOS>BOND
     1    68    67    2
     2    67    66    1
     3    57    58    1
     4    58    59    1
     5    58    61    1
     6    60    59    2
     7    59    65   am
     8    65    66    1
     9    66    69    1
    10    63    62    1
    11    62    61    1
    12    62    64    1
    13    48    47    2
    14    69    70    1
    15    69    71    1
    16    72    73    1
    17    47    46    1
    18    41    40    2
    19    74    73    1
    20    74    75    2
    21    40    39    1
    22    40    45   am
    23    38    39    1
    24    39    42    1
    25    73    76    1
    26    46    45    1
    27    46    49    1
    28   106   105    1
    29    85    86    2
    30    85    84    1
    31    83    84    1
    32    91    92    1
    33    42    44    1
    34    42    43    1
    35   104   105    1
    36   104   101    1
    37    76    77    1
    38    49    50    1
    39    52    54   ar
    40    52    50   ar
    41    84    87    1
    42   105   107    1
    43    87    88    1
    44    54    55   ar
    45    50    51   ar
    46   100   101    1
    47   100    93   am
    48   102   101    1
    49   102   103    2
    50    92    93    1
    51    92    95    1
    52    77    78    1
    53    88    89    1
    54    88    90    1
    55    33    32    2
    56    93    94    2
    57    55    56    1
    58    55    53   ar
    59    51    53   ar
    60    32    31    1
    61    96    95    1
    62    96    97    1
    63    78    79    1
    64    30    31    1
    65     5     6    1
    66     5     2    1
    67    31    34    1
    68    28    27    2
    69     1     2    1
    70     7     6   ar
    71    81    80    1
    72    97    99   ar
    73    97    98   ar
    74     6     8   ar
    75     2     3    1
    76    27    26    1
    77    79    80    2
    78    80    82    1
    79    34    35    1
    80     3     4    2
    81     3     9   am
    82    26    25    1
    83    26    29    1
    84    35    37    1
    85    35    36    1
    86     9    10    1
    87    12    11    2
    88    10    11    1
    89    10    13    1
    90    11    18   am
    91    13    14    1
    92    21    20    2
    93    18    19    1
    94    18    24    1
    95    19    20    1
    96    19    22    1
    97    24    23    1
    98    14    15    1
    99    23    22    1
   100    15    16   ar
   101    15    17   ar
   102   108   109    1
   103   115   113   am
   104   113   114    2
   105   113   112    1
   106   109   112    1
   107   109   110    1
   108   110   111    2
