@<TRIPOS>MOLECULE
tmp/4z10K00.pdb
 143 135 0 0 0
SMALL
GASTEIGER

@<TRIPOS>ATOM
      1  N         79.8030  -28.8610   -3.6500 N.3   151  LYS151     -0.1245
      2  CA        79.3990  -28.0590   -2.5030 C.3   151  LYS151      0.1561
      3  C         79.2190  -28.8990   -1.2310 C.2   151  LYS151      0.2260
      4  O         78.1120  -29.0190   -0.7030 O.2   151  LYS151     -0.2867
      5  CB        78.1110  -27.3120   -2.8400 C.3   151  LYS151      0.0271
      6  CG        77.8420  -26.1300   -1.9330 C.3   151  LYS151      0.0035
      7  CD        76.6200  -25.3380   -2.3920 C.3   151  LYS151      0.0206
      8  CE        76.4300  -24.1020   -1.5340 C.3   151  LYS151      0.1093
      9  NZ        75.1370  -23.4230   -1.8230 N.3   151  LYS151     -0.1314
     10  N         79.8660  -28.2730    1.6800 N.3   153  ASP153     -0.1225
     11  CA        79.5620  -27.4800    2.8710 C.3   153  ASP153      0.1805
     12  C         78.0580  -27.4130    3.1280 C.2   153  ASP153      0.2598
     13  O         77.6170  -26.9080    4.1620 O.2   153  ASP153     -0.2718
     14  CB        80.1220  -26.0710    2.7250 C.3   153  ASP153      0.1424
     15  CG        79.7700  -25.4520    1.3900 C.2   153  ASP153      0.3668
     16  OD1       80.3300  -25.9070    0.3620 O.co2 153  ASP153     -0.2456
     17  OD2       78.9260  -24.5320    1.3610 O.co2 153  ASP153     -0.2456
     18  N         77.2800  -27.9250    2.1840 N.am  154  GLU154     -0.1966
     19  CA        75.8250  -27.9930    2.3130 C.3   154  GLU154      0.1718
     20  C         75.4050  -29.4680    2.2150 C.2   154  GLU154      0.2458
     21  O         75.9310  -30.1900    1.3770 O.2   154  GLU154     -0.2730
     22  CB        75.1640  -27.1370    1.2230 C.3   154  GLU154      0.0428
     23  CG        73.6890  -27.3910    1.0260 C.3   154  GLU154      0.1163
     24  CD        73.0960  -26.6460   -0.1610 C.2   154  GLU154      0.3649
     25  OE1       73.8300  -25.9130   -0.8580 O.co2 154  GLU154     -0.2457
     26  OE2       71.8830  -26.8090   -0.4030 O.co2 154  GLU154     -0.2457
     27  N         74.4640  -29.9190    3.0630 N.am  155  PRO155     -0.2716
     28  CA        74.1380  -31.3540    3.1160 C.3   155  PRO155      0.1536
     29  C         73.8130  -32.0030    1.7730 C.2   155  PRO155      0.2598
     30  O         74.3310  -33.0830    1.5010 O.2   155  PRO155     -0.2715
     31  CB        72.9170  -31.3910    4.0330 C.3   155  PRO155      0.0310
     32  CG        73.1350  -30.2520    4.9570 C.3   155  PRO155      0.0237
     33  CD        73.7470  -29.1690    4.1160 C.3   155  PRO155      0.0939
     34  N         72.9920  -31.3610    0.9480 N.am  156  LYS156     -0.1978
     35  CA        72.6210  -31.9330   -0.3430 C.3   156  LYS156      0.1596
     36  C         73.8410  -32.0770   -1.2650 C.2   156  LYS156      0.2287
     37  O         73.8540  -32.9210   -2.1530 O.2   156  LYS156     -0.2864
     38  CB        71.5420  -31.0810   -1.0210 C.3   156  LYS156      0.0298
     39  CG        70.1450  -31.2030   -0.3790 C.3   156  LYS156      0.0038
     40  CD        69.5250  -32.5880   -0.6280 C.3   156  LYS156      0.0206
     41  CE        69.1100  -33.3270    0.6720 C.3   156  LYS156      0.1093
     42  NZ        70.2060  -34.0850    1.3890 N.3   156  LYS156     -0.1314
     43  N         79.6410  -30.3180    8.6410 N.3   208  LEU208     -0.1231
     44  CA        79.3320  -28.9260    8.9510 C.3   208  LEU208      0.1693
     45  C         80.3110  -28.3950    9.9950 C.2   208  LEU208      0.2592
     46  O         80.7910  -27.2660    9.8920 O.2   208  LEU208     -0.2718
     47  CB        77.8880  -28.7860    9.4490 C.3   208  LEU208      0.0284
     48  CG        76.7910  -29.1560    8.4470 C.3   208  LEU208      0.0019
     49  CD1       75.4250  -29.1810    9.1120 C.3   208  LEU208      0.0001
     50  CD2       76.7850  -28.2050    7.2620 C.3   208  LEU208      0.0001
     51  N         80.5950  -29.2200   10.9990 N.am  209  SER209     -0.1952
     52  CA        81.5150  -28.8690   12.0710 C.3   209  SER209      0.1924
     53  C         82.9190  -28.5980   11.5350 C.2   209  SER209      0.2314
     54  O         83.6170  -27.7030   11.9980 O.2   209  SER209     -0.2863
     55  CB        81.5650  -29.9930   13.1100 C.3   209  SER209      0.2116
     56  OG        82.4160  -29.6430   14.1820 O.3   209  SER209     -0.2180
     57  N         83.7040  -27.6310    8.3620 N.3   211  VAL211     -0.1231
     58  CA        83.7500  -26.4230    7.5530 C.3   211  VAL211      0.1692
     59  C         83.9030  -25.2370    8.5060 C.2   211  VAL211      0.2592
     60  O         84.7070  -24.3390    8.2760 O.2   211  VAL211     -0.2718
     61  CB        82.4830  -26.2520    6.6780 C.3   211  VAL211      0.0266
     62  CG1       82.4530  -24.8830    6.0340 C.3   211  VAL211      0.0020
     63  CG2       82.4190  -27.3390    5.6180 C.3   211  VAL211      0.0020
     64  N         83.1370  -25.2630    9.5890 N.am  212  TYR212     -0.1976
     65  CA        83.1940  -24.2110   10.5990 C.3   212  TYR212      0.1639
     66  C         84.5730  -24.1130   11.2690 C.2   212  TYR212      0.2290
     67  O         85.0980  -23.0210   11.5060 O.2   212  TYR212     -0.2864
     68  CB        82.1290  -24.4630   11.6560 C.3   212  TYR212      0.0560
     69  CG        81.9440  -23.3120   12.6030 C.ar  212  TYR212     -0.0198
     70  CD1       81.0340  -22.3090   12.3220 C.ar  212  TYR212     -0.0009
     71  CD2       82.6790  -23.2240   13.7770 C.ar  212  TYR212     -0.0009
     72  CE1       80.8500  -21.2430   13.1920 C.ar  212  TYR212      0.0417
     73  CE2       82.5060  -22.1480   14.6510 C.ar  212  TYR212      0.0417
     74  CZ        81.5900  -21.1700   14.3460 C.ar  212  TYR212      0.1957
     75  OH        81.4040  -20.1140   15.2050 O.3   212  TYR212     -0.2866
     76  N         87.0480  -22.5870    8.5010 N.3   215  LEU215     -0.1231
     77  CA        86.7890  -21.2060    8.0710 C.3   215  LEU215      0.1693
     78  C         86.6160  -20.1780    9.1970 C.2   215  LEU215      0.2591
     79  O         86.7140  -18.9730    8.9430 O.2   215  LEU215     -0.2718
     80  CB        85.5440  -21.1620    7.1750 C.3   215  LEU215      0.0284
     81  CG        85.8340  -21.3490    5.6850 C.3   215  LEU215      0.0019
     82  CD1       86.4560  -22.7100    5.4220 C.3   215  LEU215      0.0001
     83  CD2       84.5730  -21.1830    4.8700 C.3   215  LEU215      0.0001
     84  N         86.3530  -20.6330   10.4200 N.am  216  VAL216     -0.1980
     85  CA        86.0650  -19.7210   11.5340 C.3   216  VAL216      0.1595
     86  C         86.9790  -19.9890   12.7350 C.2   216  VAL216      0.2287
     87  O         87.7070  -19.1020   13.1690 O.2   216  VAL216     -0.2864
     88  CB        84.5790  -19.8220   11.9910 C.3   216  VAL216      0.0276
     89  CG1       84.2910  -18.8240   13.1090 C.3   216  VAL216      0.0022
     90  CG2       83.6200  -19.6140   10.8050 C.3   216  VAL216      0.0022
     91  N         86.1280  -21.6070   -3.7530 N.3   290  ARG290     -0.1245
     92  CA        84.9950  -20.8820   -3.1870 C.3   290  ARG290      0.1563
     93  C         85.1540  -20.6140   -1.6880 C.2   290  ARG290      0.2260
     94  O         84.6450  -19.6040   -1.1720 O.2   290  ARG290     -0.2867
     95  CB        83.7090  -21.6620   -3.4540 C.3   290  ARG290      0.0307
     96  CG        82.4720  -21.0590   -2.8260 C.3   290  ARG290      0.0489
     97  CD        81.1970  -21.7280   -3.3420 C.3   290  ARG290      0.2205
     98  NE        80.0890  -21.4750   -2.4300 N.pl3 290  ARG290     -0.0865
     99  CZ        79.7950  -22.2280   -1.3770 C.cat 290  ARG290      0.5346
    100  NH1       80.5020  -23.3130   -1.1040 N.pl3 290  ARG290      0.1354
    101  NH2       78.7790  -21.8930   -0.5940 N.pl3 290  ARG290      0.1354
    102  N         84.3320  -17.3330    0.3720 N.3   294  LEU294     -0.1245
    103  CA        83.4620  -17.3970    1.5490 C.3   294  LEU294      0.1561
    104  C         84.1570  -16.8270    2.7880 C.2   294  LEU294      0.2260
    105  O         83.5720  -16.0550    3.5590 O.2   294  LEU294     -0.2867
    106  CB        83.0520  -18.8460    1.8070 C.3   294  LEU294      0.0270
    107  CG        81.7330  -19.1390    2.5220 C.3   294  LEU294      0.0019
    108  CD1       81.5700  -20.6470    2.6810 C.3   294  LEU294      0.0001
    109  CD2       81.6340  -18.4570    3.8640 C.3   294  LEU294      0.0001
    110  N         82.8310  -13.5890    4.9770 N.3   298  LEU298     -0.1245
    111  CA        82.4220  -13.6650    6.3760 C.3   298  LEU298      0.1561
    112  C         82.6600  -12.3420    7.1000 C.2   298  LEU298      0.2260
    113  O         81.9940  -12.0480    8.0900 O.2   298  LEU298     -0.2867
    114  CB        83.1700  -14.7790    7.1080 C.3   298  LEU298      0.0270
    115  CG        82.6950  -16.2150    6.8660 C.3   298  LEU298      0.0019
    116  CD1       83.7170  -17.1890    7.4520 C.3   298  LEU298      0.0001
    117  CD2       81.3280  -16.4400    7.4820 C.3   298  LEU298      0.0001
    118  N         72.9010  -19.9270   -2.9810 N.3   346  ASN346     -0.1240
    119  CA        71.4710  -20.1000   -2.7300 C.3   346  ASN346      0.1653
    120  C         70.7420  -18.7610   -2.6810 C.2   346  ASN346      0.2266
    121  O         71.0500  -17.9100   -1.8470 O.2   346  ASN346     -0.2867
    122  CB        71.2500  -20.8600   -1.4190 C.3   346  ASN346      0.1155
    123  CG        69.8120  -21.3110   -1.2420 C.2   346  ASN346      0.2627
    124  OD1       68.9080  -20.4940   -1.0550 O.2   346  ASN346     -0.2716
    125  ND2       69.5960  -22.6190   -1.2870 N.am  346  ASN346     -0.0877
    126  N         67.9050  -17.9410   -1.6510 N.3   348  LYS348     -0.1231
    127  CA        66.9820  -17.7420   -0.5380 C.3   348  LYS348      0.1693
    128  C         67.7040  -17.1870    0.6850 C.2   348  LYS348      0.2591
    129  O         67.0780  -16.8720    1.6960 O.2   348  LYS348     -0.2718
    130  CB        66.2740  -19.0530   -0.1820 C.3   348  LYS348      0.0285
    131  CG        65.4300  -19.7400   -1.2510 C.3   348  LYS348      0.0035
    132  CD        64.3130  -18.8040   -1.5370 C.3   348  LYS348      0.0206
    133  CE        63.6800  -19.5120   -2.7610 C.3   348  LYS348      0.1093
    134  NZ        63.1560  -18.4630   -3.6480 N.3   348  LYS348     -0.1314
    135  N         69.0250  -17.0710    0.5880 N.am  349  GLU349     -0.1979
    136  CA        69.8230  -16.5180    1.6770 C.3   349  GLU349      0.1602
    137  C         69.5400  -15.0260    1.8510 C.2   349  GLU349      0.2287
    138  O         69.2630  -14.5640    2.9610 O.2   349  GLU349     -0.2864
    139  CB        71.3160  -16.7510    1.4250 C.3   349  GLU349      0.0415
    140  CG        71.7350  -18.2010    1.7600 C.3   349  GLU349      0.1163
    141  CD        73.1440  -18.4850    1.2910 C.2   349  GLU349      0.3649
    142  OE1       73.8130  -17.4650    1.0120 O.co2 349  GLU349     -0.2457
    143  OE2       73.4890  -19.6570    1.2290 O.co2 349  GLU349     -0.2457
@<TRIPOS>BOND
     1    91    92    1
     2     1     2    1
     3   134   133    1
     4    95    92    1
     5    95    96    1
     6    97    96    1
     7    97    98    1
     8    92    93    1
     9   118   119    1
    10     5     2    1
    11     5     6    1
    12   133   132    1
    13   119   120    1
    14   119   122    1
    15   120   121    2
    16     2     3    1
    17    98    99    2
    18     7     6    1
    19     7     8    1
    20    37    36    2
    21     9     8    1
    22    93    94    2
    23   126   127    1
    24   132   131    1
    25   122   123    1
    26    99   100    1
    27    99   101    1
    28   125   123   am
    29    36    35    1
    30   131   130    1
    31   123   124    2
    32     3     4    2
    33    38    39    1
    34    38    35    1
    35    25    24   ar
    36    40    39    1
    37    40    41    1
    38   127   130    1
    39   127   128    1
    40    26    24   ar
    41    35    34    1
    42    24    23    1
    43    16    15   ar
    44   102   103    1
    45   135   128   am
    46   135   136    1
    47    41    42    1
    48   128   129    2
    49    34    29   am
    50   142   141   ar
    51    23    22    1
    52    22    19    1
    53   143   141   ar
    54   141   140    1
    55    17    15   ar
    56    21    20    2
    57    15    14    1
    58   139   136    1
    59   139   140    1
    60    30    29    2
    61   103   106    1
    62   103   104    1
    63   136   137    1
    64    10    11    1
    65    29    28    1
    66   106   107    1
    67   137   138    2
    68    18    19    1
    69    18    12   am
    70    20    19    1
    71    20    27   am
    72   107   108    1
    73   107   109    1
    74    14    11    1
    75   104   105    2
    76    11    12    1
    77    27    28    1
    78    27    33    1
    79    28    31    1
    80    12    13    2
    81    31    32    1
    82    33    32    1
    83    83    81    1
    84   110   111    1
    85    82    81    1
    86    63    61    1
    87    81    80    1
    88    62    61    1
    89   111   112    1
    90   111   114    1
    91    61    58    1
    92   115   114    1
    93   115   116    1
    94   115   117    1
    95   112   113    2
    96    80    77    1
    97    50    48    1
    98    58    57    1
    99    58    59    1
   100    77    76    1
   101    77    78    1
   102    60    59    2
   103    48    49    1
   104    48    47    1
   105    59    64   am
   106    43    44    1
   107    79    78    2
   108    44    47    1
   109    44    45    1
   110    78    84   am
   111    64    65    1
   112    46    45    2
   113    45    51   am
   114    84    85    1
   115    65    66    1
   116    65    68    1
   117    90    88    1
   118    51    52    1
   119    66    67    2
   120    85    88    1
   121    85    86    1
   122    53    54    2
   123    53    52    1
   124    68    69    1
   125    88    89    1
   126    52    55    1
   127    70    69   ar
   128    70    72   ar
   129    69    71   ar
   130    86    87    2
   131    55    56    1
   132    72    74   ar
   133    71    73   ar
   134    74    73   ar
   135    74    75    1
