@<TRIPOS>MOLECULE
tmp/4z16B00.pdb
 164 155 0 0 0
SMALL
GASTEIGER

@<TRIPOS>ATOM
      1  N         13.3200   -0.5740  -38.5100 N.3    14  GLN14      -0.1231
      2  CA        12.9610   -0.0500  -37.1990 C.3    14  GLN14       0.1698
      3  C         14.2520    0.1350  -36.3820 C.2    14  GLN14       0.2592
      4  O         15.0530   -0.8030  -36.2810 O.2    14  GLN14      -0.2718
      5  CB        12.0020   -1.0260  -36.4880 C.3    14  GLN14       0.0381
      6  CG        10.9650   -0.3550  -35.5850 C.3    14  GLN14       0.0905
      7  CD         9.6260   -0.1980  -36.2590 C.2    14  GLN14       0.2608
      8  OE1        9.0100   -1.1700  -36.7170 O.2    14  GLN14      -0.2717
      9  NE2        9.1270    1.0290  -36.3020 N.am   14  GLN14      -0.0878
     10  N         14.4680    1.3580  -35.8370 N.am   15  LEU15      -0.1966
     11  CA        15.6370    1.6860  -35.0100 C.3    15  LEU15       0.1728
     12  C         15.3100    1.5940  -33.5130 C.2    15  LEU15       0.2616
     13  O         16.2090    1.4210  -32.6920 O.2    15  LEU15      -0.2715
     14  CB        16.2100    3.0770  -35.3530 C.3    15  LEU15       0.0311
     15  CG        16.7010    3.3260  -36.7820 C.3    15  LEU15       0.0022
     16  CD1       17.1610    4.7550  -36.9440 C.3    15  LEU15       0.0001
     17  CD2       17.8260    2.4010  -37.1580 C.3    15  LEU15       0.0001
     18  N         14.0270    1.7100  -33.1800 N.am   16  GLY16      -0.1955
     19  CA        13.5340    1.6440  -31.8070 C.3    16  GLY16       0.1869
     20  C         12.0210    1.6440  -31.6940 C.2    16  GLY16       0.2309
     21  O         11.3220    2.0990  -32.6040 O.2    16  GLY16      -0.2863
     22  N         10.9580    4.8320  -33.5790 N.3    23  VAL23      -0.1245
     23  CA        11.9560    5.4780  -34.4340 C.3    23  VAL23       0.1561
     24  C         12.2010    4.5410  -35.6120 C.2    23  VAL23       0.2260
     25  O         12.2870    3.3240  -35.4240 O.2    23  VAL23      -0.2867
     26  CB        13.2880    5.8540  -33.7130 C.3    23  VAL23       0.0252
     27  CG1       14.0280    6.9560  -34.4680 C.3    23  VAL23       0.0019
     28  CG2       13.0580    6.2720  -32.2650 C.3    23  VAL23       0.0019
     29  N         16.7200    9.4170  -39.4170 N.3    40  ALA40      -0.1245
     30  CA        15.9890    8.7310  -38.3560 C.3    40  ALA40       0.1562
     31  C         14.6850    9.5050  -38.1570 C.2    40  ALA40       0.2260
     32  O         14.7140   10.7300  -38.0010 O.2    40  ALA40      -0.2867
     33  CB        16.8010    8.7340  -37.0810 C.3    40  ALA40       0.0290
     34  N         22.4850   14.8530  -30.7650 N.3    71  VAL71      -0.1245
     35  CA        21.8800   14.3770  -32.0190 C.3    71  VAL71       0.1561
     36  C         21.1910   15.5420  -32.7600 C.2    71  VAL71       0.2260
     37  O         20.4590   16.3260  -32.1460 O.2    71  VAL71      -0.2867
     38  CB        20.9810   13.1210  -31.8280 C.3    71  VAL71       0.0252
     39  CG1       19.7320   13.4280  -31.0030 C.3    71  VAL71       0.0019
     40  CG2       20.6260   12.4670  -33.1650 C.3    71  VAL71       0.0019
     41  N         15.4870   13.4180  -37.6510 N.3    84  MET84      -0.1230
     42  CA        16.8160   13.5930  -37.0500 C.3    84  MET84       0.1702
     43  C         17.8940   12.9390  -37.9220 C.2    84  MET84       0.2592
     44  O         17.5700   12.1380  -38.8050 O.2    84  MET84      -0.2718
     45  CB        16.8550   12.9430  -35.6590 C.3    84  MET84       0.0401
     46  CG        15.8860   13.5360  -34.6930 C.3    84  MET84       0.0596
     47  SD        15.5940   12.5010  -33.2450 S.3    84  MET84      -0.1393
     48  CE        14.4930   11.2490  -33.9400 C.3    84  MET84       0.0692
     49  N         19.1780   13.2450  -37.6440 N.am   85  GLU85      -0.1966
     50  CA        20.2900   12.6240  -38.3610 C.3    85  GLU85       0.1733
     51  C         20.3720   11.1420  -37.9700 C.2    85  GLU85       0.2616
     52  O         19.8760   10.7520  -36.9030 O.2    85  GLU85      -0.2715
     53  CB        21.6210   13.3660  -38.1130 C.3    85  GLU85       0.0429
     54  CG        22.2070   13.1670  -36.7170 C.3    85  GLU85       0.1163
     55  CD        23.6170   13.6810  -36.5320 C.2    85  GLU85       0.3649
     56  OE1       24.4840   13.3930  -37.3880 O.co2  85  GLU85      -0.2457
     57  OE2       23.8650   14.3450  -35.5040 O.co2  85  GLU85      -0.2457
     58  N         20.9620   10.3210  -38.8470 N.am   86  TYR86      -0.1960
     59  CA        21.0890    8.8950  -38.6100 C.3    86  TYR86       0.1771
     60  C         22.5080    8.5400  -38.2060 C.2    86  TYR86       0.2619
     61  O         23.4300    8.7140  -38.9980 O.2    86  TYR86      -0.2715
     62  CB        20.6260    8.1170  -39.8470 C.3    86  TYR86       0.0574
     63  CG        20.9510    6.6370  -39.8710 C.ar   86  TYR86      -0.0198
     64  CD1       20.4480    5.7740  -38.9000 C.ar   86  TYR86      -0.0009
     65  CD2       21.6540    6.0770  -40.9350 C.ar   86  TYR86      -0.0009
     66  CE1       20.7040    4.4030  -38.9440 C.ar   86  TYR86       0.0417
     67  CE2       21.9020    4.7050  -41.0000 C.ar   86  TYR86       0.0417
     68  CZ        21.4320    3.8730  -39.9970 C.ar   86  TYR86       0.1957
     69  OH        21.6670    2.5210  -40.0590 O.3    86  TYR86      -0.2866
     70  N         22.6800    8.0830  -36.9510 N.am   87  LEU87      -0.1964
     71  CA        23.9460    7.6250  -36.3900 C.3    87  LEU87       0.1713
     72  C         23.9990    6.1140  -36.6520 C.2    87  LEU87       0.2458
     73  O         23.1830    5.3690  -36.1050 O.2    87  LEU87      -0.2730
     74  CB        24.0460    7.9990  -34.9090 C.3    87  LEU87       0.0310
     75  CG        24.6320    9.3910  -34.6700 C.3    87  LEU87       0.0022
     76  CD1       23.5660   10.4380  -34.6080 C.3    87  LEU87       0.0001
     77  CD2       25.3990    9.4450  -33.3920 C.3    87  LEU87       0.0001
     78  N         24.8420    5.6580  -37.6160 N.am   88  PRO88      -0.2727
     79  CA        24.7720    4.2430  -38.0290 C.3    88  PRO88       0.1402
     80  C         25.4860    3.2330  -37.1280 C.2    88  PRO88       0.2269
     81  O         25.3580    2.0370  -37.4020 O.2    88  PRO88      -0.2865
     82  CB        25.3460    4.2600  -39.4480 C.3    88  PRO88       0.0296
     83  CG        26.3230    5.3870  -39.4370 C.3    88  PRO88       0.0237
     84  CD        25.8480    6.3990  -38.4130 C.3    88  PRO88       0.0939
     85  N         24.7420    2.6610  -33.9240 N.3    90  GLY90      -0.1210
     86  CA        23.8170    2.2820  -32.8580 C.3    90  GLY90       0.1956
     87  C         24.0240    3.0490  -31.5680 C.2    90  GLY90       0.2612
     88  O         24.5550    4.1600  -31.5920 O.2    90  GLY90      -0.2717
     89  N         23.5900    2.4720  -30.4260 N.am   91  CYS91      -0.1970
     90  CA        23.7440    3.0960  -29.1020 C.3    91  CYS91       0.1712
     91  C         25.0640    2.6990  -28.4300 C.2    91  CYS91       0.2296
     92  O         25.6550    1.6740  -28.7930 O.2    91  CYS91      -0.2864
     93  CB        22.5460    2.8920  -28.1570 C.3    91  CYS91       0.0983
     94  SG        22.1970    1.1430  -27.7430 S.3    91  CYS91      -0.0798
     95  N         25.6540    1.6760  -25.2250 N.3    93  ARG93      -0.1231
     96  CA        25.5310    0.4380  -24.4390 C.3    93  ARG93       0.1694
     97  C         25.8960   -0.7780  -25.3110 C.2    93  ARG93       0.2592
     98  O         26.7340   -1.5820  -24.9090 O.2    93  ARG93      -0.2718
     99  CB        24.1110    0.2890  -23.8640 C.3    93  ARG93       0.0321
    100  CG        23.8690   -1.0270  -23.1230 C.3    93  ARG93       0.0489
    101  CD        22.3970   -1.2540  -22.8170 C.3    93  ARG93       0.2205
    102  NE        21.6150   -1.5210  -24.0260 N.pl3  93  ARG93      -0.0865
    103  CZ        20.2910   -1.4340  -24.1040 C.cat  93  ARG93       0.5346
    104  NH1       19.5790   -1.0820  -23.0410 N.pl3  93  ARG93       0.1354
    105  NH2       19.6700   -1.6890  -25.2460 N.pl3  93  ARG93       0.1354
    106  N         25.2890   -0.8740  -26.5180 N.am   94  ASP94      -0.1974
    107  CA        25.5180   -1.9370  -27.4960 C.3    94  ASP94       0.1709
    108  C         26.9500   -1.9290  -28.0070 C.2    94  ASP94       0.2293
    109  O         27.5740   -2.9890  -28.0580 O.2    94  ASP94      -0.2864
    110  CB        24.5380   -1.8180  -28.6770 C.3    94  ASP94       0.1436
    111  CG        23.0840   -2.1530  -28.3750 C.2    94  ASP94       0.3671
    112  OD1       22.8170   -2.7530  -27.3090 O.co2  94  ASP94      -0.2456
    113  OD2       22.2130   -1.8230  -29.2120 O.co2  94  ASP94      -0.2456
    114  N         29.9790   -4.8640  -27.5420 N.3    98  ARG98      -0.1245
    115  CA        30.4290   -5.4400  -28.8030 C.3    98  ARG98       0.1563
    116  C         31.9360   -5.2470  -29.0280 C.2    98  ARG98       0.2260
    117  O         32.6190   -6.2010  -29.4010 O.2    98  ARG98      -0.2867
    118  CB        29.5880   -4.8310  -29.9480 C.3    98  ARG98       0.0307
    119  CG        29.9880   -5.1680  -31.3800 C.3    98  ARG98       0.0489
    120  CD        28.9240   -4.7760  -32.4120 C.3    98  ARG98       0.2205
    121  NE        27.9980   -3.7190  -31.9690 N.pl3  98  ARG98      -0.0865
    122  CZ        27.8570   -2.5280  -32.5520 C.cat  98  ARG98       0.5346
    123  NH1       28.5890   -2.2070  -33.6130 N.pl3  98  ARG98       0.1354
    124  NH2       26.9850   -1.6490  -32.0760 N.pl3  98  ARG98       0.1354
    125  N         22.5530    3.7230  -22.8170 N.3   135  ARG135     -0.1231
    126  CA        21.5910    3.2790  -23.8280 C.3   135  ARG135      0.1694
    127  C         21.0410    4.4770  -24.6340 C.2   135  ARG135      0.2592
    128  O         20.5970    4.2950  -25.7690 O.2   135  ARG135     -0.2718
    129  CB        20.4400    2.4710  -23.1880 C.3   135  ARG135      0.0321
    130  CG        19.6080    3.2630  -22.1780 C.3   135  ARG135      0.0489
    131  CD        18.4830    2.4700  -21.5530 C.3   135  ARG135      0.2205
    132  NE        17.5760    3.3560  -20.8180 N.pl3 135  ARG135     -0.0865
    133  CZ        17.7040    3.6860  -19.5330 C.cat 135  ARG135      0.5346
    134  NH1       18.7010    3.1900  -18.8060 N.pl3 135  ARG135      0.1354
    135  NH2       16.8310    4.5020  -18.9630 N.pl3 135  ARG135      0.1354
    136  N         21.0680    5.6900  -24.0400 N.am  136  ASN136     -0.1974
    137  CA        20.5690    6.9210  -24.6580 C.3   136  ASN136      0.1688
    138  C         21.6710    7.7560  -25.3050 C.2   136  ASN136      0.2292
    139  O         21.4020    8.8530  -25.8050 O.2   136  ASN136     -0.2864
    140  CB        19.7450    7.7390  -23.6640 C.3   136  ASN136      0.1181
    141  CG        18.4710    7.0520  -23.2390 C.2   136  ASN136      0.2629
    142  OD1       17.6750    6.5910  -24.0640 O.2   136  ASN136     -0.2716
    143  ND2       18.2560    6.9520  -21.9350 N.am  136  ASN136     -0.0877
    144  N         24.2950    7.8340  -28.4300 N.3   138  LEU138     -0.1245
    145  CA        24.4620    7.2120  -29.7390 C.3   138  LEU138      0.1561
    146  C         25.9080    7.3520  -30.2320 C.2   138  LEU138      0.2260
    147  O         26.6050    8.3020  -29.8620 O.2   138  LEU138     -0.2867
    148  CB        23.4660    7.7790  -30.7620 C.3   138  LEU138      0.0270
    149  CG        21.9830    7.4890  -30.5490 C.3   138  LEU138      0.0019
    150  CD1       21.1650    8.2040  -31.5730 C.3   138  LEU138      0.0001
    151  CD2       21.6790    6.0050  -30.6500 C.3   138  LEU138      0.0001
    152  N         21.3520   11.4960  -27.1300 N.3   148  ALA148     -0.1231
    153  CA        20.0630   11.3830  -27.8100 C.3   148  ALA148      0.1694
    154  C         18.9010   11.2010  -26.8250 C.2   148  ALA148      0.2592
    155  O         19.0980   11.3540  -25.6170 O.2   148  ALA148     -0.2718
    156  CB        20.1050   10.2480  -28.8150 C.3   148  ALA148      0.0304
    157  N         17.6930   10.8820  -27.3510 N.am  149  ASP149     -0.1974
    158  CA        16.4210   10.6940  -26.6320 C.3   149  ASP149      0.1709
    159  C         16.1470   11.8090  -25.5920 C.2   149  ASP149      0.2293
    160  O         16.4260   11.6630  -24.3950 O.2   149  ASP149     -0.2864
    161  CB        16.2800    9.2800  -26.0230 C.3   149  ASP149      0.1436
    162  CG        14.9080    9.0210  -25.4220 C.2   149  ASP149      0.3671
    163  OD1       13.9080    9.0880  -26.1720 O.co2 149  ASP149     -0.2456
    164  OD2       14.8290    8.8090  -24.1860 O.co2 149  ASP149     -0.2456
@<TRIPOS>BOND
     1    67    65   ar
     2    67    68   ar
     3    65    63   ar
     4    69    68    1
     5    68    66   ar
     6    63    62    1
     7    63    64   ar
     8    62    59    1
     9    82    83    1
    10    82    79    1
    11    83    84    1
    12    29    30    1
    13    61    60    2
    14    66    64   ar
    15    58    59    1
    16    58    51   am
    17    44    43    2
    18    59    60    1
    19     1     2    1
    20    84    78    1
    21    50    53    1
    22    50    51    1
    23    50    49    1
    24    30    31    1
    25    30    33    1
    26    60    70   am
    27    31    32    2
    28    53    54    1
    29    79    78    1
    30    79    80    1
    31    51    52    2
    32    43    49   am
    33    43    42    1
    34    41    42    1
    35    78    72   am
    36    81    80    2
    37    56    55   ar
    38     2     5    1
    39     2     3    1
    40    17    15    1
    41    42    45    1
    42    70    71    1
    43    16    15    1
    44    15    14    1
    45    54    55    1
    46     8     7    2
    47    72    71    1
    48    72    73    2
    49    55    57   ar
    50     5     6    1
    51    71    74    1
    52     3     4    2
    53     3    10   am
    54     9     7   am
    55     7     6    1
    56    10    11    1
    57    45    46    1
    58    24    25    2
    59    24    23    1
    60    14    11    1
    61    11    12    1
    62    74    75    1
    63    46    47    1
    64    75    76    1
    65    75    77    1
    66    27    26    1
    67    23    26    1
    68    23    22    1
    69    48    47    1
    70    85    86    1
    71    26    28    1
    72   123   122    1
    73    12    18   am
    74    12    13    2
    75    18    19    1
    76    40    38    1
    77    86    87    1
    78    36    37    2
    79    36    35    1
    80    21    20    2
    81   122   124    1
    82   122   121    2
    83   120   121    1
    84   120   119    1
    85    35    38    1
    86    35    34    1
    87    38    39    1
    88    19    20    1
    89    88    87    2
    90   150   149    1
    91    87    89   am
    92   119   118    1
    93   148   149    1
    94   148   145    1
    95   151   149    1
    96    89    90    1
    97   146   147    2
    98   146   145    1
    99   118   115    1
   100   145   144    1
   101   117   116    2
   102   113   111   ar
   103    90    91    1
   104    90    93    1
   105   116   115    1
   106   156   153    1
   107   115   114    1
   108    92    91    2
   109   110   111    1
   110   110   107    1
   111   111   112   ar
   112    93    94    1
   113   109   108    2
   114   108   107    1
   115   153   152    1
   116   153   154    1
   117   107   106    1
   118   157   154   am
   119   157   158    1
   120   154   155    2
   121   158   161    1
   122   158   159    1
   123   106    97   am
   124   163   162   ar
   125   161   162    1
   126   139   138    2
   127   128   127    2
   128   159   160    2
   129   162   164   ar
   130    97    98    2
   131    97    96    1
   132   138   137    1
   133   105   103    1
   134    95    96    1
   135   137   136    1
   136   137   140    1
   137   127   136   am
   138   127   126    1
   139    96    99    1
   140   103   102    2
   141   103   104    1
   142   142   141    2
   143   102   101    1
   144    99   100    1
   145   126   129    1
   146   126   125    1
   147   140   141    1
   148   141   143   am
   149   129   130    1
   150   100   101    1
   151   130   131    1
   152   131   132    1
   153   132   133    2
   154   133   135    1
   155   133   134    1
