@<TRIPOS>MOLECULE
tmp/4z1dA00.pdb
 124 117 0 0 0
SMALL
GASTEIGER

@<TRIPOS>ATOM
      1  N         28.8450   -8.7590  -13.3640 N.3    38  LYS38      -0.1245
      2  CA        27.3870   -8.6200  -13.4430 C.3    38  LYS38       0.1561
      3  C         26.6660   -9.9190  -13.1130 C.2    38  LYS38       0.2260
      4  O         27.0590  -10.9850  -13.5690 O.2    38  LYS38      -0.2867
      5  CB        26.9930   -8.1890  -14.8680 C.3    38  LYS38       0.0271
      6  CG        25.5180   -7.8460  -15.0810 C.3    38  LYS38       0.0035
      7  CD        24.6330   -8.9950  -15.5780 C.3    38  LYS38       0.0206
      8  CE        23.1720   -8.5530  -15.6320 C.3    38  LYS38       0.1093
      9  NZ        22.2270   -9.5290  -16.2480 N.3    38  LYS38      -0.1314
     10  N         22.2150  -10.7290  -12.2330 N.3    40  SER40      -0.1217
     11  CA        20.9020  -10.3110  -11.7540 C.3    40  SER40       0.1889
     12  C         20.4700  -11.1690  -10.5720 C.2    40  SER40       0.2288
     13  O         20.5810  -12.3930  -10.6130 O.2    40  SER40      -0.2866
     14  CB        19.8690  -10.4400  -12.8630 C.3    40  SER40       0.2089
     15  OG        20.1880   -9.6060  -13.9560 O.3    40  SER40      -0.2183
     16  N         15.0940  -12.1240  -12.1880 N.3    43  LYS43      -0.1245
     17  CA        14.6070  -12.0110  -13.5600 C.3    43  LYS43       0.1561
     18  C         13.0970  -11.8170  -13.4640 C.2    43  LYS43       0.2260
     19  O         12.3620  -12.7500  -13.1740 O.2    43  LYS43      -0.2867
     20  CB        14.9530  -13.2600  -14.3680 C.3    43  LYS43       0.0271
     21  CG        16.4180  -13.6850  -14.2980 C.3    43  LYS43       0.0035
     22  CD        17.4020  -12.5570  -14.5680 C.3    43  LYS43       0.0206
     23  CE        17.3230  -12.0320  -15.9910 C.3    43  LYS43       0.1093
     24  NZ        18.3340  -10.9580  -16.2240 N.3    43  LYS43      -0.1314
     25  N         20.9840   -5.1880  -11.5850 N.3    78  ASP78      -0.1239
     26  CA        19.8310   -4.3820  -11.9790 C.3    78  ASP78       0.1674
     27  C         18.7880   -4.3550  -10.8790 C.2    78  ASP78       0.2266
     28  O         18.6560   -5.3040  -10.1120 O.2    78  ASP78      -0.2867
     29  CB        19.2400   -4.8300  -13.3250 C.3    78  ASP78       0.1410
     30  CG        18.8590   -6.3060  -13.3790 C.2    78  ASP78       0.3668
     31  OD1       19.4960   -7.1630  -12.7330 O.co2  78  ASP78      -0.2456
     32  OD2       17.9210   -6.6140  -14.1420 O.co2  78  ASP78      -0.2456
     33  N         14.5580   -3.2680   -9.8830 N.3    80  HIS80      -0.1241
     34  CA        13.2420   -3.4470  -10.4980 C.3    80  HIS80       0.1621
     35  C         12.1030   -2.6930   -9.8120 C.2    80  HIS80       0.2264
     36  O         11.0620   -2.4730  -10.4230 O.2    80  HIS80      -0.2867
     37  CB        12.8840   -4.9340  -10.4940 C.3    80  HIS80       0.0745
     38  CG        13.9930   -5.8180  -10.9660 C.ar   80  HIS80       0.0817
     39  ND1       14.1910   -6.1130  -12.2970 N.ar   80  HIS80      -0.2268
     40  CD2       14.9870   -6.4410  -10.2880 C.ar   80  HIS80       0.1154
     41  CE1       15.2460   -6.8980  -12.4160 C.ar   80  HIS80       0.1986
     42  NE2       15.7480   -7.1100  -11.2130 N.ar   80  HIS80      -0.2212
     43  N         21.7590   -0.8340  -12.4340 N.3    96  GLN96      -0.1245
     44  CA        21.2340   -0.7800  -13.7750 C.3    96  GLN96       0.1566
     45  C         19.7190   -0.6360  -13.7680 C.2    96  GLN96       0.2260
     46  O         19.0280   -1.3550  -13.0460 O.2    96  GLN96      -0.2867
     47  CB        21.6410   -2.0310  -14.5310 C.3    96  GLN96       0.0367
     48  CG        21.0800   -2.1190  -15.9400 C.3    96  GLN96       0.0905
     49  CD        21.7070   -3.2740  -16.6630 C.2    96  GLN96       0.2608
     50  OE1       22.8700   -3.2030  -17.0410 O.2    96  GLN96      -0.2717
     51  NE2       20.9620   -4.3560  -16.8220 N.am   96  GLN96      -0.0878
     52  N         16.5010   -1.3140  -15.8490 N.3    98  PRO98      -0.2102
     53  CA        16.1210   -2.1880  -16.9660 C.3    98  PRO98       0.1504
     54  C         15.4850   -1.4340  -18.1250 C.2    98  PRO98       0.2576
     55  O         14.8880   -0.3840  -17.9220 O.2    98  PRO98      -0.2718
     56  CB        15.0890   -3.1430  -16.3470 C.3    98  PRO98       0.0282
     57  CG        15.3450   -3.0880  -14.8830 C.3    98  PRO98       0.0208
     58  CD        15.8380   -1.7020  -14.5970 C.3    98  PRO98       0.0893
     59  N         15.5990   -2.0040  -19.3200 N.am   99  ALA99      -0.1966
     60  CA        15.1540   -1.3620  -20.5520 C.3    99  ALA99       0.1728
     61  C         13.6770   -0.9790  -20.5170 C.2    99  ALA99       0.2616
     62  O         13.3100    0.1110  -20.9690 O.2    99  ALA99      -0.2715
     63  CB        15.4390   -2.2700  -21.7420 C.3    99  ALA99       0.0334
     64  N         12.8420   -1.8670  -19.9820 N.am  100  PHE100     -0.1974
     65  CA        11.3990   -1.5890  -19.8750 C.3   100  PHE100      0.1639
     66  C         11.0730   -0.4520  -18.9080 C.2   100  PHE100      0.2290
     67  O          9.9950    0.1520  -19.0110 O.2   100  PHE100     -0.2864
     68  CB        10.6110   -2.8270  -19.4270 C.3   100  PHE100      0.0560
     69  CG        10.5800   -3.9670  -20.4270 C.ar  100  PHE100     -0.0200
     70  CD1       10.7740   -3.7650  -21.7900 C.ar  100  PHE100     -0.0042
     71  CD2       10.2890   -5.2580  -19.9850 C.ar  100  PHE100     -0.0042
     72  CE1       10.7190   -4.8310  -22.6770 C.ar  100  PHE100     -0.0003
     73  CE2       10.2290   -6.3250  -20.8710 C.ar  100  PHE100     -0.0003
     74  CZ        10.4480   -6.1120  -22.2160 C.ar  100  PHE100     -0.0000
     75  N         19.5770    1.2560  -19.3340 N.3   121  LYS121     -0.1245
     76  CA        19.3250    0.5040  -20.5690 C.3   121  LYS121      0.1561
     77  C         18.3060    1.2550  -21.4190 C.2   121  LYS121      0.2260
     78  O         17.2430    1.6350  -20.9220 O.2   121  LYS121     -0.2867
     79  CB        18.7880   -0.9020  -20.2560 C.3   121  LYS121      0.0271
     80  CG        19.7630   -1.9060  -19.6240 C.3   121  LYS121      0.0035
     81  CD        20.8410   -2.3470  -20.5960 C.3   121  LYS121      0.0206
     82  CE        21.5080   -3.6590  -20.2260 C.3   121  LYS121      0.1093
     83  NZ        20.7160   -4.8680  -20.5770 N.3   121  LYS121     -0.1314
     84  N         13.6450   -0.8980  -25.9240 N.3   124  GLN124     -0.1245
     85  CA        13.5600   -1.3830  -27.2990 C.3   124  GLN124      0.1566
     86  C         12.6100   -0.4960  -28.1240 C.2   124  GLN124      0.2260
     87  O         12.6530   -0.5060  -29.3590 O.2   124  GLN124     -0.2867
     88  CB        13.0680   -2.8390  -27.3000 C.3   124  GLN124      0.0367
     89  CG        13.9590   -3.8280  -26.5410 C.3   124  GLN124      0.0905
     90  CD        13.6270   -3.9600  -25.0520 C.2   124  GLN124      0.2608
     91  OE1       13.2010   -3.0060  -24.4000 O.2   124  GLN124     -0.2717
     92  NE2       13.8470   -5.1590  -24.5040 N.am  124  GLN124     -0.0878
     93  N         20.9010   -1.6520  -26.3090 N.3   164  ARG164     -0.1245
     94  CA        20.5750   -3.0800  -26.3220 C.3   164  ARG164      0.1563
     95  C         19.6140   -3.4790  -27.4500 C.2   164  ARG164      0.2260
     96  O         18.9650   -4.5260  -27.3800 O.2   164  ARG164     -0.2867
     97  CB        20.0340   -3.5330  -24.9490 C.3   164  ARG164      0.0307
     98  CG        18.6940   -2.9280  -24.5240 C.3   164  ARG164      0.0489
     99  CD        17.7660   -4.0020  -23.9650 C.3   164  ARG164      0.2205
    100  NE        17.3070   -4.9180  -24.9900 N.pl3 164  ARG164     -0.0865
    101  CZ        16.9130   -6.1670  -24.7820 C.cat 164  ARG164      0.5346
    102  NH1       16.5400   -6.8720  -25.8150 N.pl3 164  ARG164      0.1354
    103  NH2       16.8860   -6.7190  -23.5710 N.pl3 164  ARG164      0.1354
    104  N         21.9900   -9.1010  -25.2470 N.3   195  HIS195     -0.1241
    105  CA        20.5390   -9.0230  -25.3590 C.3   195  HIS195      0.1621
    106  C         20.0710   -8.3390  -26.6300 C.2   195  HIS195      0.2264
    107  O         18.8690   -8.2270  -26.8430 O.2   195  HIS195     -0.2867
    108  CB        19.9420   -8.2890  -24.1660 C.3   195  HIS195      0.0745
    109  CG        20.2680   -8.9140  -22.8510 C.ar  195  HIS195      0.0817
    110  ND1       21.0220   -8.2710  -21.8960 N.ar  195  HIS195     -0.2268
    111  CD2       19.9560  -10.1250  -22.3350 C.ar  195  HIS195      0.1154
    112  CE1       21.1560   -9.0540  -20.8440 C.ar  195  HIS195      0.1986
    113  NE2       20.5170  -10.1840  -21.0830 N.ar  195  HIS195     -0.2212
    114  N         29.0700   -4.5420  -22.5020 N.3   219  PHE219     -0.1241
    115  CA        28.3140   -5.4040  -21.5950 C.3   219  PHE219      0.1605
    116  C         28.1120   -6.7340  -22.3290 C.2   219  PHE219      0.2264
    117  O         27.5780   -6.7570  -23.4370 O.2   219  PHE219     -0.2867
    118  CB        26.9840   -4.7000  -21.2840 C.3   219  PHE219      0.0534
    119  CG        25.9960   -5.5050  -20.4730 C.ar  219  PHE219     -0.0203
    120  CD1       25.3770   -6.6400  -20.9970 C.ar  219  PHE219     -0.0042
    121  CD2       25.6150   -5.0730  -19.2050 C.ar  219  PHE219     -0.0042
    122  CE1       24.4360   -7.3370  -20.2630 C.ar  219  PHE219     -0.0003
    123  CE2       24.6710   -5.7690  -18.4690 C.ar  219  PHE219     -0.0003
    124  CZ        24.0910   -6.9130  -18.9950 C.ar  219  PHE219     -0.0000
@<TRIPOS>BOND
     1    87    86    2
     2    86    85    1
     3    95    96    2
     4    95    94    1
     5    88    85    1
     6    88    89    1
     7    85    84    1
     8   107   106    2
     9   106   105    1
    10    89    90    1
    11    94    93    1
    12    94    97    1
    13   102   101    1
    14   105   104    1
    15   105   108    1
    16    90    92   am
    17    90    91    2
    18   100   101    2
    19   100    99    1
    20    97    98    1
    21   101   103    1
    22    98    99    1
    23   108   109    1
    24   117   116    2
    25   109   111   ar
    26   109   110   ar
    27    72    74   ar
    28    72    70   ar
    29   114   115    1
    30   111   113   ar
    31   116   115    1
    32    74    73   ar
    33   110   112   ar
    34    70    69   ar
    35    63    60    1
    36   115   118    1
    37    77    78    2
    38    77    76    1
    39   118   119    1
    40   113   112   ar
    41   120   119   ar
    42   120   122   ar
    43    62    61    2
    44    73    71   ar
    45    81    82    1
    46    81    80    1
    47    83    82    1
    48    76    79    1
    49    76    75    1
    50    60    61    1
    51    60    59    1
    52    61    64   am
    53   119   121   ar
    54    69    71   ar
    55    69    68    1
    56   122   124   ar
    57    79    80    1
    58    64    65    1
    59    65    68    1
    60    65    66    1
    61    59    54   am
    62   121   123   ar
    63    67    66    2
    64   124   123   ar
    65    54    55    2
    66    54    53    1
    67    50    49    2
    68    53    56    1
    69    53    52    1
    70    51    49   am
    71    49    48    1
    72    56    57    1
    73     9     8    1
    74    24    23    1
    75    23    22    1
    76    48    47    1
    77    52    58    1
    78     8     7    1
    79     7     6    1
    80     6     5    1
    81    57    58    1
    82     5     2    1
    83    22    21    1
    84    47    44    1
    85    20    21    1
    86    20    17    1
    87    32    30   ar
    88    15    14    1
    89    44    45    1
    90    44    43    1
    91    45    46    2
    92     4     3    2
    93    17    18    1
    94    17    16    1
    95    18    19    2
    96     2     1    1
    97     2     3    1
    98    30    29    1
    99    30    31   ar
   100    29    26    1
   101    14    11    1
   102    41    39   ar
   103    41    42   ar
   104    39    38   ar
   105    10    11    1
   106    26    25    1
   107    26    27    1
   108    11    12    1
   109    42    40   ar
   110    38    37    1
   111    38    40   ar
   112    27    28    2
   113    13    12    2
   114    34    37    1
   115    34    33    1
   116    34    35    1
   117    36    35    2
