@<TRIPOS>MOLECULE
tmp/4z1eA00.pdb
 156 150 0 0 0
SMALL
GASTEIGER

@<TRIPOS>ATOM
      1  N         18.0850    1.8480    3.5970 N.3    61  ASN61      -0.1240
      2  CA        19.2720    2.6320    4.0360 C.3    61  ASN61       0.1653
      3  C         20.4900    1.7830    4.2840 C.2    61  ASN61       0.2266
      4  O         21.4570    2.2190    4.9660 O.2    61  ASN61      -0.2867
      5  CB        18.9650    3.4670    5.2980 C.3    61  ASN61       0.1155
      6  CG        18.4590    2.6180    6.4720 C.2    61  ASN61       0.2627
      7  OD1       18.8040    1.4380    6.6160 O.2    61  ASN61      -0.2716
      8  ND2       17.6400    3.2350    7.3230 N.am   61  ASN61      -0.0877
      9  N         12.9820    2.0820    5.8480 N.3    66  ASN66      -0.1240
     10  CA        12.1510    3.0710    6.5350 C.3    66  ASN66       0.1653
     11  C         10.9850    3.5480    5.6910 C.2    66  ASN66       0.2266
     12  O         11.1770    4.0680    4.5710 O.2    66  ASN66      -0.2867
     13  CB        12.9910    4.2910    6.9160 C.3    66  ASN66       0.1155
     14  CG        14.0670    3.9690    7.9070 C.2    66  ASN66       0.2627
     15  OD1       14.0240    2.9380    8.5900 O.2    66  ASN66      -0.2716
     16  ND2       15.0730    4.8430    7.9880 N.am   66  ASN66      -0.0877
     17  N          8.8240    7.9320   11.1600 N.3    91  GLN91      -0.1245
     18  CA         9.0770    6.7610   10.3360 C.3    91  GLN91       0.1566
     19  C          8.7610    5.4830   11.1090 C.2    91  GLN91       0.2260
     20  O          8.5770    5.5280   12.3260 O.2    91  GLN91      -0.2867
     21  CB        10.5100    6.7660    9.8340 C.3    91  GLN91       0.0367
     22  CG        11.5920    6.8150   10.9650 C.3    91  GLN91       0.0905
     23  CD        12.3030    5.4920   11.2190 C.2    91  GLN91       0.2608
     24  OE1       11.7350    4.4060   11.0670 O.2    91  GLN91      -0.2717
     25  NE2       13.5480    5.5820   11.6560 N.am   91  GLN91      -0.0878
     26  N         10.1150    1.1400   10.8940 N.3    93  HIS93      -0.1241
     27  CA        10.9940    0.1470   10.3220 C.3    93  HIS93       0.1621
     28  C         10.8780   -1.1130   11.1560 C.2    93  HIS93       0.2264
     29  O         10.1930   -1.1730   12.2080 O.2    93  HIS93      -0.2867
     30  CB        12.4610    0.6400   10.3130 C.3    93  HIS93       0.0745
     31  CG        13.0040    0.9170   11.7220 C.ar   93  HIS93       0.0817
     32  ND1       12.8110    2.0990   12.3280 N.ar   93  HIS93      -0.2268
     33  CD2       13.6170    0.0860   12.6660 C.ar   93  HIS93       0.1154
     34  CE1       13.2960    2.0570   13.5900 C.ar   93  HIS93       0.1986
     35  NE2       13.8070    0.8220   13.8080 N.ar   93  HIS93      -0.2212
     36  N         13.1100   -4.8500   12.4500 N.3    95  HIS95      -0.1241
     37  CA        14.3230   -5.6110   12.6550 C.3    95  HIS95       0.1621
     38  C         13.9010   -7.0810   12.5740 C.2    95  HIS95       0.2264
     39  O         12.8660   -7.4390   13.1520 O.2    95  HIS95      -0.2867
     40  CB        14.9340   -5.3500   14.0200 C.3    95  HIS95       0.0745
     41  CG        15.2290   -3.8830   14.3090 C.ar   95  HIS95       0.0817
     42  ND1       16.4480   -3.3120   14.0350 N.ar   95  HIS95      -0.2268
     43  CD2       14.4300   -2.8800   14.8390 C.ar   95  HIS95       0.1154
     44  CE1       16.4300   -2.0190   14.4070 C.ar   95  HIS95       0.1986
     45  NE2       15.1870   -1.7310   14.8870 N.ar   95  HIS95      -0.2212
     46  N          9.1290   -0.9790   14.7890 N.3   118  HIS118     -0.1241
     47  CA         9.3690    0.2150   15.5780 C.3   118  HIS118      0.1621
     48  C          8.7110    1.3850   14.8810 C.2   118  HIS118      0.2264
     49  O          9.0860    1.7500   13.7400 O.2   118  HIS118     -0.2867
     50  CB        10.8630    0.5100   15.7120 C.3   118  HIS118      0.0745
     51  CG        11.6400   -0.4620   16.5920 C.ar  118  HIS118      0.0817
     52  ND1       13.0340   -0.5940   16.5290 N.ar  118  HIS118     -0.2268
     53  CD2       11.2040   -1.3530   17.5690 C.ar  118  HIS118      0.1154
     54  CE1       13.3890   -1.5390   17.4260 C.ar  118  HIS118      0.1986
     55  NE2       12.2770   -1.9940   18.0520 N.ar  118  HIS118     -0.2212
     56  N          8.4530    5.2320   15.1990 N.3   120  VAL120     -0.1245
     57  CA         9.3100    6.2430   15.8080 C.3   120  VAL120      0.1561
     58  C          8.6110    7.6350   15.8280 C.2   120  VAL120      0.2260
     59  O          8.2020    8.1540   14.7730 O.2   120  VAL120     -0.2867
     60  CB        10.6590    6.3530   15.0510 C.3   120  VAL120      0.0252
     61  CG1       11.6150    7.2380   15.8400 C.3   120  VAL120      0.0019
     62  CG2       11.2770    4.9770   14.8330 C.3   120  VAL120      0.0019
     63  N         12.9930   16.7420   14.7310 N.3   129  PHE129     -0.1227
     64  CA        13.5380   15.4440   15.0940 C.3   129  PHE129      0.1736
     65  C         14.9760   15.5520   15.5890 C.2   129  PHE129      0.2596
     66  O         15.3100   14.9580   16.6220 O.2   129  PHE129     -0.2718
     67  CB        13.4640   14.4770   13.9150 C.3   129  PHE129      0.0547
     68  CG        14.0300   13.1260   14.2110 C.ar  129  PHE129     -0.0202
     69  CD1       13.2930   12.1930   14.9410 C.ar  129  PHE129     -0.0042
     70  CD2       15.2730   12.7730   13.7530 C.ar  129  PHE129     -0.0042
     71  CE1       13.8060   10.9330   15.2240 C.ar  129  PHE129     -0.0003
     72  CE2       15.7850   11.5070   14.0130 C.ar  129  PHE129     -0.0003
     73  CZ        15.0470   10.5870   14.7420 C.ar  129  PHE129     -0.0000
     74  N         15.8260   16.2570   14.8210 N.am  130  GLY130     -0.1957
     75  CA        17.2560   16.3910   15.1520 C.3   130  GLY130      0.1869
     76  C         17.5260   17.0070   16.5270 C.2   130  GLY130      0.2309
     77  O         18.4580   16.6170   17.2400 O.2   130  GLY130     -0.2863
     78  N         16.3510   14.2660   19.4220 N.3   133  VAL133     -0.1245
     79  CA        17.2910   13.1740   19.7290 C.3   133  VAL133      0.1561
     80  C         18.3960   13.5950   20.7110 C.2   133  VAL133      0.2260
     81  O         19.0250   12.7360   21.3070 O.2   133  VAL133     -0.2867
     82  CB        17.9090   12.4690   18.4820 C.3   133  VAL133      0.0252
     83  CG1       16.8010   11.8270   17.6320 C.3   133  VAL133      0.0019
     84  CG2       18.8030   13.3970   17.6570 C.3   133  VAL133      0.0019
     85  N          9.3180    5.4560   21.0480 N.3   141  VAL141     -0.1245
     86  CA         9.2680    4.3960   20.0670 C.3   141  VAL141      0.1561
     87  C          8.3050    3.3330   20.5830 C.2   141  VAL141      0.2260
     88  O          8.4570    2.8150   21.7170 O.2   141  VAL141     -0.2867
     89  CB        10.6750    3.8430   19.6840 C.3   141  VAL141      0.0252
     90  CG1       10.5590    2.7900   18.5850 C.3   141  VAL141      0.0019
     91  CG2       11.5290    5.0050   19.1970 C.3   141  VAL141      0.0019
     92  N         18.2130    4.7770   21.2270 N.3   196  LEU196     -0.1231
     93  CA        18.1730    4.3010   19.8690 C.3   196  LEU196      0.1693
     94  C         18.9530    2.9880   19.8760 C.2   196  LEU196      0.2593
     95  O         19.9250    2.8650   20.5970 O.2   196  LEU196     -0.2718
     96  CB        18.8340    5.3090   18.9270 C.3   196  LEU196      0.0284
     97  CG        18.1970    6.7220   18.8640 C.3   196  LEU196      0.0019
     98  CD1       19.1250    7.6530   18.0730 C.3   196  LEU196      0.0001
     99  CD2       16.8240    6.6720   18.2370 C.3   196  LEU196      0.0001
    100  N         18.5150    2.0060   19.0940 N.am  197  THR197     -0.1939
    101  CA        19.2130    0.7140   19.0560 C.3   197  THR197      0.2028
    102  C         20.1690    0.5950   17.9080 C.2   197  THR197      0.2643
    103  O         20.7940   -0.4530   17.7610 O.2   197  THR197     -0.2714
    104  CB        18.2610   -0.4850   19.0020 C.3   197  THR197      0.1808
    105  OG1       17.5990   -0.4640   17.7420 O.3   197  THR197     -0.2208
    106  CG2       17.2360   -0.4380   20.1900 C.3   197  THR197      0.0379
    107  N         20.3250    1.6550   17.1170 N.am  198  THR198     -0.1937
    108  CA        21.4540    1.7640   16.1890 C.3   198  THR198      0.2013
    109  C         22.2680    3.0120   16.5000 C.2   198  THR198      0.2484
    110  O         21.7570    3.9450   17.1650 O.2   198  THR198     -0.2729
    111  CB        20.9560    1.8520   14.7100 C.3   198  THR198      0.1807
    112  OG1       20.2360    3.0730   14.5040 O.3   198  THR198     -0.2208
    113  CG2       20.0550    0.6580   14.3620 C.3   198  THR198      0.0379
    114  N         23.5350    3.0510   16.0080 N.am  199  PRO199     -0.2715
    115  CA        24.3090    4.2520   16.0870 C.3   199  PRO199      0.1521
    116  C         23.4830    5.4000   15.5620 C.2   199  PRO199      0.2440
    117  O         22.7570    5.2000   14.5810 O.2   199  PRO199     -0.2731
    118  CB        25.4950    3.9530   15.1740 C.3   199  PRO199      0.0310
    119  CG        25.7370    2.4950   15.4310 C.3   199  PRO199      0.0237
    120  CD        24.3200    1.9410   15.4240 C.3   199  PRO199      0.0939
    121  N         23.5660    6.5710   16.2030 N.am  200  PRO200     -0.2727
    122  CA        24.4380    7.0390   17.3000 C.3   200  PRO200      0.1402
    123  C         24.0980    6.5540   18.7280 C.2   200  PRO200      0.2269
    124  O         24.7760    6.9610   19.6800 O.2   200  PRO200     -0.2865
    125  CB        24.2760    8.5800   17.2330 C.3   200  PRO200      0.0296
    126  CG        22.8780    8.7590   16.7640 C.3   200  PRO200      0.0237
    127  CD        22.5900    7.6160   15.8180 C.3   200  PRO200      0.0939
    128  N         21.7620    7.1650   20.7960 N.3   202  LEU202     -0.1245
    129  CA        21.5060    8.2930   21.7050 C.3   202  LEU202      0.1561
    130  C         20.5050    7.8630   22.7750 C.2   202  LEU202      0.2260
    131  O         19.5350    7.1690   22.4830 O.2   202  LEU202     -0.2867
    132  CB        21.0190    9.5080   20.9210 C.3   202  LEU202      0.0270
    133  CG        22.1140   10.0740   19.9860 C.3   202  LEU202      0.0019
    134  CD1       21.5920   11.0880   18.9620 C.3   202  LEU202      0.0001
    135  CD2       23.2140   10.6880   20.8740 C.3   202  LEU202      0.0001
    136  N         15.1440    7.8920   24.2430 N.3   205  VAL205     -0.1245
    137  CA        13.8800    7.1540   23.9390 C.3   205  VAL205      0.1561
    138  C         13.1340    6.7100   25.1860 C.2   205  VAL205      0.2260
    139  O         13.6980    6.0380   26.0610 O.2   205  VAL205     -0.2867
    140  CB        14.1480    5.8980   23.0440 C.3   205  VAL205      0.0252
    141  CG1       12.8190    5.1930   22.6990 C.3   205  VAL205      0.0019
    142  CG2       14.9450    6.2890   21.7820 C.3   205  VAL205      0.0019
    143  N         10.7140    3.9670   25.6130 N.3   207  TRP207     -0.1241
    144  CA        10.2480    2.7750   24.9650 C.3   207  TRP207      0.1605
    145  C          8.8840    2.4140   25.4940 C.2   207  TRP207      0.2264
    146  O          8.6330    2.4540   26.7000 O.2   207  TRP207     -0.2867
    147  CB        11.2450    1.6260   25.1610 C.3   207  TRP207      0.0550
    148  CG        12.3580    1.7480   24.1730 C.ar  207  TRP207      0.0003
    149  CD1       13.6010    2.3750   24.3350 C.ar  207  TRP207      0.0946
    150  CD2       12.2950    1.3220   22.7710 C.ar  207  TRP207      0.0152
    151  NE1       14.3010    2.3670   23.1440 N.ar  207  TRP207     -0.2442
    152  CE2       13.5680    1.7090   22.1670 C.ar  207  TRP207      0.0810
    153  CE3       11.3140    0.6740   21.9750 C.ar  207  TRP207      0.0012
    154  CZ2       13.8560    1.4400   20.8560 C.ar  207  TRP207      0.0191
    155  CZ3       11.6320    0.3820   20.6460 C.ar  207  TRP207      0.0001
    156  CH2       12.8670    0.7860   20.0880 C.ar  207  TRP207      0.0015
@<TRIPOS>BOND
     1     1     2    1
     2     2     3    1
     3     2     5    1
     4     3     4    2
     5    12    11    2
     6     5     6    1
     7    11    10    1
     8     9    10    1
     9     6     7    2
    10     6     8   am
    11    10    13    1
    12    13    14    1
    13    14    16   am
    14    14    15    2
    15    21    18    1
    16    21    22    1
    17    30    27    1
    18    30    31    1
    19    27    26    1
    20    27    28    1
    21    18    19    1
    22    18    17    1
    23    22    23    1
    24    24    23    2
    25    19    20    2
    26    28    29    2
    27    23    25   am
    28    31    32   ar
    29    31    33   ar
    30    32    34   ar
    31    36    37    1
    32    38    37    1
    33    38    39    2
    34    37    40    1
    35    33    35   ar
    36    34    35   ar
    37    49    48    2
    38    70    72   ar
    39    70    68   ar
    40    67    68    1
    41    67    64    1
    42    72    73   ar
    43    40    41    1
    44    42    41   ar
    45    42    44   ar
    46    68    69   ar
    47    41    43   ar
    48   113   111    1
    49    44    45   ar
    50   112   111    1
    51   117   116    2
    52   111   108    1
    53    63    64    1
    54    73    71   ar
    55    59    58    2
    56    46    47    1
    57    74    75    1
    58    74    65   am
    59    62    60    1
    60    43    45   ar
    61    48    47    1
    62    69    71   ar
    63    60    57    1
    64    60    61    1
    65    64    65    1
    66    75    76    1
    67   118   119    1
    68   118   115    1
    69    56    57    1
    70   120   119    1
    71   120   114    1
    72   116   115    1
    73   116   121   am
    74    47    50    1
    75    65    66    2
    76    50    51    1
    77    57    58    1
    78   127   121    1
    79   127   126    1
    80   114   115    1
    81   114   109   am
    82   108   109    1
    83   108   107    1
    84   121   122    1
    85   109   110    2
    86    76    77    2
    87    52    51   ar
    88    52    54   ar
    89    51    53   ar
    90   126   125    1
    91   107   102   am
    92   125   122    1
    93   122   123    1
    94    54    55   ar
    95    53    55   ar
    96    83    82    1
    97    84    82    1
    98   105   104    1
    99   103   102    2
   100   102   101    1
   101    98    97    1
   102    99    97    1
   103    82    79    1
   104    90    89    1
   105   123   124    2
   106    97    96    1
   107    96    93    1
   108   134   133    1
   109   104   101    1
   110   104   106    1
   111   101   100    1
   112   100    94   am
   113    91    89    1
   114    78    79    1
   115    89    86    1
   116    79    80    1
   117    93    94    1
   118    93    92    1
   119    94    95    2
   120   133   135    1
   121   133   132    1
   122    86    87    1
   123    86    85    1
   124   156   155   ar
   125   156   154   ar
   126    87    88    2
   127   155   153   ar
   128    80    81    2
   129   128   129    1
   130   154   152   ar
   131   132   129    1
   132   129   130    1
   133   142   140    1
   134   153   150   ar
   135   152   150   ar
   136   152   151   ar
   137   131   130    2
   138   141   140    1
   139   150   148   ar
   140   140   137    1
   141   151   149   ar
   142   137   136    1
   143   137   138    1
   144   148   149   ar
   145   148   147    1
   146   144   147    1
   147   144   145    1
   148   144   143    1
   149   138   139    2
   150   145   146    2
