@<TRIPOS>MOLECULE
tmp/4z1fA00.pdb
 149 140 0 0 0
SMALL
GASTEIGER

@<TRIPOS>ATOM
      1  N          8.9650   13.8090   17.4800 N.3    48  LEU48      -0.1245
      2  CA         9.8030   13.1610   18.4790 C.3    48  LEU48       0.1561
      3  C         10.2040   14.1230   19.5880 C.2    48  LEU48       0.2260
      4  O         10.3880   13.7090   20.7330 O.2    48  LEU48      -0.2867
      5  CB        11.0550   12.5690   17.8330 C.3    48  LEU48       0.0270
      6  CG        10.8370   11.3960   16.8800 C.3    48  LEU48       0.0019
      7  CD1       12.1690   10.9040   16.3430 C.3    48  LEU48       0.0001
      8  CD2       10.0810   10.2700   17.5760 C.3    48  LEU48       0.0001
      9  N          6.9190   14.5400   21.9130 N.3    51  ASN51      -0.1225
     10  CA         6.8910   13.3880   22.8040 C.3    51  ASN51       0.1785
     11  C          7.8940   13.5290   23.9340 C.2    51  ASN51       0.2597
     12  O          7.5340   13.3890   25.1070 O.2    51  ASN51      -0.2718
     13  CB         7.1610   12.1020   22.0260 C.3    51  ASN51       0.1169
     14  CG         5.9810   11.6760   21.1840 C.2    51  ASN51       0.2627
     15  OD1        4.8320   11.9680   21.5170 O.2    51  ASN51      -0.2716
     16  ND2        6.2550   10.9800   20.0880 N.am   51  ASN51      -0.0877
     17  N          9.1380   13.8470   23.5760 N.am   52  ALA52      -0.1979
     18  CA        10.1980   14.0010   24.5630 C.3    52  ALA52       0.1597
     19  C          9.7340   14.9710   25.6350 C.2    52  ALA52       0.2287
     20  O          9.6940   14.6240   26.8240 O.2    52  ALA52      -0.2864
     21  CB        11.4850   14.4820   23.9110 C.3    52  ALA52       0.0319
     22  N          7.1190   13.5530   27.9130 N.3    55  ALA55      -0.1245
     23  CA         7.7070   12.6180   28.8580 C.3    55  ALA55       0.1562
     24  C          8.2450   13.4120   30.0310 C.2    55  ALA55       0.2260
     25  O          7.8080   13.2350   31.1840 O.2    55  ALA55      -0.2867
     26  CB         8.8060   11.8000   28.2030 C.3    55  ALA55       0.0290
     27  N         15.6810   11.6120   25.7170 N.3    90  ASP90      -0.1239
     28  CA        15.1650   12.4570   26.7830 C.3    90  ASP90       0.1674
     29  C         15.2930   11.7390   28.1190 C.2    90  ASP90       0.2266
     30  O         15.1700   10.5120   28.1890 O.2    90  ASP90      -0.2867
     31  CB        13.7080   12.8410   26.5210 C.3    90  ASP90       0.1410
     32  CG        12.7750   11.6430   26.5400 C.2    90  ASP90       0.3668
     33  OD1       12.3540   11.2320   27.6420 O.co2  90  ASP90      -0.2456
     34  OD2       12.4570   11.1190   25.4520 O.co2  90  ASP90      -0.2456
     35  N         10.1100   10.6030   31.9090 N.3    93  ILE93      -0.1231
     36  CA         9.5090    9.3460   32.3100 C.3    93  ILE93       0.1692
     37  C          9.6990    8.3970   31.1330 C.2    93  ILE93       0.2593
     38  O          9.6820    8.8180   29.9730 O.2    93  ILE93      -0.2718
     39  CB         8.0150    9.5060   32.6940 C.3    93  ILE93       0.0266
     40  CG1        7.7270    8.8070   34.0240 C.3    93  ILE93       0.0019
     41  CG2        7.0910    8.9820   31.6000 C.3    93  ILE93       0.0020
     42  CD1        6.3230    9.0280   34.5430 C.3    93  ILE93       0.0001
     43  N          9.9320    7.1260   31.4250 N.am   94  GLY94      -0.1942
     44  CA        10.2500    6.1850   30.3730 C.3    94  GLY94       0.2014
     45  C          9.0350    5.4260   29.8940 C.2    94  GLY94       0.2638
     46  O          7.9050    5.9070   29.9800 O.2    94  GLY94      -0.2714
     47  N          9.2810    4.2300   29.3780 N.am   95  MET95      -0.1976
     48  CA         8.2120    3.3350   28.9760 C.3    95  MET95       0.1605
     49  C          8.4180    1.9720   29.6220 C.2    95  MET95       0.2287
     50  O          9.5070    1.4010   29.5490 O.2    95  MET95      -0.2864
     51  CB         8.1540    3.2100   27.4520 C.3    95  MET95       0.0413
     52  CG         7.5640    4.4230   26.7510 C.3    95  MET95       0.0598
     53  SD         7.6520    4.2990   24.9540 S.3    95  MET95      -0.1393
     54  CE         9.4020    4.5620   24.6820 C.3    95  MET95       0.0692
     55  N          3.9580   -0.8700   28.1410 N.3    99  GLU99      -0.1231
     56  CA         3.7910    0.3580   27.3730 C.3    99  GLU99       0.1699
     57  C          4.4740    0.2730   26.0110 C.2    99  GLU99       0.2592
     58  O          4.0520    0.9200   25.0540 O.2    99  GLU99      -0.2718
     59  CB         4.3310    1.5530   28.1610 C.3    99  GLU99       0.0402
     60  CG         3.3530    2.0980   29.1870 C.3    99  GLU99       0.1161
     61  CD         4.0270    2.9300   30.2580 C.2    99  GLU99       0.3649
     62  OE1        5.2670    3.0710   30.2140 O.co2  99  GLU99      -0.2457
     63  OE2        3.3160    3.4520   31.1410 O.co2  99  GLU99      -0.2457
     64  N          5.5290   -0.5310   25.9310 N.am  100  LEU100     -0.1980
     65  CA         6.2290   -0.7540   24.6710 C.3   100  LEU100      0.1596
     66  C          5.4950   -1.7750   23.8060 C.2   100  LEU100      0.2287
     67  O          5.2820   -1.5480   22.6150 O.2   100  LEU100     -0.2864
     68  CB         7.6650   -1.2150   24.9300 C.3   100  LEU100      0.0297
     69  CG         8.6700   -0.1220   25.3010 C.3   100  LEU100      0.0022
     70  CD1        9.8850   -0.7170   25.9880 C.3   100  LEU100      0.0001
     71  CD2        9.0840    0.6530   24.0600 C.3   100  LEU100      0.0001
     72  N          1.2110    0.0320   22.9480 N.3   103  ASN103     -0.1240
     73  CA         1.3520    1.2050   22.0940 C.3   103  ASN103      0.1653
     74  C          2.7830    1.3870   21.5990 C.2   103  ASN103      0.2266
     75  O          3.3910    0.4560   21.0690 O.2   103  ASN103     -0.2867
     76  CB         0.8920    2.4620   22.8370 C.3   103  ASN103      0.1155
     77  CG         1.5800    2.6310   24.1790 C.2   103  ASN103      0.2627
     78  OD1        1.0850    2.1680   25.2070 O.2   103  ASN103     -0.2716
     79  ND2        2.7280    3.3000   24.1750 N.am  103  ASN103     -0.0877
     80  N          0.8840    9.0830   21.3550 N.3   104  GLY104     -0.1210
     81  CA         2.2230    9.4160   20.9040 C.3   104  GLY104      0.1956
     82  C          2.4820    8.9490   19.4850 C.2   104  GLY104      0.2611
     83  O          3.6230    8.6760   19.1110 O.2   104  GLY104     -0.2717
     84  N          1.4130    8.8740   18.6950 N.am  105  VAL105     -0.1979
     85  CA         1.4580    8.3710   17.3220 C.3   105  VAL105      0.1595
     86  C          2.4820    9.1060   16.4490 C.2   105  VAL105      0.2287
     87  O          3.0010    8.5420   15.4810 O.2   105  VAL105     -0.2864
     88  CB         0.0570    8.4620   16.6680 C.3   105  VAL105      0.0276
     89  CG1        0.0610    7.8780   15.2620 C.3   105  VAL105      0.0022
     90  CG2       -0.9700    7.7400   17.5300 C.3   105  VAL105      0.0022
     91  N          5.4240    9.5380   16.8960 N.3   107  PHE107     -0.1227
     92  CA         6.5930    8.6640   16.8410 C.3   107  PHE107      0.1736
     93  C          6.7430    7.9380   15.5080 C.2   107  PHE107      0.2595
     94  O          7.8380    7.8730   14.9480 O.2   107  PHE107     -0.2718
     95  CB         6.5250    7.6350   17.9720 C.3   107  PHE107      0.0547
     96  CG         7.5200    6.5160   17.8420 C.ar  107  PHE107     -0.0202
     97  CD1        8.8510    6.7130   18.1760 C.ar  107  PHE107     -0.0042
     98  CD2        7.1220    5.2630   17.3990 C.ar  107  PHE107     -0.0042
     99  CE1        9.7680    5.6840   18.0620 C.ar  107  PHE107     -0.0003
    100  CE2        8.0330    4.2290   17.2810 C.ar  107  PHE107     -0.0003
    101  CZ         9.3580    4.4400   17.6130 C.ar  107  PHE107     -0.0000
    102  N          5.6390    7.4050   14.9960 N.am  108  TYR108     -0.1976
    103  CA         5.6870    6.5820   13.7920 C.3   108  TYR108      0.1639
    104  C          6.0880    7.3790   12.5540 C.2   108  TYR108      0.2290
    105  O          6.4630    6.7980   11.5300 O.2   108  TYR108     -0.2864
    106  CB         4.3420    5.8920   13.5740 C.3   108  TYR108      0.0560
    107  CG         4.0630    4.8300   14.6130 C.ar  108  TYR108     -0.0198
    108  CD1        3.1180    5.0330   15.6090 C.ar  108  TYR108     -0.0009
    109  CD2        4.7690    3.6350   14.6130 C.ar  108  TYR108     -0.0009
    110  CE1        2.8710    4.0640   16.5650 C.ar  108  TYR108      0.0417
    111  CE2        4.5290    2.6620   15.5630 C.ar  108  TYR108      0.0417
    112  CZ         3.5800    2.8820   16.5370 C.ar  108  TYR108      0.1957
    113  OH         3.3380    1.9150   17.4860 O.3   108  TYR108     -0.2866
    114  N         15.0990    1.6490   19.5710 N.3   119  VAL119     -0.1245
    115  CA        14.6760    2.3690   20.7670 C.3   119  VAL119      0.1561
    116  C         15.1870    1.7120   22.0490 C.2   119  VAL119      0.2260
    117  O         15.1810    0.4910   22.1700 O.2   119  VAL119     -0.2867
    118  CB        13.1340    2.4620   20.8340 C.3   119  VAL119      0.0252
    119  CG1       12.6870    3.2380   22.0640 C.3   119  VAL119      0.0019
    120  CG2       12.5850    3.1040   19.5690 C.3   119  VAL119      0.0019
    121  N         13.7010   -1.9510   21.7550 N.3   133  TRP133     -0.1241
    122  CA        12.6020   -2.0940   20.8130 C.3   133  TRP133      0.1605
    123  C         13.1420   -1.8620   19.4080 C.2   133  TRP133      0.2264
    124  O         13.7430   -0.8270   19.1440 O.2   133  TRP133     -0.2867
    125  CB        11.4970   -1.0930   21.1530 C.3   133  TRP133      0.0550
    126  CG        10.2790   -1.1440   20.2890 C.ar  133  TRP133      0.0003
    127  CD1        9.1050   -1.7790   20.5680 C.ar  133  TRP133      0.0946
    128  CD2       10.0970   -0.5070   19.0170 C.ar  133  TRP133      0.0152
    129  NE1        8.2080   -1.5870   19.5470 N.ar  133  TRP133     -0.2442
    130  CE2        8.7920   -0.8080   18.5830 C.ar  133  TRP133      0.0810
    131  CE3       10.9100    0.2890   18.2050 C.ar  133  TRP133      0.0012
    132  CZ2        8.2840   -0.3460   17.3720 C.ar  133  TRP133      0.0191
    133  CZ3       10.4040    0.7460   17.0030 C.ar  133  TRP133      0.0001
    134  CH2        9.1020    0.4310   16.6010 C.ar  133  TRP133      0.0015
    135  N         14.0370    7.9060   27.4580 N.3   153  THR153     -0.1218
    136  CA        13.9410    7.2010   26.1850 C.3   153  THR153      0.1862
    137  C         15.0030    7.6510   25.1870 C.2   153  THR153      0.2287
    138  O         15.2420    8.8410   25.0230 O.2   153  THR153     -0.2866
    139  CB        12.5450    7.3910   25.5540 C.3   153  THR153      0.1770
    140  OG1       11.5440    6.8830   26.4450 O.3   153  THR153     -0.2211
    141  CG2       12.4460    6.6600   24.2240 C.3   153  THR153      0.0375
    142  N         15.9160    7.2400   21.1640 N.3   155  ILE155     -0.1245
    143  CA        15.4740    6.7800   19.8510 C.3   155  ILE155      0.1561
    144  C         16.5590    6.9680   18.7970 C.2   155  ILE155      0.2260
    145  O         16.9350    8.0950   18.4740 O.2   155  ILE155     -0.2867
    146  CB        14.2030    7.5150   19.3880 C.3   155  ILE155      0.0252
    147  CG1       13.0620    7.2960   20.3830 C.3   155  ILE155      0.0019
    148  CG2       13.7970    7.0460   17.9990 C.3   155  ILE155      0.0019
    149  CD1       11.8090    8.0790   20.0520 C.3   155  ILE155      0.0001
@<TRIPOS>BOND
     1   105   104    2
     2   104   103    1
     3   106   103    1
     4   106   107    1
     5   103   102    1
     6   109   107   ar
     7   109   111   ar
     8   107   108   ar
     9    94    93    2
    10   102    93   am
    11    89    88    1
    12    87    86    2
    13    93    92    1
    14   111   112   ar
    15   108   110   ar
    16     7     6    1
    17    86    85    1
    18   112   110   ar
    19   112   113    1
    20   134   133   ar
    21   134   132   ar
    22    88    85    1
    23    88    90    1
    24    92    91    1
    25    92    95    1
    26     6     8    1
    27     6     5    1
    28   133   131   ar
    29   100    98   ar
    30   100   101   ar
    31    85    84    1
    32   132   130   ar
    33    98    96   ar
    34     1     2    1
    35   101    99   ar
    36     5     2    1
    37    96    95    1
    38    96    97   ar
    39   148   146    1
    40    99    97   ar
    41   131   128   ar
    42   145   144    2
    43     2     3    1
    44   130   128   ar
    45   130   129   ar
    46    84    82   am
    47   144   143    1
    48   128   126   ar
    49    83    82    2
    50   124   123    2
    51   146   143    1
    52   146   147    1
    53   123   122    1
    54    82    81    1
    55   129   127   ar
    56   120   118    1
    57   114   115    1
    58     3     4    2
    59   143   142    1
    60   149   147    1
    61    16    14   am
    62   126   127   ar
    63   126   125    1
    64   115   118    1
    65   115   116    1
    66   122   125    1
    67   122   121    1
    68   118   119    1
    69    81    80    1
    70    75    74    2
    71    14    15    2
    72    14    13    1
    73    74    73    1
    74     9    10    1
    75    13    10    1
    76   116   117    2
    77    73    76    1
    78    73    72    1
    79    67    66    2
    80    10    11    1
    81    76    77    1
    82    17    11   am
    83    17    18    1
    84    66    65    1
    85    21    18    1
    86    11    12    2
    87    71    69    1
    88    79    77   am
    89    77    78    2
    90   141   139    1
    91    18    19    1
    92    65    68    1
    93    65    64    1
    94    54    53    1
    95    68    69    1
    96    53    52    1
    97   138   137    2
    98    58    57    2
    99   137   136    1
   100    69    70    1
   101    34    32   ar
   102   139   136    1
   103   139   140    1
   104    19    20    2
   105    27    28    1
   106    64    57   am
   107    57    56    1
   108   136   135    1
   109    31    32    1
   110    31    28    1
   111    32    33   ar
   112    52    51    1
   113    28    29    1
   114    56    55    1
   115    56    59    1
   116    51    48    1
   117    22    23    1
   118    29    30    2
   119    59    60    1
   120    26    23    1
   121    23    24    1
   122    48    47    1
   123    48    49    1
   124    60    61    1
   125    47    45   am
   126    50    49    2
   127    45    46    2
   128    45    44    1
   129    38    37    2
   130    24    25    2
   131    62    61   ar
   132    61    63   ar
   133    44    43    1
   134    37    43   am
   135    37    36    1
   136    41    39    1
   137    35    36    1
   138    36    39    1
   139    39    40    1
   140    40    42    1
