@<TRIPOS>MOLECULE
tmp/4z1gA00.pdb
 151 142 0 0 0
SMALL
GASTEIGER

@<TRIPOS>ATOM
      1  N          3.1170   -6.5990   15.0760 N.3    22  PHE22      -0.1241
      2  CA         2.1970   -5.4450   15.0190 C.3    22  PHE22       0.1605
      3  C          0.7040   -5.8020   14.7300 C.2    22  PHE22       0.2264
      4  O          0.3990   -6.7750   14.0060 O.2    22  PHE22      -0.2867
      5  CB         2.6840   -4.5110   13.9130 C.3    22  PHE22       0.0534
      6  CG         3.5140   -3.3430   14.3720 C.ar   22  PHE22      -0.0203
      7  CD1        4.6670   -3.0090   13.7010 C.ar   22  PHE22      -0.0042
      8  CD2        3.1620   -2.6130   15.4770 C.ar   22  PHE22      -0.0042
      9  CE1        5.4350   -1.9930   14.1040 C.ar   22  PHE22      -0.0003
     10  CE2        3.9460   -1.5600   15.9170 C.ar   22  PHE22      -0.0003
     11  CZ         5.1060   -1.2450   15.2100 C.ar   22  PHE22      -0.0000
     12  N          9.1740   14.2870   17.5130 N.3    48  LEU48      -0.1245
     13  CA         9.9700   13.6370   18.5440 C.3    48  LEU48       0.1561
     14  C         10.2670   14.6000   19.6910 C.2    48  LEU48       0.2260
     15  O          9.9910   14.2900   20.8560 O.2    48  LEU48      -0.2867
     16  CB        11.2660   13.0900   17.9460 C.3    48  LEU48       0.0270
     17  CG        11.0490   12.0080   16.8890 C.3    48  LEU48       0.0019
     18  CD1       12.3760   11.4930   16.3690 C.3    48  LEU48       0.0001
     19  CD2       10.2140   10.8720   17.4620 C.3    48  LEU48       0.0001
     20  N          7.2890   14.9880   21.8150 N.3    51  ASN51      -0.1225
     21  CA         7.2040   13.8900   22.7670 C.3    51  ASN51       0.1785
     22  C          8.2100   14.0860   23.8820 C.2    51  ASN51       0.2597
     23  O          7.8780   13.9380   25.0620 O.2    51  ASN51      -0.2718
     24  CB         7.4410   12.5430   22.0870 C.3    51  ASN51       0.1169
     25  CG         6.3570   12.1930   21.1020 C.2    51  ASN51       0.2627
     26  OD1        5.2980   12.8190   21.0810 O.2    51  ASN51      -0.2716
     27  ND2        6.6070   11.1760   20.2860 N.am   51  ASN51      -0.0877
     28  N          9.4280   14.4630   23.4950 N.am   52  ALA52      -0.1979
     29  CA        10.5170   14.6330   24.4460 C.3    52  ALA52       0.1597
     30  C         10.1170   15.6140   25.5360 C.2    52  ALA52       0.2287
     31  O         10.5410   15.4830   26.6830 O.2    52  ALA52      -0.2864
     32  CB        11.7790   15.1010   23.7380 C.3    52  ALA52       0.0319
     33  N          6.8810   13.8050   28.0930 N.3    55  ALA55      -0.1245
     34  CA         7.5180   12.9380   29.0730 C.3    55  ALA55       0.1562
     35  C          8.1580   13.7600   30.1760 C.2    55  ALA55       0.2260
     36  O          7.8410   13.5890   31.3590 O.2    55  ALA55      -0.2867
     37  CB         8.5570   12.0560   28.4030 C.3    55  ALA55       0.0290
     38  N         15.8970   11.9790   25.7110 N.3    90  ASP90      -0.1239
     39  CA        15.3150   12.8480   26.7170 C.3    90  ASP90       0.1674
     40  C         15.3660   12.1400   28.0570 C.2    90  ASP90       0.2266
     41  O         15.1180   10.9360   28.1460 O.2    90  ASP90      -0.2867
     42  CB        13.8750   13.2270   26.3560 C.3    90  ASP90       0.1410
     43  CG        12.9530   12.0220   26.2690 C.2    90  ASP90       0.3668
     44  OD1       12.4360   11.5970   27.3250 O.co2  90  ASP90      -0.2456
     45  OD2       12.7430   11.5020   25.1480 O.co2  90  ASP90      -0.2456
     46  N         10.2500   11.1380   31.8670 N.3    93  ILE93      -0.1231
     47  CA         9.6610    9.9000   32.3470 C.3    93  ILE93       0.1692
     48  C          9.8780    8.8670   31.2530 C.2    93  ILE93       0.2593
     49  O         10.0290    9.2180   30.0800 O.2    93  ILE93      -0.2718
     50  CB         8.1570   10.0570   32.6840 C.3    93  ILE93       0.0266
     51  CG1        7.7750    9.1800   33.8770 C.3    93  ILE93       0.0019
     52  CG2        7.2830    9.7620   31.4700 C.3    93  ILE93       0.0020
     53  CD1        6.3970    9.4760   34.4290 C.3    93  ILE93       0.0001
     54  N          9.9240    7.5970   31.6260 N.am   94  GLY94      -0.1942
     55  CA        10.2420    6.5750   30.6520 C.3    94  GLY94       0.2014
     56  C          9.0380    5.7980   30.1700 C.2    94  GLY94       0.2638
     57  O          7.9090    6.2890   30.1880 O.2    94  GLY94      -0.2714
     58  N          9.2920    4.5730   29.7290 N.am   95  MET95      -0.1976
     59  CA         8.2390    3.7010   29.2380 C.3    95  MET95       0.1605
     60  C          8.3280    2.3300   29.8920 C.2    95  MET95       0.2287
     61  O          9.3850    1.6980   29.8860 O.2    95  MET95      -0.2864
     62  CB         8.3230    3.5720   27.7170 C.3    95  MET95       0.0413
     63  CG         8.0430    4.8650   26.9740 C.3    95  MET95       0.0598
     64  SD         7.6360    4.5820   25.2410 S.3    95  MET95      -0.1393
     65  CE         9.2760    4.3950   24.5540 C.3    95  MET95       0.0692
     66  N          3.7740   -0.3630   28.0260 N.3    99  GLU99      -0.1231
     67  CA         3.6300    0.7400   27.0780 C.3    99  GLU99       0.1699
     68  C          4.3330    0.4410   25.7590 C.2    99  GLU99       0.2592
     69  O          3.7790    0.6630   24.6810 O.2    99  GLU99      -0.2718
     70  CB         4.1870    2.0320   27.6780 C.3    99  GLU99       0.0402
     71  CG         3.4680    2.5050   28.9270 C.3    99  GLU99       0.1161
     72  CD         4.2610    3.5480   29.6900 C.2    99  GLU99       0.3649
     73  OE1        5.0230    4.3020   29.0490 O.co2  99  GLU99      -0.2457
     74  OE2        4.1300    3.6070   30.9310 O.co2  99  GLU99      -0.2457
     75  N          5.5580   -0.0640   25.8620 N.am  100  LEU100     -0.1980
     76  CA         6.3540   -0.4300   24.6970 C.3   100  LEU100      0.1596
     77  C          5.6460   -1.4730   23.8450 C.2   100  LEU100      0.2287
     78  O          5.5430   -1.3330   22.6240 O.2   100  LEU100     -0.2864
     79  CB         7.7180   -0.9530   25.1420 C.3   100  LEU100      0.0297
     80  CG         8.6860    0.1150   25.6460 C.3   100  LEU100      0.0022
     81  CD1        9.7140   -0.4910   26.5830 C.3   100  LEU100      0.0001
     82  CD2        9.3700    0.7760   24.4710 C.3   100  LEU100      0.0001
     83  N          2.5030   -2.1310   23.7220 N.3   102  SER102     -0.1217
     84  CA         1.1820   -1.7170   23.2330 C.3   102  SER102      0.1889
     85  C          1.2050   -0.6060   22.1630 C.2   102  SER102      0.2288
     86  O          0.6890   -0.7880   21.0560 O.2   102  SER102     -0.2866
     87  CB         0.3190   -1.2720   24.4160 C.3   102  SER102      0.2089
     88  OG        -0.6850   -0.3570   24.0150 O.3   102  SER102     -0.2183
     89  N          2.1080    9.8310   22.6820 N.3   103  GLY103     -0.1225
     90  CA         2.7950   10.1750   21.4510 C.3   103  GLY103      0.1811
     91  C          2.5250    9.1940   20.3270 C.2   103  GLY103      0.2280
     92  O          2.6380    7.9820   20.5050 O.2   103  GLY103     -0.2866
     93  N          5.5390   10.0430   16.9400 N.3   106  PHE106     -0.1227
     94  CA         6.6830    9.1390   16.8920 C.3   106  PHE106      0.1736
     95  C          6.8190    8.4020   15.5610 C.2   106  PHE106      0.2595
     96  O          7.9160    8.3000   15.0080 O.2   106  PHE106     -0.2718
     97  CB         6.5840    8.1150   18.0240 C.3   106  PHE106      0.0547
     98  CG         7.5910    7.0050   17.9260 C.ar  106  PHE106     -0.0202
     99  CD1        8.9400    7.2610   18.1020 C.ar  106  PHE106     -0.0042
    100  CD2        7.1880    5.7050   17.6630 C.ar  106  PHE106     -0.0042
    101  CE1        9.8700    6.2420   18.0160 C.ar  106  PHE106     -0.0003
    102  CE2        8.1140    4.6810   17.5740 C.ar  106  PHE106     -0.0003
    103  CZ         9.4560    4.9490   17.7520 C.ar  106  PHE106     -0.0000
    104  N          5.7030    7.9020   15.0400 N.am  107  TYR107     -0.1976
    105  CA         5.7500    7.0770   13.8360 C.3   107  TYR107      0.1639
    106  C          6.2040    7.8620   12.6130 C.2   107  TYR107      0.2290
    107  O          6.6650    7.2750   11.6250 O.2   107  TYR107     -0.2864
    108  CB         4.3910    6.4290   13.5900 C.3   107  TYR107      0.0560
    109  CG         4.1010    5.3440   14.5970 C.ar  107  TYR107     -0.0198
    110  CD1        3.5550    5.6480   15.8370 C.ar  107  TYR107     -0.0009
    111  CD2        4.4090    4.0190   14.3220 C.ar  107  TYR107     -0.0009
    112  CE1        3.3030    4.6590   16.7670 C.ar  107  TYR107      0.0417
    113  CE2        4.1600    3.0240   15.2440 C.ar  107  TYR107      0.0417
    114  CZ         3.6070    3.3490   16.4650 C.ar  107  TYR107      0.1957
    115  OH         3.3590    2.3600   17.3880 O.3   107  TYR107     -0.2866
    116  N         15.1280    2.1300   19.6070 N.3   118  VAL118     -0.1245
    117  CA        14.7970    2.8970   20.8020 C.3   118  VAL118      0.1561
    118  C         15.2430    2.1990   22.0830 C.2   118  VAL118      0.2260
    119  O         15.1080    0.9890   22.2160 O.2   118  VAL118     -0.2867
    120  CB        13.2780    3.1610   20.8880 C.3   118  VAL118      0.0252
    121  CG1       12.9380    3.9720   22.1340 C.3   118  VAL118      0.0019
    122  CG2       12.7870    3.8610   19.6280 C.3   118  VAL118      0.0019
    123  N         13.8990   -1.5760   21.7850 N.3   132  TRP132     -0.1241
    124  CA        12.7890   -1.7030   20.8540 C.3   132  TRP132      0.1605
    125  C         13.3290   -1.4870   19.4420 C.2   132  TRP132      0.2264
    126  O         14.0110   -0.4980   19.1830 O.2   132  TRP132     -0.2867
    127  CB        11.7020   -0.6850   21.2060 C.3   132  TRP132      0.0550
    128  CG        10.4310   -0.7810   20.4240 C.ar  132  TRP132      0.0003
    129  CD1        9.2850   -1.4210   20.7960 C.ar  132  TRP132      0.0946
    130  CD2       10.1620   -0.1780   19.1500 C.ar  132  TRP132      0.0152
    131  NE1        8.3240   -1.2660   19.8260 N.ar  132  TRP132     -0.2442
    132  CE2        8.8340   -0.5140   18.8120 C.ar  132  TRP132      0.0810
    133  CE3       10.9130    0.5980   18.2700 C.ar  132  TRP132      0.0012
    134  CZ2        8.2500   -0.0910   17.6180 C.ar  132  TRP132      0.0191
    135  CZ3       10.3280    1.0140   17.0880 C.ar  132  TRP132      0.0001
    136  CH2        9.0080    0.6690   16.7740 C.ar  132  TRP132      0.0015
    137  N         14.0250    8.3240   27.4440 N.3   152  THR152     -0.1218
    138  CA        13.9400    7.6190   26.1700 C.3   152  THR152      0.1862
    139  C         15.0010    8.0910   25.1800 C.2   152  THR152      0.2287
    140  O         15.1870    9.2850   24.9820 O.2   152  THR152     -0.2866
    141  CB        12.5410    7.7870   25.5380 C.3   152  THR152      0.1770
    142  OG1       11.5610    7.1650   26.3780 O.3   152  THR152     -0.2211
    143  CG2       12.4890    7.1540   24.1560 C.3   152  THR152      0.0375
    144  N         16.0610    7.6810   21.2060 N.3   154  ILE154     -0.1245
    145  CA        15.6150    7.2060   19.8990 C.3   154  ILE154      0.1561
    146  C         16.6860    7.3930   18.8290 C.2   154  ILE154      0.2260
    147  O         17.0490    8.5200   18.4880 O.2   154  ILE154     -0.2867
    148  CB        14.3300    7.9240   19.4400 C.3   154  ILE154      0.0252
    149  CG1       13.2070    7.7160   20.4550 C.3   154  ILE154      0.0019
    150  CG2       13.8970    7.4150   18.0790 C.3   154  ILE154      0.0019
    151  CD1       11.9260    8.4180   20.0830 C.3   154  ILE154      0.0001
@<TRIPOS>BOND
     1   107   106    2
     2   106   105    1
     3   108   105    1
     4   108   109    1
     5     7     9   ar
     6     7     6   ar
     7   105   104    1
     8     5     6    1
     9     5     2    1
    10     4     3    2
    11     9    11   ar
    12   111   109   ar
    13   111   113   ar
    14     6     8   ar
    15   109   110   ar
    16     3     2    1
    17    96    95    2
    18     2     1    1
    19   104    95   am
    20    11    10   ar
    21   113   114   ar
    22     8    10   ar
    23    95    94    1
    24   110   112   ar
    25    18    17    1
    26   114   112   ar
    27   114   115    1
    28   136   135   ar
    29   136   134   ar
    30    17    19    1
    31    17    16    1
    32    94    93    1
    33    94    97    1
    34   135   133   ar
    35    12    13    1
    36   102   100   ar
    37   102   103   ar
    38   134   132   ar
    39   100    98   ar
    40   103   101   ar
    41    98    97    1
    42    98    99   ar
    43    16    13    1
    44   101    99   ar
    45   150   148    1
    46   133   130   ar
    47   147   146    2
    48    13    14    1
    49   132   130   ar
    50   132   131   ar
    51   146   145    1
    52   130   128   ar
    53   126   125    2
    54   148   145    1
    55   148   149    1
    56   125   124    1
    57   116   117    1
    58   122   120    1
    59    14    15    2
    60   131   129   ar
    61   145   144    1
    62   151   149    1
    63    27    25   am
    64    91    92    2
    65    91    90    1
    66   128   129   ar
    67   128   127    1
    68   117   120    1
    69   117   118    1
    70   124   127    1
    71   124   123    1
    72   120   121    1
    73    86    85    2
    74    26    25    2
    75    25    24    1
    76    90    89    1
    77    20    21    1
    78   118   119    2
    79    24    21    1
    80    85    84    1
    81    78    77    2
    82    21    22    1
    83    84    83    1
    84    84    87    1
    85    28    22   am
    86    28    29    1
    87    32    29    1
    88    77    76    1
    89    22    23    2
    90    88    87    1
    91   143   141    1
    92    29    30    1
    93    82    80    1
    94    65    64    1
    95    69    68    2
    96    76    79    1
    97    76    75    1
    98   140   139    2
    99    79    80    1
   100    45    43   ar
   101   139   138    1
   102    64    63    1
   103    30    31    2
   104   141   138    1
   105   141   142    1
   106    80    81    1
   107    38    39    1
   108    68    75   am
   109    68    67    1
   110   138   137    1
   111    43    42    1
   112    43    44   ar
   113    42    39    1
   114    39    40    1
   115    63    62    1
   116    67    70    1
   117    67    66    1
   118    70    71    1
   119    62    59    1
   120    40    41    2
   121    33    34    1
   122    37    34    1
   123    71    72    1
   124    73    72   ar
   125    34    35    1
   126    59    58    1
   127    59    60    1
   128    72    74   ar
   129    58    56   am
   130    61    60    2
   131    49    48    2
   132    56    57    2
   133    56    55    1
   134    35    36    2
   135    55    54    1
   136    48    54   am
   137    48    47    1
   138    52    50    1
   139    46    47    1
   140    47    50    1
   141    50    51    1
   142    51    53    1
