@<TRIPOS>MOLECULE
tmp/4z1hA00.pdb
 175 167 0 0 0
SMALL
GASTEIGER

@<TRIPOS>ATOM
      1  N          8.8600   14.6770   18.1200 N.3    47  LEU47      -0.1245
      2  CA         9.6890   13.9840   19.0970 C.3    47  LEU47       0.1561
      3  C         10.0570   14.9110   20.2560 C.2    47  LEU47       0.2260
      4  O          9.9280   14.5310   21.4260 O.2    47  LEU47      -0.2867
      5  CB        10.9530   13.4270   18.4420 C.3    47  LEU47       0.0270
      6  CG        10.7680   12.3110   17.4080 C.3    47  LEU47       0.0019
      7  CD1       12.1040   11.8730   16.8450 C.3    47  LEU47       0.0001
      8  CD2       10.0310   11.1350   17.9990 C.3    47  LEU47       0.0001
      9  N          7.0720   15.2390   22.5280 N.3    50  ASN50      -0.1225
     10  CA         6.9600   14.1060   23.4390 C.3    50  ASN50       0.1785
     11  C          7.9780   14.1640   24.5770 C.2    50  ASN50       0.2597
     12  O          7.6470   13.8710   25.7300 O.2    50  ASN50      -0.2718
     13  CB         7.1200   12.7840   22.6850 C.3    50  ASN50       0.1169
     14  CG         5.9530   12.4890   21.7680 C.2    50  ASN50       0.2627
     15  OD1        4.8290   12.9260   22.0100 O.2    50  ASN50      -0.2716
     16  ND2        6.2110   11.7210   20.7200 N.am   50  ASN50      -0.0877
     17  N          9.2170   14.5280   24.2520 N.am   51  ALA51      -0.1979
     18  CA        10.2500   14.6930   25.2720 C.3    51  ALA51       0.1597
     19  C          9.8450   15.7490   26.2980 C.2    51  ALA51       0.2287
     20  O         10.0640   15.5850   27.5070 O.2    51  ALA51      -0.2864
     21  CB        11.5720   15.0680   24.6280 C.3    51  ALA51       0.0319
     22  N          7.1150   14.3610   28.5610 N.3    54  ALA54      -0.1245
     23  CA         7.7510   13.4020   29.4660 C.3    54  ALA54       0.1562
     24  C          8.4560   14.1100   30.6230 C.2    54  ALA54       0.2260
     25  O          8.2530   13.7700   31.7980 O.2    54  ALA54      -0.2867
     26  CB         8.7350   12.5340   28.7120 C.3    54  ALA54       0.0290
     27  N         15.8740   12.2350   26.2430 N.3    89  ASP89      -0.1239
     28  CA        15.3100   13.0990   27.2700 C.3    89  ASP89       0.1674
     29  C         15.4170   12.4270   28.6220 C.2    89  ASP89       0.2266
     30  O         15.2370   11.2030   28.7380 O.2    89  ASP89      -0.2867
     31  CB        13.8540   13.4450   26.9520 C.3    89  ASP89       0.1410
     32  CG        12.9770   12.2230   26.8540 C.2    89  ASP89       0.3668
     33  OD1       12.5140   11.7320   27.9020 O.co2  89  ASP89      -0.2456
     34  OD2       12.7460   11.7450   25.7300 O.co2  89  ASP89      -0.2456
     35  N         10.3020   11.4510   32.3880 N.3    92  ILE92      -0.1231
     36  CA         9.6970   10.2130   32.8470 C.3    92  ILE92       0.1692
     37  C          9.8890    9.2290   31.7050 C.2    92  ILE92       0.2593
     38  O         10.0350    9.6410   30.5510 O.2    92  ILE92      -0.2718
     39  CB         8.2000   10.3910   33.2050 C.3    92  ILE92       0.0266
     40  CG1        7.8070    9.5080   34.3930 C.3    92  ILE92       0.0019
     41  CG2        7.3110   10.1240   32.0040 C.3    92  ILE92       0.0020
     42  CD1        6.4720    9.8710   35.0140 C.3    92  ILE92       0.0001
     43  N          9.9110    7.9390   32.0050 N.am   93  GLY93      -0.1942
     44  CA        10.1870    6.9670   30.9650 C.3    93  GLY93       0.2014
     45  C          8.9520    6.2170   30.5180 C.2    93  GLY93       0.2638
     46  O          7.8380    6.7200   30.6270 O.2    93  GLY93      -0.2714
     47  N          9.1560    5.0110   30.0040 N.am   94  MET94      -0.1976
     48  CA         8.0590    4.1260   29.6590 C.3    94  MET94       0.1605
     49  C          8.2650    2.7730   30.3200 C.2    94  MET94       0.2287
     50  O          9.3730    2.2340   30.3170 O.2    94  MET94      -0.2864
     51  CB         7.9420    3.9680   28.1410 C.3    94  MET94       0.0413
     52  CG         7.3300    5.1570   27.4420 C.3    94  MET94       0.0598
     53  SD         7.2910    4.9680   25.6480 S.3    94  MET94      -0.1393
     54  CE         9.0470    5.0600   25.2880 C.3    94  MET94       0.0692
     55  N          4.9790   -2.3390   29.9170 N.3    97  GLU97      -0.1231
     56  CA         3.5680   -2.3780   29.5460 C.3    97  GLU97       0.1699
     57  C          3.2420   -1.3230   28.4880 C.2    97  GLU97       0.2592
     58  O          2.5050   -1.5880   27.5330 O.2    97  GLU97      -0.2718
     59  CB         2.6970   -2.1760   30.7930 C.3    97  GLU97       0.0402
     60  CG         1.1960   -2.1170   30.5350 C.3    97  GLU97       0.1161
     61  CD         0.3870   -1.9690   31.8140 C.2    97  GLU97       0.3649
     62  OE1        0.4650   -0.8940   32.4470 O.co2  97  GLU97      -0.2457
     63  OE2       -0.3220   -2.9270   32.1880 O.co2  97  GLU97      -0.2457
     64  N          3.8100   -0.1330   28.6630 N.am   98  GLU98      -0.1966
     65  CA         3.5930    0.9770   27.7450 C.3    98  GLU98       0.1733
     66  C          4.2870    0.7330   26.4060 C.2    98  GLU98       0.2616
     67  O          3.6830    0.9050   25.3500 O.2    98  GLU98      -0.2715
     68  CB         4.0800    2.2870   28.3790 C.3    98  GLU98       0.0429
     69  CG         3.3330    2.6550   29.6600 C.3    98  GLU98       0.1163
     70  CD         3.9850    3.7940   30.4130 C.2    98  GLU98       0.3649
     71  OE1        4.9240    4.4090   29.8680 O.co2  98  GLU98      -0.2457
     72  OE2        3.5650    4.0720   31.5550 O.co2  98  GLU98      -0.2457
     73  N          5.5540    0.3310   26.4560 N.am   99  LEU99      -0.1977
     74  CA         6.3190    0.0260   25.2470 C.3    99  LEU99       0.1596
     75  C          5.6370   -1.0570   24.4090 C.2    99  LEU99       0.2287
     76  O          5.5770   -0.9570   23.1810 O.2    99  LEU99      -0.2864
     77  CB         7.7400   -0.4100   25.6100 C.3    99  LEU99       0.0297
     78  CG         8.7630    0.6970   25.8780 C.3    99  LEU99       0.0022
     79  CD1       10.0720    0.1210   26.3920 C.3    99  LEU99       0.0001
     80  CD2        8.9930    1.4870   24.6120 C.3    99  LEU99       0.0001
     81  N          2.3070   -1.9460   24.6390 N.3   101  SER101     -0.1202
     82  CA         1.0610   -1.3620   24.1560 C.3   101  SER101      0.2020
     83  C          1.3340   -0.2990   23.1010 C.2   101  SER101      0.2618
     84  O          1.1620   -0.5320   21.9050 O.2   101  SER101     -0.2717
     85  CB         0.2760   -0.7430   25.3060 C.3   101  SER101      0.2103
     86  OG         0.9010    0.4530   25.7280 O.3   101  SER101     -0.2182
     87  N          1.7670    0.8680   23.5690 N.am  102  ASN102     -0.1974
     88  CA         2.0330    2.0140   22.7090 C.3   102  ASN102      0.1688
     89  C          3.0940    1.7080   21.6600 C.2   102  ASN102      0.2292
     90  O          2.9470    2.0640   20.4930 O.2   102  ASN102     -0.2864
     91  CB         2.4700    3.2080   23.5540 C.3   102  ASN102      0.1181
     92  CG         1.5410    3.4570   24.7190 C.2   102  ASN102      0.2629
     93  OD1        1.9610    3.4330   25.8730 O.2   102  ASN102     -0.2716
     94  ND2        0.2690    3.6870   24.4240 N.am  102  ASN102     -0.0877
     95  N          0.7600   12.7660   21.2980 N.3   103  PHE103     -0.1227
     96  CA         0.1190   12.2790   22.5190 C.3   103  PHE103      0.1736
     97  C         -0.4270   10.8310   22.4470 C.2   103  PHE103      0.2596
     98  O         -1.5690   10.5880   22.8350 O.2   103  PHE103     -0.2718
     99  CB        -1.0110   13.2530   22.8980 C.3   103  PHE103      0.0547
    100  CG        -2.0790   13.3990   21.8380 C.ar  103  PHE103     -0.0202
    101  CD1       -3.2740   12.7010   21.9340 C.ar  103  PHE103     -0.0042
    102  CD2       -1.8730   14.2120   20.7320 C.ar  103  PHE103     -0.0042
    103  CE1       -4.2480   12.8250   20.9630 C.ar  103  PHE103     -0.0003
    104  CE2       -2.8440   14.3350   19.7530 C.ar  103  PHE103     -0.0003
    105  CZ        -4.0340   13.6410   19.8700 C.ar  103  PHE103     -0.0000
    106  N          0.3740    9.8580   21.9990 N.am  104  GLY104     -0.1942
    107  CA         1.7670   10.0390   21.6210 C.3   104  GLY104      0.2014
    108  C          2.0800    9.6240   20.1900 C.2   104  GLY104      0.2638
    109  O          3.2340    9.3380   19.8620 O.2   104  GLY104     -0.2714
    110  N          1.0600    9.6140   19.3340 N.am  105  VAL105     -0.1977
    111  CA         1.1890    9.1470   17.9500 C.3   105  VAL105      0.1596
    112  C          2.3340    9.7990   17.1680 C.2   105  VAL105      0.2287
    113  O          2.9290    9.1640   16.2900 O.2   105  VAL105     -0.2864
    114  CB        -0.1190    9.3750   17.1750 C.3   105  VAL105      0.0276
    115  CG1       -0.1120    8.5860   15.8740 C.3   105  VAL105      0.0022
    116  CG2       -1.3010    8.9540   18.0250 C.3   105  VAL105      0.0022
    117  N          5.3300   10.0910   17.6090 N.3   107  PHE107     -0.1227
    118  CA         6.5090    9.2370   17.5140 C.3   107  PHE107      0.1736
    119  C          6.6420    8.5440   16.1600 C.2   107  PHE107      0.2595
    120  O          7.7330    8.4970   15.5900 O.2   107  PHE107     -0.2718
    121  CB         6.4800    8.1860   18.6280 C.3   107  PHE107      0.0547
    122  CG         7.4680    7.0670   18.4390 C.ar  107  PHE107     -0.0202
    123  CD1        8.8150    7.2550   18.7280 C.ar  107  PHE107     -0.0042
    124  CD2        7.0460    5.8180   17.9950 C.ar  107  PHE107     -0.0042
    125  CE1        9.7260    6.2240   18.5570 C.ar  107  PHE107     -0.0003
    126  CE2        7.9510    4.7850   17.8210 C.ar  107  PHE107     -0.0003
    127  CZ         9.2920    4.9890   18.1010 C.ar  107  PHE107     -0.0000
    128  N          5.5340    8.0220   15.6410 N.am  108  TYR108     -0.1976
    129  CA         5.5940    7.2340   14.4190 C.3   108  TYR108      0.1639
    130  C          5.9870    8.0800   13.2100 C.2   108  TYR108      0.2290
    131  O          6.3580    7.5350   12.1680 O.2   108  TYR108     -0.2864
    132  CB         4.2620    6.5180   14.1790 C.3   108  TYR108      0.0560
    133  CG         3.9710    5.4800   15.2420 C.ar  108  TYR108     -0.0198
    134  CD1        2.9570    5.6670   16.1680 C.ar  108  TYR108     -0.0009
    135  CD2        4.7320    4.3230   15.3340 C.ar  108  TYR108     -0.0009
    136  CE1        2.6990    4.7250   17.1460 C.ar  108  TYR108      0.0417
    137  CE2        4.4800    3.3760   16.3080 C.ar  108  TYR108      0.0417
    138  CZ         3.4640    3.5820   17.2110 C.ar  108  TYR108      0.1957
    139  OH         3.2160    2.6380   18.1820 O.3   108  TYR108     -0.2866
    140  N         15.1390    2.3740   20.0560 N.3   119  VAL119     -0.1245
    141  CA        14.7270    3.1610   21.2150 C.3   119  VAL119      0.1561
    142  C         15.0860    2.4840   22.5310 C.2   119  VAL119      0.2260
    143  O         14.7990    1.3050   22.7270 O.2   119  VAL119     -0.2867
    144  CB        13.2100    3.4200   21.1920 C.3   119  VAL119      0.0252
    145  CG1       12.7610    4.1480   22.4590 C.3   119  VAL119      0.0019
    146  CG2       12.8450    4.2200   19.9670 C.3   119  VAL119      0.0019
    147  N         13.8180   -1.3150   22.1860 N.3   133  TRP133     -0.1241
    148  CA        12.6680   -1.3970   21.3040 C.3   133  TRP133      0.1605
    149  C         13.1580   -1.1490   19.8840 C.2   133  TRP133      0.2264
    150  O         13.7000   -0.0810   19.6000 O.2   133  TRP133     -0.2867
    151  CB        11.6150   -0.3640   21.7150 C.3   133  TRP133      0.0550
    152  CG        10.3290   -0.4470   20.9750 C.ar  133  TRP133      0.0003
    153  CD1        9.1870   -1.0560   21.3940 C.ar  133  TRP133      0.0946
    154  CD2       10.0370    0.1170   19.6900 C.ar  133  TRP133      0.0152
    155  NE1        8.2010   -0.9100   20.4490 N.ar  133  TRP133     -0.2442
    156  CE2        8.7000   -0.1920   19.3910 C.ar  133  TRP133      0.0810
    157  CE3       10.7770    0.8560   18.7620 C.ar  133  TRP133      0.0012
    158  CZ2        8.0870    0.2070   18.2020 C.ar  133  TRP133      0.0191
    159  CZ3       10.1690    1.2520   17.5860 C.ar  133  TRP133      0.0001
    160  CH2        8.8400    0.9280   17.3170 C.ar  133  TRP133      0.0015
    161  N         13.8900    8.6820   27.9310 N.3   153  THR153     -0.1218
    162  CA        13.7970    7.9450   26.6740 C.3   153  THR153      0.1862
    163  C         14.8940    8.3540   25.6980 C.2   153  THR153      0.2287
    164  O         15.1770    9.5400   25.5440 O.2   153  THR153     -0.2866
    165  CB        12.4220    8.1570   26.0130 C.3   153  THR153      0.1770
    166  OG1       11.3860    7.7530   26.9210 O.3   153  THR153     -0.2211
    167  CG2       12.3170    7.3380   24.7370 C.3   153  THR153      0.0375
    168  N         15.9250    7.9000   21.6740 N.3   155  ILE155     -0.1245
    169  CA        15.4480    7.4610   20.3670 C.3   155  ILE155      0.1561
    170  C         16.5070    7.6720   19.2940 C.2   155  ILE155      0.2260
    171  O         16.8870    8.8110   18.9960 O.2   155  ILE155     -0.2867
    172  CB        14.1610    8.2100   19.9620 C.3   155  ILE155      0.0252
    173  CG1       13.0670    7.9790   21.0090 C.3   155  ILE155      0.0019
    174  CG2       13.6740    7.7650   18.5940 C.3   155  ILE155      0.0019
    175  CD1       11.7780    8.7040   20.7020 C.3   155  ILE155      0.0001
@<TRIPOS>BOND
     1   131   130    2
     2   130   129    1
     3   132   129    1
     4   132   133    1
     5   129   128    1
     6   133   135   ar
     7   133   134   ar
     8   135   137   ar
     9   120   119    2
    10   128   119   am
    11   115   114    1
    12   119   118    1
    13   134   136   ar
    14   113   112    2
    15   137   138   ar
    16     7     6    1
    17   136   138   ar
    18   112   111    1
    19   114   111    1
    20   114   116    1
    21   138   139    1
    22   160   159   ar
    23   160   158   ar
    24     6     8    1
    25     6     5    1
    26   118   117    1
    27   118   121    1
    28   159   157   ar
    29   126   124   ar
    30   126   127   ar
    31   111   110    1
    32   124   122   ar
    33   127   125   ar
    34     1     2    1
    35   158   156   ar
    36   122   121    1
    37   122   123   ar
    38     5     2    1
    39   125   123   ar
    40   174   172    1
    41   157   154   ar
    42   171   170    2
    43     2     3    1
    44   170   169    1
    45   110   108   am
    46   156   154   ar
    47   156   155   ar
    48   150   149    2
    49   154   152   ar
    50   104   105   ar
    51   104   102   ar
    52   109   108    2
    53   105   103   ar
    54   149   148    1
    55   172   169    1
    56   172   173    1
    57   146   144    1
    58   140   141    1
    59   108   107    1
    60     3     4    2
    61   169   168    1
    62   155   153   ar
    63    90    89    2
    64   175   173    1
    65    16    14   am
    66   102   100   ar
    67   103   101   ar
    68   152   153   ar
    69   152   151    1
    70   144   141    1
    71   144   145    1
    72   141   142    1
    73    95    96    1
    74   148   151    1
    75   148   147    1
    76   107   106    1
    77    89    88    1
    78    14    15    2
    79    14    13    1
    80   100   101   ar
    81   100    99    1
    82    84    83    2
    83   106    97   am
    84    97    96    1
    85    97    98    2
    86    96    99    1
    87     9    10    1
    88   142   143    2
    89    13    10    1
    90    88    91    1
    91    88    87    1
    92    83    87   am
    93    83    82    1
    94    76    75    2
    95    10    11    1
    96    91    92    1
    97    82    81    1
    98    82    85    1
    99    17    11   am
   100    17    18    1
   101    75    74    1
   102    94    92   am
   103    11    12    2
   104    80    78    1
   105    21    18    1
   106    92    93    2
   107   167   165    1
   108    74    77    1
   109    74    73    1
   110    18    19    1
   111    54    53    1
   112    85    86    1
   113    67    66    2
   114   164   163    2
   115    77    78    1
   116    53    52    1
   117   163   162    1
   118    34    32   ar
   119    78    79    1
   120   165   162    1
   121   165   166    1
   122    27    28    1
   123    19    20    2
   124    66    73   am
   125    66    65    1
   126   162   161    1
   127    32    31    1
   128    32    33   ar
   129    31    28    1
   130    28    29    1
   131    52    51    1
   132    58    57    2
   133    65    68    1
   134    65    64    1
   135    51    48    1
   136    68    69    1
   137    57    64   am
   138    57    56    1
   139    22    23    1
   140    29    30    2
   141    26    23    1
   142    23    24    1
   143    56    55    1
   144    56    59    1
   145    48    47    1
   146    48    49    1
   147    69    70    1
   148    71    70   ar
   149    47    45   am
   150    50    49    2
   151    70    72   ar
   152    45    46    2
   153    45    44    1
   154    60    59    1
   155    60    61    1
   156    38    37    2
   157    24    25    2
   158    44    43    1
   159    37    43   am
   160    37    36    1
   161    61    63   ar
   162    61    62   ar
   163    41    39    1
   164    35    36    1
   165    36    39    1
   166    39    40    1
   167    40    42    1
