@<TRIPOS>MOLECULE
tmp/4z1iD00.pdb
 211 202 0 0 0
SMALL
GASTEIGER

@<TRIPOS>ATOM
      1  N         18.3350  134.2240  -34.3780 N.3    46  GLU46      -0.1245
      2  CA        19.7400  133.9590  -34.6370 C.3    46  GLU46       0.1567
      3  C         19.9010  133.1050  -35.8760 C.2    46  GLU46       0.2260
      4  O         20.6590  133.4680  -36.7820 O.2    46  GLU46      -0.2867
      5  CB        20.4110  133.3020  -33.4320 C.3    46  GLU46       0.0388
      6  CG        20.6470  134.2710  -32.2890 C.3    46  GLU46       0.1160
      7  CD        21.3380  135.5450  -32.7460 C.2    46  GLU46       0.3649
      8  OE1       22.3280  135.4550  -33.5040 O.co2  46  GLU46      -0.2457
      9  OE2       20.8860  136.6400  -32.3520 O.co2  46  GLU46      -0.2457
     10  N         21.9200  134.2330  -38.9970 N.3    50  ASN50      -0.1225
     11  CA        23.1210  133.5850  -39.4980 C.3    50  ASN50       0.1785
     12  C         22.7660  133.0630  -40.9050 C.2    50  ASN50       0.2597
     13  O         23.5620  133.2040  -41.8410 O.2    50  ASN50      -0.2718
     14  CB        23.6520  132.5000  -38.5170 C.3    50  ASN50       0.1169
     15  CG        24.4800  133.1040  -37.3230 C.2    50  ASN50       0.2627
     16  OD1       24.5870  134.3200  -37.1800 O.2    50  ASN50      -0.2716
     17  ND2       25.0670  132.2410  -36.4830 N.am   50  ASN50      -0.0877
     18  N         21.5280  132.5870  -41.0770 N.am   51  ALA51      -0.1979
     19  CA        21.0460  132.1690  -42.3980 C.3    51  ALA51       0.1597
     20  C         21.1530  133.2930  -43.4280 C.2    51  ALA51       0.2287
     21  O         21.6690  133.0770  -44.5300 O.2    51  ALA51      -0.2864
     22  CB        19.6080  131.6670  -42.3180 C.3    51  ALA51       0.0319
     23  N         23.1310  135.6990  -43.4770 N.3    53  ASP53      -0.1225
     24  CA        24.5390  135.8910  -43.7770 C.3    53  ASP53       0.1805
     25  C         24.9930  134.8970  -44.8290 C.2    53  ASP53       0.2597
     26  O         25.6910  135.2690  -45.7780 O.2    53  ASP53      -0.2718
     27  CB        25.3730  135.7680  -42.5070 C.3    53  ASP53       0.1424
     28  CG        25.1380  136.9200  -41.5550 C.2    53  ASP53       0.3668
     29  OD1       24.5710  137.9450  -41.9950 O.co2  53  ASP53      -0.2456
     30  OD2       25.5090  136.8000  -40.3680 O.co2  53  ASP53      -0.2456
     31  N         24.5580  133.6460  -44.6750 N.am   54  ALA54      -0.1979
     32  CA        24.9500  132.5790  -45.5860 C.3    54  ALA54       0.1597
     33  C         24.6500  133.0050  -47.0130 C.2    54  ALA54       0.2287
     34  O         25.4580  132.7990  -47.9200 O.2    54  ALA54      -0.2864
     35  CB        24.2250  131.2890  -45.2500 C.3    54  ALA54       0.0319
     36  N         26.8810  136.4050  -48.1290 N.3    57  LYS57      -0.1245
     37  CA        28.1960  135.9320  -48.5370 C.3    57  LYS57       0.1561
     38  C         28.1370  135.3490  -49.9350 C.2    57  LYS57       0.2260
     39  O         28.9210  135.7350  -50.8060 O.2    57  LYS57      -0.2867
     40  CB        28.7370  134.8650  -47.5840 C.3    57  LYS57       0.0271
     41  CG        28.9100  135.2660  -46.1370 C.3    57  LYS57       0.0035
     42  CD        29.7120  134.1750  -45.4430 C.3    57  LYS57       0.0206
     43  CE        29.4390  134.1030  -43.9610 C.3    57  LYS57       0.1093
     44  NZ        30.0450  132.8760  -43.3710 N.3    57  LYS57      -0.1314
     45  N         18.5330  127.3930  -45.7890 N.3    89  ASP89      -0.1239
     46  CA        18.9360  128.4860  -46.6550 C.3    89  ASP89       0.1674
     47  C         19.7150  127.9610  -47.8490 C.2    89  ASP89       0.2266
     48  O         20.3500  126.8980  -47.7870 O.2    89  ASP89      -0.2867
     49  CB        19.7860  129.5000  -45.8940 C.3    89  ASP89       0.1410
     50  CG        21.1230  128.9300  -45.4710 C.2    89  ASP89       0.3668
     51  OD1       22.0670  128.9530  -46.2910 O.co2  89  ASP89      -0.2456
     52  OD2       21.2280  128.4460  -44.3250 O.co2  89  ASP89      -0.2456
     53  N         25.8550  130.1000  -49.0140 N.3    92  ILE92      -0.1231
     54  CA        27.1340  129.4640  -49.3260 C.3    92  ILE92       0.1692
     55  C         27.1760  128.0460  -48.7860 C.2    92  ILE92       0.2593
     56  O         27.6470  127.1240  -49.4550 O.2    92  ILE92      -0.2718
     57  CB        28.3430  130.2290  -48.7260 C.3    92  ILE92       0.0266
     58  CG1       28.4910  131.6060  -49.3590 C.3    92  ILE92       0.0019
     59  CG2       29.6280  129.4230  -48.8860 C.3    92  ILE92       0.0020
     60  CD1       29.9250  132.0800  -49.5300 C.3    92  ILE92       0.0001
     61  N         26.6430  127.8670  -47.5830 N.am   93  GLY93      -0.1942
     62  CA        26.7600  126.5950  -46.9000 C.3    93  GLY93       0.2014
     63  C         28.1990  126.4190  -46.4490 C.2    93  GLY93       0.2638
     64  O         29.0260  127.3130  -46.6200 O.2    93  GLY93      -0.2714
     65  N         28.4940  125.2790  -45.8360 N.am   94  MET94      -0.1976
     66  CA        29.8040  125.0470  -45.2400 C.3    94  MET94       0.1605
     67  C         30.4610  123.7790  -45.7710 C.2    94  MET94       0.2287
     68  O         29.7740  122.8040  -46.0720 O.2    94  MET94      -0.2864
     69  CB        29.6770  124.9570  -43.7210 C.3    94  MET94       0.0413
     70  CG        29.3090  126.2620  -43.0480 C.3    94  MET94       0.0598
     71  SD        28.6430  125.9660  -41.4040 S.3    94  MET94      -0.1393
     72  CE        27.0150  125.3490  -41.8270 C.3    94  MET94       0.0692
     73  N         33.5060  126.4520  -37.8080 N.3   102  ASN102     -0.1225
     74  CA        32.4950  127.4920  -37.6180 C.3   102  ASN102      0.1785
     75  C         31.3340  127.0570  -36.7350 C.2   102  ASN102      0.2597
     76  O         30.6760  127.8970  -36.1210 O.2   102  ASN102     -0.2718
     77  CB        31.9540  127.9590  -38.9680 C.3   102  ASN102      0.1169
     78  CG        33.0200  128.6070  -39.8230 C.2   102  ASN102      0.2627
     79  OD1       33.1560  129.8270  -39.8520 O.2   102  ASN102     -0.2716
     80  ND2       33.7860  127.7870  -40.5240 N.am  102  ASN102     -0.0877
     81  N         31.0860  125.7540  -36.6560 N.am  103  LEU103     -0.1980
     82  CA        30.0840  125.2550  -35.7220 C.3   103  LEU103      0.1596
     83  C         30.7420  124.6810  -34.4700 C.2   103  LEU103      0.2287
     84  O         30.1920  124.7700  -33.3730 O.2   103  LEU103     -0.2864
     85  CB        29.1930  124.1980  -36.3790 C.3   103  LEU103      0.0297
     86  CG        28.2530  124.6740  -37.4910 C.3   103  LEU103      0.0022
     87  CD1       27.2750  123.5730  -37.8700 C.3   103  LEU103      0.0001
     88  CD2       27.5140  125.9440  -37.1010 C.3   103  LEU103      0.0001
     89  N         33.8250  131.3350  -32.7180 N.3   108  ARG108     -0.1231
     90  CA        34.3520  131.5270  -34.0660 C.3   108  ARG108      0.1694
     91  C         33.2720  131.9890  -35.0330 C.2   108  ARG108      0.2593
     92  O         32.1970  131.3930  -35.1280 O.2   108  ARG108     -0.2718
     93  CB        35.0300  130.2740  -34.6250 C.3   108  ARG108      0.0321
     94  CG        35.3310  130.4820  -36.1060 C.3   108  ARG108      0.0489
     95  CD        36.6610  129.9550  -36.6020 C.3   108  ARG108      0.2205
     96  NE        36.9160  130.5020  -37.9360 N.pl3 108  ARG108     -0.0865
     97  CZ        37.7750  130.0010  -38.8180 C.cat 108  ARG108      0.5346
     98  NH1       38.4630  128.9020  -38.5370 N.pl3 108  ARG108      0.1354
     99  NH2       37.9230  130.5870  -39.9990 N.pl3 108  ARG108      0.1354
    100  N         33.5860  133.0630  -35.7510 N.am  109  SER109     -0.1938
    101  CA        32.6690  133.6790  -36.6930 C.3   109  SER109      0.2055
    102  C         33.2690  133.7220  -38.0880 C.2   109  SER109      0.2644
    103  O         34.0740  134.6000  -38.3880 O.2   109  SER109     -0.2714
    104  CB        32.3260  135.0980  -36.2530 C.3   109  SER109      0.2130
    105  OG        31.4510  135.7100  -37.1840 O.3   109  SER109     -0.2179
    106  N         32.8940  132.7730  -38.9380 N.am  110  GLY110     -0.1939
    107  CA        33.3630  132.7850  -40.3100 C.3   110  GLY110      0.2014
    108  C         32.7940  133.9690  -41.0590 C.2   110  GLY110      0.2639
    109  O         33.3900  134.4590  -42.0170 O.2   110  GLY110     -0.2714
    110  N         31.6310  134.4270  -40.6100 N.am  111  SER111     -0.1949
    111  CA        31.0090  135.6260  -41.1530 C.3   111  SER111      0.1924
    112  C         31.8580  136.8580  -40.8730 C.2   111  SER111      0.2314
    113  O         32.0880  137.6700  -41.7630 O.2   111  SER111     -0.2863
    114  CB        29.6000  135.8140  -40.5850 C.3   111  SER111      0.2116
    115  OG        28.7630  134.7210  -40.9220 O.3   111  SER111     -0.2180
    116  N         25.2860  140.1750  -40.6330 N.3   124  ILE124     -0.1231
    117  CA        24.7540  140.4550  -39.3030 C.3   124  ILE124      0.1692
    118  C         25.7010  140.0390  -38.1740 C.2   124  ILE124      0.2593
    119  O         25.9630  140.8150  -37.2530 O.2   124  ILE124     -0.2718
    120  CB        23.4000  139.7440  -39.1060 C.3   124  ILE124      0.0266
    121  CG1       22.3870  140.2420  -40.1390 C.3   124  ILE124      0.0019
    122  CG2       22.8900  139.9370  -37.6840 C.3   124  ILE124      0.0020
    123  CD1       21.1640  139.3630  -40.2670 C.3   124  ILE124      0.0001
    124  N         26.2080  138.8130  -38.2540 N.am  125  GLY125     -0.1942
    125  CA        26.9390  138.1940  -37.1590 C.3   125  GLY125      0.2014
    126  C         28.3310  138.6930  -36.8120 C.2   125  GLY125      0.2639
    127  O         29.0230  139.2590  -37.6580 O.2   125  GLY125     -0.2714
    128  N         28.7480  138.4740  -35.5620 N.am  126  GLN126     -0.1963
    129  CA        30.0960  138.8540  -35.1300 C.3   126  GLN126      0.1733
    130  C         30.6290  138.1030  -33.8980 C.2   126  GLN126      0.2616
    131  O         31.8420  137.9660  -33.7390 O.2   126  GLN126     -0.2715
    132  CB        30.1520  140.3600  -34.8550 C.3   126  GLN126      0.0408
    133  CG        29.2230  140.8380  -33.7520 C.3   126  GLN126      0.0908
    134  CD        29.4010  142.3130  -33.4470 C.2   126  GLN126      0.2608
    135  OE1       30.5170  142.7780  -33.2130 O.2   126  GLN126     -0.2717
    136  NE2       28.3000  143.0550  -33.4440 N.am  126  GLN126     -0.0878
    137  N         29.7410  137.6220  -33.0300 N.am  127  PHE127     -0.1960
    138  CA        30.1680  137.0610  -31.7440 C.3   127  PHE127      0.1771
    139  C         30.6200  135.6040  -31.8310 C.2   127  PHE127      0.2620
    140  O         31.6190  135.2210  -31.2190 O.2   127  PHE127     -0.2715
    141  CB        29.0400  137.1740  -30.7150 C.3   127  PHE127      0.0574
    142  CG        28.6620  138.5870  -30.3780 C.ar  127  PHE127     -0.0200
    143  CD1       29.6330  139.5420  -30.1320 C.ar  127  PHE127     -0.0042
    144  CD2       27.3320  138.9620  -30.3150 C.ar  127  PHE127     -0.0042
    145  CE1       29.2820  140.8440  -29.8230 C.ar  127  PHE127     -0.0003
    146  CE2       26.9750  140.2600  -30.0090 C.ar  127  PHE127     -0.0003
    147  CZ        27.9510  141.2030  -29.7630 C.ar  127  PHE127     -0.0000
    148  N         29.8880  134.7970  -32.5920 N.am  128  GLY128     -0.1940
    149  CA        30.2240  133.3930  -32.7540 C.3   128  GLY128      0.2014
    150  C         29.5280  132.4950  -31.7470 C.2   128  GLY128      0.2639
    151  O         29.9970  131.3930  -31.4550 O.2   128  GLY128     -0.2714
    152  N         28.4030  132.9650  -31.2130 N.am  129  VAL129     -0.1963
    153  CA        27.6620  132.2080  -30.2080 C.3   129  VAL129      0.1727
    154  C         26.2060  131.9850  -30.6050 C.2   129  VAL129      0.2617
    155  O         25.4950  131.2050  -29.9710 O.2   129  VAL129     -0.2715
    156  CB        27.6740  132.9210  -28.8420 C.3   129  VAL129      0.0290
    157  CG1       29.1000  133.1400  -28.3650 C.3   129  VAL129      0.0023
    158  CG2       26.9360  134.2460  -28.9350 C.3   129  VAL129      0.0023
    159  N         25.7750  132.6630  -31.6640 N.am  130  GLY130     -0.1940
    160  CA        24.3770  132.6740  -32.0590 C.3   130  GLY130      0.2014
    161  C         23.7650  131.3160  -32.3380 C.2   130  GLY130      0.2639
    162  O         22.6810  131.0100  -31.8480 O.2   130  GLY130     -0.2714
    163  N         24.4590  130.5070  -33.1300 N.am  131  PHE131     -0.1959
    164  CA        23.9930  129.1730  -33.4980 C.3   131  PHE131      0.1771
    165  C         23.6030  128.3430  -32.2670 C.2   131  PHE131      0.2619
    166  O         22.5600  127.6800  -32.2500 O.2   131  PHE131     -0.2715
    167  CB        25.0760  128.4740  -34.3310 C.3   131  PHE131      0.0574
    168  CG        24.7990  127.0280  -34.6180 C.ar  131  PHE131     -0.0200
    169  CD1       23.8320  126.6640  -35.5380 C.ar  131  PHE131     -0.0042
    170  CD2       25.5500  126.0340  -34.0150 C.ar  131  PHE131     -0.0042
    171  CE1       23.5870  125.3340  -35.8130 C.ar  131  PHE131     -0.0003
    172  CE2       25.3130  124.7020  -34.2920 C.ar  131  PHE131     -0.0003
    173  CZ        24.3300  124.3520  -35.1930 C.ar  131  PHE131     -0.0000
    174  N         24.4250  128.4240  -31.2260 N.am  132  TYR132     -0.1974
    175  CA        24.2200  127.6530  -30.0020 C.3   132  TYR132      0.1639
    176  C         22.9140  127.9900  -29.2940 C.2   132  TYR132      0.2290
    177  O         22.4520  127.2260  -28.4440 O.2   132  TYR132     -0.2864
    178  CB        25.3840  127.8790  -29.0470 C.3   132  TYR132      0.0560
    179  CG        26.7180  127.6800  -29.7050 C.ar  132  TYR132     -0.0198
    180  CD1       27.0490  126.4660  -30.3010 C.ar  132  TYR132     -0.0009
    181  CD2       27.6470  128.7140  -29.7470 C.ar  132  TYR132     -0.0009
    182  CE1       28.2720  126.2840  -30.9130 C.ar  132  TYR132      0.0417
    183  CE2       28.8700  128.5480  -30.3540 C.ar  132  TYR132      0.0417
    184  CZ        29.1790  127.3310  -30.9340 C.ar  132  TYR132      0.1957
    185  OH        30.4030  127.1690  -31.5400 O.3   132  TYR132     -0.2866
    186  N         22.3940  125.2500  -46.4080 N.3   177  THR177     -0.1218
    187  CA        22.3230  124.5940  -45.1120 C.3   177  THR177      0.1862
    188  C         20.8990  124.3960  -44.6150 C.2   177  THR177      0.2287
    189  O         20.1210  125.3410  -44.5410 O.2   177  THR177     -0.2866
    190  CB        23.1000  125.3900  -44.0480 C.3   177  THR177      0.1770
    191  OG1       24.3860  125.7550  -44.5630 O.3   177  THR177     -0.2211
    192  CG2       23.2730  124.5600  -42.7840 C.3   177  THR177      0.0375
    193  N         18.9550  123.1760  -41.1870 N.3   179  ILE179     -0.1245
    194  CA        19.0840  122.8710  -39.7690 C.3   179  ILE179      0.1561
    195  C         17.7420  122.4340  -39.1940 C.2   179  ILE179      0.2260
    196  O         16.8080  123.2290  -39.0660 O.2   179  ILE179     -0.2867
    197  CB        19.6210  124.0630  -38.9600 C.3   179  ILE179      0.0252
    198  CG1       21.0440  124.4050  -39.4000 C.3   179  ILE179      0.0019
    199  CG2       19.6130  123.7370  -37.4740 C.3   179  ILE179      0.0019
    200  CD1       21.6460  125.5650  -38.6500 C.3   179  ILE179      0.0001
    201  N         22.4590  140.6580  -27.9740 N.3   325  ARG325     -0.1245
    202  CA        21.8700  141.3550  -29.1300 C.3   325  ARG325      0.1563
    203  C         20.4590  141.8440  -28.8250 C.2   325  ARG325      0.2260
    204  O         19.7030  142.2070  -29.7260 O.2   325  ARG325     -0.2867
    205  CB        21.8190  140.4660  -30.3730 C.3   325  ARG325      0.0307
    206  CG        23.1240  139.8350  -30.8100 C.3   325  ARG325      0.0489
    207  CD        23.0290  139.4640  -32.2800 C.3   325  ARG325      0.2205
    208  NE        24.2130  138.7690  -32.7760 N.pl3 325  ARG325     -0.0865
    209  CZ        25.0540  139.2350  -33.6910 C.cat 325  ARG325      0.5346
    210  NH1       24.8800  140.4410  -34.2210 N.pl3 325  ARG325      0.1354
    211  NH2       26.0820  138.4770  -34.0650 N.pl3 325  ARG325      0.1354
@<TRIPOS>BOND
     1    39    38    2
     2    38    37    1
     3    60    58    1
     4    56    55    2
     5    58    57    1
     6    54    53    1
     7    54    55    1
     8    54    57    1
     9    59    57    1
    10    55    61   am
    11    37    36    1
    12    37    40    1
    13    34    33    2
    14    47    48    2
    15    47    46    1
    16    40    41    1
    17    61    62    1
    18    33    32    1
    19    62    63    1
    20    46    49    1
    21    46    45    1
    22    64    63    2
    23    63    65   am
    24   186   187    1
    25    51    50   ar
    26    41    42    1
    27    68    67    2
    28    49    50    1
    29    65    66    1
    30    26    25    2
    31    67    66    1
    32    32    35    1
    33    32    31    1
    34    50    52   ar
    35    42    43    1
    36    66    69    1
    37   187   188    1
    38   187   190    1
    39    25    31   am
    40    25    24    1
    41   188   189    2
    42   191   190    1
    43    21    20    2
    44   190   192    1
    45    43    44    1
    46    24    23    1
    47    24    27    1
    48    69    70    1
    49    20    19    1
    50    70    71    1
    51    27    28    1
    52    19    22    1
    53    19    18    1
    54   109   108    2
    55    29    28   ar
    56    13    12    2
    57    72    71    1
    58   113   112    2
    59    28    30   ar
    60   193   194    1
    61   111   112    1
    62   111   110    1
    63   111   114    1
    64    18    12   am
    65   108   110   am
    66   108   107    1
    67   115   114    1
    68    12    11    1
    69   116   117    1
    70    80    78   am
    71   107   106    1
    72   123   121    1
    73   121   120    1
    74    99    97    1
    75    79    78    2
    76    78    77    1
    77   194   195    1
    78   194   197    1
    79    11    10    1
    80    11    14    1
    81   198   197    1
    82   198   200    1
    83   117   120    1
    84   117   118    1
    85   195   196    2
    86   120   122    1
    87    77    74    1
    88   197   199    1
    89   106   102   am
    90    97    98    1
    91    97    96    2
    92    14    15    1
    93   103   102    2
    94   124   118   am
    95   124   125    1
    96   118   119    2
    97   102   101    1
    98    96    95    1
    99    87    86    1
   100    73    74    1
   101   127   126    2
   102    74    75    1
   103    86    88    1
   104    86    85    1
   105    15    16    2
   106    15    17   am
   107   105   104    1
   108   125   126    1
   109   126   128   am
   110     4     3    2
   111    75    81   am
   112    75    76    2
   113   101   104    1
   114   101   100    1
   115    81    82    1
   116    95    94    1
   117    85    82    1
   118    94    93    1
   119     3     2    1
   120   171   169   ar
   121   171   173   ar
   122   100    91   am
   123    82    83    1
   124   128   129    1
   125   169   168   ar
   126   173   172   ar
   127   129   132    1
   128   129   130    1
   129    92    91    2
   130    91    90    1
   131   132   133    1
   132     2     1    1
   133     2     5    1
   134    93    90    1
   135   168   167    1
   136   168   170   ar
   137    83    84    2
   138   167   164    1
   139   172   170   ar
   140   210   209    1
   141    90    89    1
   142   211   209    1
   143   130   131    2
   144   130   137   am
   145   133   134    1
   146   209   208    2
   147     8     7   ar
   148   164   163    1
   149   164   165    1
   150   134   136   am
   151   134   135    2
   152     5     6    1
   153   163   161   am
   154   137   138    1
   155   208   207    1
   156   149   148    1
   157   149   150    1
   158     7     9   ar
   159     7     6    1
   160   148   139   am
   161   161   160    1
   162   161   162    2
   163   207   206    1
   164   165   166    2
   165   165   174   am
   166   160   159    1
   167   139   138    1
   168   139   140    2
   169   150   151    2
   170   150   152   am
   171   138   141    1
   172   159   154   am
   173   185   184    1
   174   174   175    1
   175   152   153    1
   176   184   182   ar
   177   184   183   ar
   178   182   180   ar
   179   206   205    1
   180   141   142    1
   181   154   153    1
   182   154   155    2
   183   142   144   ar
   184   142   143   ar
   185   205   202    1
   186   183   181   ar
   187   144   146   ar
   188   180   179   ar
   189   153   156    1
   190   143   145   ar
   191   146   147   ar
   192   175   176    1
   193   175   178    1
   194   145   147   ar
   195   181   179   ar
   196   204   203    2
   197   179   178    1
   198   176   177    2
   199   202   203    1
   200   202   201    1
   201   158   156    1
   202   156   157    1
