@<TRIPOS>MOLECULE
tmp/4z1jA00.pdb
 156 151 0 0 0
SMALL
GASTEIGER

@<TRIPOS>ATOM
      1  N         12.7350    2.1300    5.8700 N.3    65  ASN65      -0.1240
      2  CA        11.9070    3.0600    6.6000 C.3    65  ASN65       0.1653
      3  C         10.6810    3.4770    5.7840 C.2    65  ASN65       0.2266
      4  O         10.8380    3.9010    4.6210 O.2    65  ASN65      -0.2867
      5  CB        12.6720    4.3350    6.9580 C.3    65  ASN65       0.1155
      6  CG        13.8140    4.1090    7.9130 C.2    65  ASN65       0.2627
      7  OD1       13.9230    3.0760    8.5520 O.2    65  ASN65      -0.2716
      8  ND2       14.6340    5.1440    8.0830 N.am   65  ASN65      -0.0877
      9  N          7.2070    9.9230   12.6840 N.3    89  ILE89      -0.1231
     10  CA         8.1050   10.2720   11.5790 C.3    89  ILE89       0.1692
     11  C          8.3930    9.1070   10.6500 C.2    89  ILE89       0.2591
     12  O          8.4750    9.2740    9.4400 O.2    89  ILE89      -0.2718
     13  CB         9.4230   10.9190   12.0900 C.3    89  ILE89       0.0266
     14  CG1       10.3570   11.2510   10.9190 C.3    89  ILE89       0.0019
     15  CG2       10.1070   10.0870   13.1780 C.3    89  ILE89       0.0020
     16  CD1       11.4950   12.1520   11.3370 C.3    89  ILE89       0.0001
     17  N          8.5410    7.9020   11.2030 N.am   90  GLN90      -0.1979
     18  CA         8.8510    6.7470   10.3600 C.3    90  GLN90       0.1601
     19  C          8.5950    5.4730   11.1280 C.2    90  GLN90       0.2287
     20  O          8.5640    5.5040   12.3620 O.2    90  GLN90      -0.2864
     21  CB        10.3180    6.7690    9.8810 C.3    90  GLN90       0.0394
     22  CG        11.3840    6.8120   10.9850 C.3    90  GLN90       0.0908
     23  CD        12.0970    5.4840   11.2250 C.2    90  GLN90       0.2608
     24  OE1       11.4890    4.4060   11.0680 O.2    90  GLN90      -0.2717
     25  NE2       13.3340    5.5420   11.6680 N.am   90  GLN90      -0.0878
     26  N          9.9770    1.1750   10.8650 N.3    92  HIS92      -0.1241
     27  CA        10.8400    0.1900   10.2650 C.3    92  HIS92       0.1621
     28  C         10.7570   -1.0660   11.1020 C.2    92  HIS92       0.2264
     29  O         10.1050   -1.0880   12.1460 O.2    92  HIS92      -0.2867
     30  CB        12.2690    0.6900   10.2290 C.3    92  HIS92       0.0745
     31  CG        12.7960    0.9800   11.5960 C.ar   92  HIS92       0.0817
     32  ND1       12.5880    2.1700   12.2150 N.ar   92  HIS92      -0.2268
     33  CD2       13.4430    0.1690   12.5150 C.ar   92  HIS92       0.1154
     34  CE1       13.0890    2.1080   13.4650 C.ar   92  HIS92       0.1986
     35  NE2       13.6150    0.8810   13.6440 N.ar   92  HIS92      -0.2212
     36  N         13.0780   -4.7830   12.4490 N.3    94  HIS94      -0.1241
     37  CA        14.2630   -5.5910   12.6320 C.3    94  HIS94       0.1621
     38  C         13.8220   -7.0320   12.4990 C.2    94  HIS94       0.2264
     39  O         12.7660   -7.3900   13.0160 O.2    94  HIS94      -0.2867
     40  CB        14.9120   -5.3560   14.0130 C.3    94  HIS94       0.0745
     41  CG        15.2020   -3.9140   14.2820 C.ar   94  HIS94       0.0817
     42  ND1       16.4230   -3.3690   14.1190 N.ar   94  HIS94      -0.2268
     43  CD2       14.3650   -2.8880   14.6850 C.ar   94  HIS94       0.1154
     44  CE1       16.3660   -2.0420   14.4230 C.ar   94  HIS94       0.1986
     45  NE2       15.1110   -1.7380   14.7480 N.ar   94  HIS94      -0.2212
     46  N          9.1120   -0.9760   14.8200 N.3   117  HIS117     -0.1241
     47  CA         9.3490    0.2560   15.5610 C.3   117  HIS117      0.1621
     48  C          8.6700    1.4180   14.8680 C.2   117  HIS117      0.2264
     49  O          9.0580    1.7960   13.7600 O.2   117  HIS117     -0.2867
     50  CB        10.8480    0.5290   15.6760 C.3   117  HIS117      0.0745
     51  CG        11.5210   -0.4310   16.5760 C.ar  117  HIS117      0.0817
     52  ND1       12.8870   -0.6360   16.5470 N.ar  117  HIS117     -0.2268
     53  CD2       11.0050   -1.2800   17.5440 C.ar  117  HIS117      0.1154
     54  CE1       13.1860   -1.5680   17.4640 C.ar  117  HIS117      0.1986
     55  NE2       12.0560   -1.9580   18.0950 N.ar  117  HIS117     -0.2212
     56  N          8.3180    5.2200   15.2060 N.3   119  VAL119     -0.1245
     57  CA         9.1600    6.2170   15.8300 C.3   119  VAL119      0.1561
     58  C          8.4680    7.5790   15.8380 C.2   119  VAL119      0.2260
     59  O          8.0480    8.0540   14.7720 O.2   119  VAL119     -0.2867
     60  CB        10.5050    6.3260   15.0420 C.3   119  VAL119      0.0252
     61  CG1       11.4300    7.3790   15.6560 C.3   119  VAL119      0.0019
     62  CG2       11.2110    4.9640   14.8920 C.3   119  VAL119      0.0019
     63  N         12.8430   16.4960   14.7010 N.3   128  PHE128     -0.1227
     64  CA        13.4180   15.2370   15.1020 C.3   128  PHE128      0.1736
     65  C         14.8650   15.3800   15.5200 C.2   128  PHE128      0.2596
     66  O         15.3040   14.8020   16.5180 O.2   128  PHE128     -0.2718
     67  CB        13.2390   14.2250   13.9600 C.3   128  PHE128      0.0547
     68  CG        13.8680   12.8920   14.2130 C.ar  128  PHE128     -0.0202
     69  CD1       13.1900   11.9160   14.9040 C.ar  128  PHE128     -0.0042
     70  CD2       15.1360   12.6160   13.7890 C.ar  128  PHE128     -0.0042
     71  CE1       13.7640   10.6710   15.1380 C.ar  128  PHE128     -0.0003
     72  CE2       15.7080   11.3820   14.0220 C.ar  128  PHE128     -0.0003
     73  CZ        15.0220   10.4150   14.7190 C.ar  128  PHE128     -0.0000
     74  N         15.6430   16.1370   14.7520 N.am  129  GLY129     -0.1957
     75  CA        17.0550   16.3000   15.0470 C.3   129  GLY129      0.1869
     76  C         17.3460   16.9700   16.3890 C.2   129  GLY129      0.2309
     77  O         18.3140   16.6680   17.0340 O.2   129  GLY129     -0.2863
     78  N         16.2220   14.2220   19.3550 N.3   132  VAL132     -0.1245
     79  CA        17.1290   13.1470   19.7100 C.3   132  VAL132      0.1561
     80  C         18.2180   13.5550   20.6730 C.2   132  VAL132      0.2260
     81  O         18.8900   12.7040   21.2320 O.2   132  VAL132     -0.2867
     82  CB        17.7720   12.4740   18.4910 C.3   132  VAL132      0.0252
     83  CG1       16.7120   11.8030   17.6290 C.3   132  VAL132      0.0019
     84  CG2       18.6330   13.4150   17.6660 C.3   132  VAL132      0.0019
     85  N          9.1950    5.4390   21.0530 N.3   140  VAL140     -0.1245
     86  CA         9.1660    4.3800   20.0570 C.3   140  VAL140      0.1561
     87  C          8.2040    3.3140   20.5590 C.2   140  VAL140      0.2260
     88  O          8.3300    2.8140   21.6830 O.2   140  VAL140     -0.2867
     89  CB        10.5390    3.7910   19.6870 C.3   140  VAL140      0.0252
     90  CG1       10.3870    2.7800   18.5560 C.3   140  VAL140      0.0019
     91  CG2       11.5010    4.8910   19.2540 C.3   140  VAL140      0.0019
     92  N         18.0920    4.8060   21.2350 N.3   195  LEU195     -0.1231
     93  CA        18.0670    4.2720   19.8960 C.3   195  LEU195      0.1693
     94  C         18.8050    2.9410   19.9000 C.2   195  LEU195      0.2593
     95  O         19.8040    2.7740   20.6160 O.2   195  LEU195     -0.2718
     96  CB        18.7630    5.2040   18.9170 C.3   195  LEU195      0.0284
     97  CG        18.2280    6.6270   18.7970 C.3   195  LEU195      0.0019
     98  CD1       19.1470    7.4580   17.8970 C.3   195  LEU195      0.0001
     99  CD2       16.8160    6.5960   18.2430 C.3   195  LEU195      0.0001
    100  N         18.3660    1.9880   19.0930 N.am  196  THR196     -0.1939
    101  CA        19.0080    0.6720   19.0470 C.3   196  THR196      0.2028
    102  C         20.0160    0.5720   17.9110 C.2   196  THR196      0.2643
    103  O         20.6440   -0.4820   17.7390 O.2   196  THR196     -0.2714
    104  CB        17.9940   -0.4500   18.9300 C.3   196  THR196      0.1808
    105  OG1       17.3940   -0.3900   17.6350 O.3   196  THR196     -0.2208
    106  CG2       16.9730   -0.4230   20.0690 C.3   196  THR196      0.0379
    107  N         20.1390    1.6220   17.1050 N.am  197  THR197     -0.1937
    108  CA        21.2240    1.7270   16.1280 C.3   197  THR197      0.2013
    109  C         22.0710    2.9550   16.4520 C.2   197  THR197      0.2484
    110  O         21.5940    3.8900   17.1020 O.2   197  THR197     -0.2729
    111  CB        20.6900    1.9200   14.6920 C.3   197  THR197      0.1807
    112  OG1       20.0050    3.1660   14.5840 O.3   197  THR197     -0.2208
    113  CG2       19.7560    0.8240   14.2850 C.3   197  THR197      0.0379
    114  N         23.3530    2.9630   16.0010 N.am  198  PRO198     -0.2715
    115  CA        24.1020    4.2030   16.0530 C.3   198  PRO198      0.1521
    116  C         23.2500    5.3640   15.5230 C.2   198  PRO198      0.2440
    117  O         22.5500    5.1900   14.5240 O.2   198  PRO198     -0.2731
    118  CB        25.2900    3.8980   15.1500 C.3   198  PRO198      0.0310
    119  CG        25.5280    2.4380   15.3920 C.3   198  PRO198      0.0237
    120  CD        24.1440    1.8870   15.3740 C.3   198  PRO198      0.0939
    121  N         23.2830    6.5290   16.1810 N.am  199  PRO199     -0.2727
    122  CA        24.2140    6.9460   17.2390 C.3   199  PRO199      0.1402
    123  C         23.8680    6.5170   18.6750 C.2   199  PRO199      0.2269
    124  O         24.5390    6.9130   19.5990 O.2   199  PRO199     -0.2865
    125  CB        24.2200    8.4700   17.0670 C.3   199  PRO199      0.0296
    126  CG        22.8030    8.7530   16.6230 C.3   199  PRO199      0.0237
    127  CD        22.4940    7.6600   15.6530 C.3   199  PRO199      0.0939
    128  N         21.6750    7.1680   20.8340 N.3   201  LEU201     -0.1245
    129  CA        21.3670    8.2510   21.7630 C.3   201  LEU201      0.1561
    130  C         20.3200    7.8450   22.7870 C.2   201  LEU201      0.2260
    131  O         19.3430    7.1400   22.4680 O.2   201  LEU201     -0.2867
    132  CB        20.9090    9.4870   20.9910 C.3   201  LEU201      0.0270
    133  CG        21.9610   10.0690   20.0400 C.3   201  LEU201      0.0019
    134  CD1       21.2840   11.0520   19.0840 C.3   201  LEU201      0.0001
    135  CD2       23.1390   10.6730   20.8140 C.3   201  LEU201      0.0001
    136  N         15.0230    7.9190   24.2440 N.3   204  VAL204     -0.1245
    137  CA        13.7830    7.1950   23.9230 C.3   204  VAL204      0.1561
    138  C         13.0150    6.7460   25.1580 C.2   204  VAL204      0.2260
    139  O         13.5610    6.1080   26.0370 O.2   204  VAL204     -0.2867
    140  CB        14.0690    5.9570   23.0480 C.3   204  VAL204      0.0252
    141  CG1       12.7580    5.2230   22.7270 C.3   204  VAL204      0.0019
    142  CG2       14.8260    6.3190   21.7720 C.3   204  VAL204      0.0019
    143  N         10.6030    3.9650   25.6220 N.3   206  TRP206     -0.1241
    144  CA        10.1690    2.7500   24.9360 C.3   206  TRP206      0.1605
    145  C          8.7970    2.3490   25.4440 C.2   206  TRP206      0.2264
    146  O          8.5580    2.3090   26.6460 O.2   206  TRP206     -0.2867
    147  CB        11.1710    1.5860   25.1460 C.3   206  TRP206      0.0550
    148  CG        12.2880    1.7000   24.1660 C.ar  206  TRP206      0.0003
    149  CD1       13.5490    2.3060   24.3560 C.ar  206  TRP206      0.0946
    150  CD2       12.2260    1.3010   22.7950 C.ar  206  TRP206      0.0152
    151  NE1       14.2370    2.2670   23.1760 N.ar  206  TRP206     -0.2442
    152  CE2       13.4910    1.6880   22.1920 C.ar  206  TRP206      0.0810
    153  CE3       11.2680    0.6830   22.0180 C.ar  206  TRP206      0.0012
    154  CZ2       13.7620    1.4450   20.8600 C.ar  206  TRP206      0.0191
    155  CZ3       11.5500    0.4280   20.7080 C.ar  206  TRP206      0.0001
    156  CH2       12.7660    0.8230   20.1330 C.ar  206  TRP206      0.0015
@<TRIPOS>BOND
     1     4     3    2
     2     3     2    1
     3     1     2    1
     4     2     5    1
     5     5     6    1
     6     6     8   am
     7     6     7    2
     8    12    11    2
     9    21    18    1
    10    21    22    1
    11    30    27    1
    12    30    31    1
    13    27    26    1
    14    27    28    1
    15    18    19    1
    16    18    17    1
    17    11    17   am
    18    11    10    1
    19    14    16    1
    20    14    13    1
    21    22    23    1
    22    24    23    2
    23    28    29    2
    24    19    20    2
    25    23    25   am
    26    10    13    1
    27    10     9    1
    28    31    32   ar
    29    31    33   ar
    30    13    15    1
    31    32    34   ar
    32    36    37    1
    33    38    37    1
    34    38    39    2
    35    33    35   ar
    36    37    40    1
    37    34    35   ar
    38    49    48    2
    39    70    72   ar
    40    70    68   ar
    41    67    68    1
    42    67    64    1
    43    40    41    1
    44    72    73   ar
    45    42    41   ar
    46    42    44   ar
    47    68    69   ar
    48    41    43   ar
    49   113   111    1
    50    44    45   ar
    51   117   116    2
    52   112   111    1
    53    43    45   ar
    54   111   108    1
    55    63    64    1
    56    73    71   ar
    57    74    75    1
    58    74    65   am
    59    59    58    2
    60    46    47    1
    61    48    47    1
    62    62    60    1
    63    69    71   ar
    64    60    61    1
    65    60    57    1
    66    75    76    1
    67    64    65    1
    68   118   119    1
    69   118   115    1
    70    56    57    1
    71   120   119    1
    72   120   114    1
    73    65    66    2
    74   116   115    1
    75   116   121   am
    76    47    50    1
    77   127   121    1
    78   127   126    1
    79    50    51    1
    80    57    58    1
    81   114   115    1
    82   114   109   am
    83   108   109    1
    84   108   107    1
    85   121   122    1
    86    76    77    2
    87   109   110    2
    88    52    51   ar
    89    52    54   ar
    90    51    53   ar
    91   126   125    1
    92   125   122    1
    93   107   102   am
    94   122   123    1
    95    54    55   ar
    96    53    55   ar
    97    83    82    1
    98   105   104    1
    99    84    82    1
   100   103   102    2
   101    98    97    1
   102   102   101    1
   103    99    97    1
   104    82    79    1
   105    90    89    1
   106   123   124    2
   107    97    96    1
   108    96    93    1
   109   104   101    1
   110   104   106    1
   111   101   100    1
   112   134   133    1
   113   100    94   am
   114    91    89    1
   115    78    79    1
   116    89    86    1
   117    79    80    1
   118    93    94    1
   119    93    92    1
   120    94    95    2
   121   133   135    1
   122   133   132    1
   123    86    87    1
   124    86    85    1
   125   156   155   ar
   126   156   154   ar
   127    87    88    2
   128    80    81    2
   129   155   153   ar
   130   128   129    1
   131   154   152   ar
   132   132   129    1
   133   129   130    1
   134   142   140    1
   135   153   150   ar
   136   152   150   ar
   137   152   151   ar
   138   131   130    2
   139   141   140    1
   140   150   148   ar
   141   140   137    1
   142   151   149   ar
   143   137   136    1
   144   137   138    1
   145   148   149   ar
   146   148   147    1
   147   144   147    1
   148   144   145    1
   149   144   143    1
   150   138   139    2
   151   145   146    2
