@<TRIPOS>MOLECULE
tmp/4z1lH00.pdb
 104 96 0 0 0
SMALL
GASTEIGER

@<TRIPOS>ATOM
      1  N         64.6120 -139.8420   44.6880 N.3     1  THR1       -0.1218
      2  CA        65.0920 -138.6660   45.3750 C.3     1  THR1        0.1862
      3  C         65.2300 -139.0940   46.7660 C.2     1  THR1        0.2287
      4  O         64.3340 -139.6920   47.2770 O.2     1  THR1       -0.2866
      5  CB        64.0500 -137.5710   45.2850 C.3     1  THR1        0.1770
      6  OG1       64.1140 -136.9360   44.0290 O.3     1  THR1       -0.2211
      7  CG2       64.2470 -136.4640   46.2710 C.3     1  THR1        0.0375
      8  N         70.6700 -136.9770   41.8840 N.3    19  ARG19      -0.1231
      9  CA        70.1480 -137.6490   40.6900 C.3    19  ARG19       0.1694
     10  C         68.7250 -137.1980   40.3650 C.2    19  ARG19       0.2593
     11  O         67.8180 -137.3310   41.1910 O.2    19  ARG19      -0.2718
     12  CB        70.1600 -139.1710   40.8690 C.3    19  ARG19       0.0321
     13  CG        69.4950 -139.9270   39.7220 C.3    19  ARG19       0.0489
     14  CD        69.4630 -141.4290   39.9540 C.3    19  ARG19       0.2205
     15  NE        70.7850 -142.0390   39.8310 N.pl3  19  ARG19      -0.0865
     16  CZ        71.0420 -143.3390   39.9720 C.cat  19  ARG19       0.5346
     17  NH1       70.0690 -144.2010   40.2490 N.pl3  19  ARG19       0.1354
     18  NH2       72.2870 -143.7820   39.8360 N.pl3  19  ARG19       0.1354
     19  N         68.5400 -136.6720   39.1560 N.am   20  SER20      -0.1938
     20  CA        67.2070 -136.4200   38.6120 C.3    20  SER20       0.2055
     21  C         66.9870 -137.3760   37.4520 C.2    20  SER20       0.2643
     22  O         67.8870 -137.5930   36.6400 O.2    20  SER20      -0.2714
     23  CB        67.0590 -134.9730   38.1390 C.3    20  SER20       0.2130
     24  OG        67.8060 -134.7320   36.9620 O.3    20  SER20      -0.2179
     25  N         65.7880 -137.9440   37.3770 N.am   21  THR21      -0.1950
     26  CA        65.4890 -138.9790   36.3950 C.3    21  THR21       0.1897
     27  C         64.2450 -138.6610   35.5830 C.2    21  THR21       0.2313
     28  O         63.3680 -137.9270   36.0360 O.2    21  THR21      -0.2863
     29  CB        65.2580 -140.3380   37.0780 C.3    21  THR21       0.1794
     30  OG1       64.1530 -140.2380   37.9860 O.3    21  THR21      -0.2208
     31  CG2       66.4960 -140.7720   37.8420 C.3    21  THR21       0.0378
     32  N         72.2860 -132.9960   39.8790 N.3    31  CYS31      -0.1235
     33  CA        71.1350 -132.1140   40.0590 C.3    31  CYS31       0.1677
     34  C         71.1560 -131.4380   41.4240 C.2    31  CYS31       0.2270
     35  O         71.4980 -132.0670   42.4230 O.2    31  CYS31      -0.2867
     36  CB        69.8540 -132.9380   39.9370 C.3    31  CYS31       0.0956
     37  SG        68.3130 -132.0100   40.0690 S.3    31  CYS31      -0.0801
     38  N         69.1050 -130.0940   44.4120 N.3    33  LYS33      -0.1245
     39  CA        67.7750 -130.2430   45.0260 C.3    33  LYS33       0.1561
     40  C         67.5660 -129.4040   46.2880 C.2    33  LYS33       0.2260
     41  O         66.4410 -129.2760   46.7640 O.2    33  LYS33      -0.2867
     42  CB        67.5240 -131.7060   45.3610 C.3    33  LYS33       0.0271
     43  CG        67.6920 -132.6190   44.1650 C.3    33  LYS33       0.0035
     44  CD        67.2930 -134.0430   44.4880 C.3    33  LYS33       0.0206
     45  CE        67.6640 -134.9740   43.3460 C.3    33  LYS33       0.1093
     46  NZ        67.1230 -136.3430   43.5560 N.3    33  LYS33      -0.1314
     47  N         63.3760 -130.5200   47.8570 N.3    45  GLY45      -0.1210
     48  CA        62.1220 -130.8770   47.2010 C.3    45  GLY45       0.1956
     49  C         62.1420 -132.2220   46.5120 C.2    45  GLY45       0.2612
     50  O         63.1230 -132.5720   45.8570 O.2    45  GLY45      -0.2717
     51  N         61.0480 -132.9650   46.6670 N.am   46  ALA46      -0.1965
     52  CA        60.8340 -134.2200   45.9620 C.3    46  ALA46       0.1728
     53  C         59.5140 -134.1500   45.2060 C.2    46  ALA46       0.2617
     54  O         58.6580 -133.3240   45.5250 O.2    46  ALA46      -0.2715
     55  CB        60.8240 -135.3830   46.9380 C.3    46  ALA46       0.0334
     56  N         59.3550 -135.0180   44.2090 N.am   47  GLY47      -0.1940
     57  CA        58.1450 -135.0500   43.3870 C.3    47  GLY47       0.2014
     58  C         58.3830 -134.4290   42.0240 C.2    47  GLY47       0.2640
     59  O         59.3690 -134.7450   41.3570 O.2    47  GLY47      -0.2714
     60  N         57.4710 -133.5570   41.6020 N.am   48  THR48      -0.1936
     61  CA        57.5970 -132.8660   40.3220 C.3    48  THR48       0.2028
     62  C         58.6200 -131.7410   40.4830 C.2    48  THR48       0.2642
     63  O         58.4030 -130.7990   41.2440 O.2    48  THR48      -0.2714
     64  CB        56.2410 -132.3090   39.8430 C.3    48  THR48       0.1808
     65  OG1       55.2440 -133.3350   39.9290 O.3    48  THR48      -0.2208
     66  CG2       56.3230 -131.8220   38.4030 C.3    48  THR48       0.0379
     67  N         59.7320 -131.8600   39.7590 N.am   49  ALA49      -0.1977
     68  CA        60.9040 -130.9840   39.9280 C.3    49  ALA49       0.1597
     69  C         60.6770 -129.5180   39.5550 C.2    49  ALA49       0.2287
     70  O         61.2730 -128.6240   40.1620 O.2    49  ALA49      -0.2864
     71  CB        62.0740 -131.5350   39.1330 C.3    49  ALA49       0.0319
     72  N         58.5700 -128.1050   42.5910 N.3    52  THR52      -0.1218
     73  CA        59.3810 -127.8430   43.7880 C.3    52  THR52       0.1862
     74  C         60.2410 -126.6030   43.6030 C.2    52  THR52       0.2287
     75  O         60.4720 -125.8770   44.5530 O.2    52  THR52      -0.2866
     76  CB        60.3030 -129.0170   44.1840 C.3    52  THR52       0.1770
     77  OG1       61.2270 -129.2920   43.1250 O.3    52  THR52      -0.2211
     78  CG2       59.4890 -130.2620   44.5150 C.3    52  THR52       0.0375
     79  N         56.6720 -131.8800   47.2190 N.3    97  TYR97      -0.1241
     80  CA        56.8590 -132.4780   48.5400 C.3    97  TYR97       0.1605
     81  C         58.1710 -131.9170   49.0730 C.2    97  TYR97       0.2264
     82  O         59.2290 -132.1970   48.5140 O.2    97  TYR97      -0.2867
     83  CB        56.9060 -134.0060   48.4440 C.3    97  TYR97       0.0534
     84  CG        55.6350 -134.6150   47.8900 C.ar   97  TYR97      -0.0201
     85  CD1       55.4280 -134.7120   46.5170 C.ar   97  TYR97      -0.0009
     86  CD2       54.6360 -135.0870   48.7360 C.ar   97  TYR97      -0.0009
     87  CE1       54.2640 -135.2590   46.0030 C.ar   97  TYR97       0.0417
     88  CE2       53.4700 -135.6400   48.2290 C.ar   97  TYR97       0.0417
     89  CZ        53.2900 -135.7200   46.8610 C.ar   97  TYR97       0.1957
     90  OH        52.1380 -136.2620   46.3380 O.3    97  TYR97      -0.2866
     91  N         60.8840 -138.5540   49.5790 N.3   128  GLY128     -0.1210
     92  CA        61.2520 -139.0800   48.2640 C.3   128  GLY128      0.1956
     93  C         61.1910 -140.5920   48.1730 C.2   128  GLY128      0.2612
     94  O         60.7710 -141.2670   49.1120 O.2   128  GLY128     -0.2717
     95  N         61.6220 -141.1210   47.0300 N.am  129  SER129     -0.1952
     96  CA        61.6200 -142.5640   46.7900 C.3   129  SER129      0.1924
     97  C         62.6360 -143.2930   47.6680 C.2   129  SER129      0.2314
     98  O         62.4790 -144.4830   47.9390 O.2   129  SER129     -0.2863
     99  CB        61.8920 -142.8700   45.3140 C.3   129  SER129      0.2116
    100  OG        63.1520 -142.3620   44.9090 O.3   129  SER129     -0.2180
    101  N         65.9180 -144.6980   42.3800 N.3   168  GLY168     -0.1225
    102  CA        65.5340 -143.3190   42.0900 C.3   168  GLY168      0.1811
    103  C         66.5370 -142.2760   42.5510 C.2   168  GLY168      0.2280
    104  O         66.4400 -141.1130   42.1540 O.2   168  GLY168     -0.2866
@<TRIPOS>BOND
     1    27    28    2
     2    27    26    1
     3    26    29    1
     4    26    25    1
     5    22    21    2
     6    24    23    1
     7    29    31    1
     8    29    30    1
     9    25    21   am
    10    21    20    1
    11    23    20    1
    12    66    64    1
    13    20    19    1
    14    71    68    1
    15    19    10   am
    16    69    68    1
    17    69    70    2
    18    13    14    1
    19    13    12    1
    20    67    68    1
    21    67    62   am
    22    15    14    1
    23    15    16    2
    24    18    16    1
    25    64    65    1
    26    64    61    1
    27    32    33    1
    28    36    33    1
    29    36    37    1
    30    16    17    1
    31    33    34    1
    32    61    62    1
    33    61    60    1
    34    10     9    1
    35    10    11    2
    36    62    63    2
    37     9    12    1
    38     9     8    1
    39    59    58    2
    40    34    35    2
    41    60    58   am
    42    58    57    1
    43   102   101    1
    44   102   103    1
    45   104   103    2
    46    72    73    1
    47    77    76    1
    48    45    46    1
    49    45    44    1
    50    57    56    1
    51    74    73    1
    52    74    75    2
    53    73    76    1
    54     6     5    1
    55    43    44    1
    56    43    42    1
    57    76    78    1
    58    56    53   am
    59    38    39    1
    60     1     2    1
    61   100    99    1
    62    39    42    1
    63    39    40    1
    64    53    54    2
    65    53    52    1
    66     5     2    1
    67     5     7    1
    68    99    96    1
    69     2     3    1
    70    50    49    2
    71    52    51    1
    72    52    55    1
    73    87    85   ar
    74    87    89   ar
    75    40    41    2
    76    90    89    1
    77    49    51   am
    78    49    48    1
    79    85    84   ar
    80     3     4    2
    81    96    95    1
    82    96    97    1
    83    89    88   ar
    84    95    93   am
    85    48    47    1
    86    79    80    1
    87    97    98    2
    88    84    83    1
    89    84    86   ar
    90    93    92    1
    91    93    94    2
    92    88    86   ar
    93    92    91    1
    94    83    80    1
    95    82    81    2
    96    80    81    1
