@<TRIPOS>MOLECULE
tmp/4z1lK00.pdb
 114 106 0 0 0
SMALL
GASTEIGER

@<TRIPOS>ATOM
      1  N         11.8570 -141.4060    9.2120 N.3     1  THR1       -0.1218
      2  CA        11.4690 -140.1590    8.6210 C.3     1  THR1        0.1862
      3  C         11.9200 -140.2800    7.2480 C.2     1  THR1        0.2287
      4  O         13.0010 -140.7260    7.0210 O.2     1  THR1       -0.2866
      5  CB        12.2380 -139.0400    9.2730 C.3     1  THR1        0.1770
      6  OG1       11.6960 -138.8070   10.5490 O.3     1  THR1       -0.2211
      7  CG2       12.0790 -137.7450    8.5450 C.3     1  THR1        0.0375
      8  N          5.1500 -140.0950    9.8740 N.3    19  ARG19      -0.1231
      9  CA         5.2890 -140.9940   11.0160 C.3    19  ARG19       0.1694
     10  C          6.3100 -140.4850   12.0280 C.2    19  ARG19       0.2592
     11  O          7.3720 -139.9810   11.6570 O.2    19  ARG19      -0.2718
     12  CB         5.6780 -142.4010   10.5460 C.3    19  ARG19       0.0321
     13  CG         5.7940 -143.4200   11.6740 C.3    19  ARG19       0.0489
     14  CD         5.8700 -144.8460   11.1560 C.3    19  ARG19       0.2205
     15  NE         4.6200 -145.2790   10.5370 N.pl3  19  ARG19      -0.0865
     16  CZ         4.4070 -146.4900   10.0230 C.cat  19  ARG19       0.5346
     17  NH1        5.3630 -147.4180   10.0490 N.pl3  19  ARG19       0.1354
     18  NH2        3.2280 -146.7790    9.4810 N.pl3  19  ARG19       0.1354
     19  N          5.9720 -140.6190   13.3080 N.am   20  ALA20      -0.1966
     20  CA         6.9190 -140.3920   14.3960 C.3    20  ALA20       0.1728
     21  C          6.8990 -141.5870   15.3330 C.2    20  ALA20       0.2616
     22  O          5.8340 -142.0280   15.7600 O.2    20  ALA20      -0.2715
     23  CB         6.5750 -139.1280   15.1560 C.3    20  ALA20       0.0334
     24  N          8.0830 -142.0970   15.6550 N.am   21  THR21      -0.1951
     25  CA         8.2190 -143.2920   16.4750 C.3    21  THR21       0.1897
     26  C          9.0780 -143.0150   17.7000 C.2    21  THR21       0.2313
     27  O          9.9640 -142.1610   17.6710 O.2    21  THR21      -0.2863
     28  CB         8.8690 -144.4340   15.6700 C.3    21  THR21       0.1794
     29  OG1       10.0890 -143.9680   15.0760 O.3    21  THR21      -0.2208
     30  CG2        7.9350 -144.9100   14.5730 C.3    21  THR21       0.0378
     31  N          1.8350 -136.2120   11.6390 N.3    31  VAL31      -0.1245
     32  CA         2.8550 -135.2730   12.0550 C.3    31  VAL31       0.1561
     33  C          3.3200 -134.4100   10.9080 C.2    31  VAL31       0.2260
     34  O          3.4950 -134.8660    9.8030 O.2    31  VAL31      -0.2867
     35  CB         4.0190 -136.0270   12.7130 C.3    31  VAL31       0.0252
     36  CG1        5.2530 -135.1750   12.8580 C.3    31  VAL31       0.0019
     37  CG2        3.5870 -136.4860   14.0760 C.3    31  VAL31       0.0019
     38  N          5.9660 -132.5410    9.0870 N.3    33  LYS33      -0.1245
     39  CA         7.3990 -132.5060    8.9450 C.3    33  LYS33       0.1561
     40  C          7.8420 -131.4850    7.9430 C.2    33  LYS33       0.2260
     41  O          8.9820 -131.4200    7.6060 O.2    33  LYS33      -0.2867
     42  CB         7.9070 -133.8700    8.5390 C.3    33  LYS33       0.0271
     43  CG         7.9310 -134.8730    9.6660 C.3    33  LYS33       0.0035
     44  CD         8.1610 -136.2630    9.1510 C.3    33  LYS33       0.0206
     45  CE         7.9850 -137.2650   10.2500 C.3    33  LYS33       0.1093
     46  NZ         8.3050 -138.6220    9.7660 N.3    33  LYS33      -0.1314
     47  N         11.6720 -131.3150    8.2850 N.3    45  MET45      -0.1230
     48  CA        12.0970 -131.7840    9.5610 C.3    45  MET45       0.1702
     49  C         12.6230 -133.1840    9.4990 C.2    45  MET45       0.2592
     50  O         11.9600 -134.0470    9.0290 O.2    45  MET45      -0.2718
     51  CB        10.9040 -131.8600   10.4580 C.3    45  MET45       0.0401
     52  CG        10.4210 -130.5640   11.0100 C.3    45  MET45       0.0596
     53  SD         9.3060 -130.7990   12.3870 S.3    45  MET45      -0.1393
     54  CE         9.2120 -132.5490   12.6440 C.3    45  MET45       0.0692
     55  N         13.8150 -133.3970   10.0250 N.am   46  ALA46      -0.1966
     56  CA        14.3770 -134.6970   10.2310 C.3    46  ALA46       0.1728
     57  C         15.2790 -134.5700   11.4180 C.2    46  ALA46       0.2617
     58  O         15.8600 -133.5450   11.6140 O.2    46  ALA46      -0.2715
     59  CB        15.1620 -135.1010    9.0330 C.3    46  ALA46       0.0334
     60  N         15.3840 -135.6020   12.2290 N.am   47  GLY47      -0.1940
     61  CA        16.2760 -135.5720   13.3540 C.3    47  GLY47       0.2014
     62  C         15.5300 -135.3270   14.6190 C.2    47  GLY47       0.2639
     63  O         14.7530 -136.1420   15.0210 O.2    47  GLY47      -0.2714
     64  N         15.7900 -134.1980   15.2550 N.am   48  GLY48      -0.1939
     65  CA        15.0060 -133.7640   16.4140 C.3    48  GLY48       0.2014
     66  C         13.8050 -132.9450   15.9780 C.2    48  GLY48       0.2638
     67  O         13.9570 -131.9470   15.2680 O.2    48  GLY48      -0.2714
     68  N         12.6120 -133.3640   16.3990 N.am   49  ALA49      -0.1977
     69  CA        11.3720 -132.6720   16.0370 C.3    49  ALA49       0.1597
     70  C         11.3110 -131.2650   16.6270 C.2    49  ALA49       0.2287
     71  O         10.9660 -130.3100   15.9340 O.2    49  ALA49      -0.2864
     72  CB        10.1660 -133.4770   16.4930 C.3    49  ALA49       0.0319
     73  N         18.4290 -132.2490   10.5050 N.3    98  GLY98      -0.1225
     74  CA        18.7580 -132.4340    9.0960 C.3    98  GLY98       0.1811
     75  C         17.6070 -131.8740    8.2820 C.2    98  GLY98       0.2280
     76  O         16.5420 -132.4800    8.2160 O.2    98  GLY98      -0.2866
     77  N         16.5260 -136.8630    3.1530 N.3   129  VAL129     -0.1231
     78  CA        16.9870 -137.0120    4.5340 C.3   129  VAL129      0.1692
     79  C         15.9970 -137.8120    5.3760 C.2   129  VAL129      0.2593
     80  O         14.7890 -137.5630    5.3380 O.2   129  VAL129     -0.2718
     81  CB        17.2200 -135.6440    5.2130 C.3   129  VAL129      0.0266
     82  CG1       17.7900 -135.8290    6.6140 C.3   129  VAL129      0.0020
     83  CG2       18.1630 -134.7840    4.3860 C.3   129  VAL129      0.0020
     84  N         16.5320 -138.7600    6.1450 N.am  130  GLY130     -0.1942
     85  CA        15.7430 -139.5860    7.0540 C.3   130  GLY130      0.2014
     86  C         16.1520 -141.0470    7.0100 C.2   130  GLY130      0.2639
     87  O         17.0230 -141.4340    6.2340 O.2   130  GLY130     -0.2714
     88  N         15.5140 -141.8620    7.8450 N.am  131  SER131     -0.1949
     89  CA        15.7610 -143.3070    7.8700 C.3   131  SER131      0.1924
     90  C         15.4120 -143.9890    6.5440 C.2   131  SER131      0.2314
     91  O         16.0050 -145.0130    6.1980 O.2   131  SER131     -0.2863
     92  CB        14.9690 -143.9650    9.0070 C.3   131  SER131      0.2116
     93  OG        13.5980 -143.6040    8.9640 O.3   131  SER131     -0.2180
     94  N         15.6730 -142.4840    3.4890 N.3   133  GLN133     -0.1245
     95  CA        16.2300 -141.6400    2.4280 C.3   133  GLN133      0.1566
     96  C         16.7340 -142.4270    1.2140 C.2   133  GLN133      0.2260
     97  O         16.5370 -142.0000    0.0770 O.2   133  GLN133     -0.2867
     98  CB        17.3550 -140.7530    2.9780 C.3   133  GLN133      0.0367
     99  CG        18.6340 -141.4850    3.3590 C.3   133  GLN133      0.0905
    100  CD        19.6660 -140.5590    3.9730 C.2   133  GLN133      0.2608
    101  OE1       19.3410 -139.7080    4.8040 O.2   133  GLN133     -0.2717
    102  NE2       20.9210 -140.7200    3.5670 N.am  133  GLN133     -0.0878
    103  N         10.1980 -147.1110    9.9470 N.3   170  TYR170     -0.1241
    104  CA         9.9900 -145.8720   10.6910 C.3   170  TYR170      0.1605
    105  C          9.5090 -144.7190    9.8250 C.2   170  TYR170      0.2264
    106  O          9.5500 -143.5900   10.2360 O.2   170  TYR170     -0.2867
    107  CB        11.2620 -145.4650   11.4530 C.3   170  TYR170      0.0534
    108  CG        11.8230 -146.5510   12.3380 C.ar  170  TYR170     -0.0201
    109  CD1       11.0130 -147.2280   13.2160 C.ar  170  TYR170     -0.0009
    110  CD2       13.1440 -146.9220   12.2840 C.ar  170  TYR170     -0.0009
    111  CE1       11.4900 -148.2330   14.0200 C.ar  170  TYR170      0.0417
    112  CE2       13.6200 -147.9380   13.0870 C.ar  170  TYR170      0.0417
    113  CZ        12.7770 -148.5850   13.9560 C.ar  170  TYR170      0.1957
    114  OH        13.2030 -149.5870   14.7880 O.3   170  TYR170     -0.2866
@<TRIPOS>BOND
     1    97    96    2
     2    96    95    1
     3    95    98    1
     4    95    94    1
     5    98    99    1
     6    77    78    1
     7    99   100    1
     8   102   100   am
     9   100   101    2
    10    83    81    1
    11    78    81    1
    12    78    79    1
    13    81    82    1
    14    80    79    2
    15    79    84   am
    16    84    85    1
    17    91    90    2
    18    87    86    2
    19    90    89    1
    20    86    85    1
    21    86    88   am
    22     4     3    2
    23     3     2    1
    24    41    40    2
    25    88    89    1
    26    89    92    1
    27    40    39    1
    28    76    75    2
    29    75    74    1
    30    47    48    1
    31    42    39    1
    32    42    43    1
    33     7     5    1
    34     2     1    1
    35     2     5    1
    36    39    38    1
    37    93    92    1
    38    50    49    2
    39    59    56    1
    40    74    73    1
    41    44    43    1
    42    44    45    1
    43     5     6    1
    44    18    16    1
    45    49    48    1
    46    49    55   am
    47    48    51    1
    48    46    45    1
    49    34    33    2
    50   105   106    2
    51   105   104    1
    52     8     9    1
    53   103   104    1
    54    16    17    1
    55    16    15    2
    56    55    56    1
    57    56    57    1
    58    51    52    1
    59    15    14    1
    60    12     9    1
    61    12    13    1
    62   104   107    1
    63    33    32    1
    64    52    53    1
    65     9    10    1
    66    14    13    1
    67    57    58    2
    68    57    60   am
    69   107   108    1
    70    31    32    1
    71    11    10    2
    72    10    19   am
    73    32    35    1
    74    60    61    1
    75   110   108   ar
    76   110   112   ar
    77   108   109   ar
    78    53    54    1
    79    35    36    1
    80    35    37    1
    81   112   113   ar
    82   109   111   ar
    83    19    20    1
    84    61    62    1
    85   113   111   ar
    86   113   114    1
    87    20    23    1
    88    20    21    1
    89    30    28    1
    90    62    63    2
    91    62    64   am
    92    29    28    1
    93    64    65    1
    94    67    66    2
    95    21    24   am
    96    21    22    2
    97    24    25    1
    98    28    25    1
    99    71    70    2
   100    66    68   am
   101    66    65    1
   102    69    68    1
   103    69    72    1
   104    69    70    1
   105    25    26    1
   106    27    26    2
