@<TRIPOS>MOLECULE
tmp/4z1lN00.pdb
 116 104 0 0 0
SMALL
GASTEIGER

@<TRIPOS>ATOM
      1  N         43.6010 -143.2590   63.1500 N.3     1  THR1       -0.1218
      2  CA        43.4720 -142.1230   64.0090 C.3     1  THR1        0.1862
      3  C         42.5150 -142.5200   65.0170 C.2     1  THR1        0.2287
      4  O         41.3960 -142.8130   64.7170 O.2     1  THR1       -0.2866
      5  CB        42.8830 -140.9640   63.2620 C.3     1  THR1        0.1770
      6  OG1       43.8590 -140.4700   62.3900 O.3     1  THR1       -0.2211
      7  CG2       42.5390 -139.8050   64.1500 C.3     1  THR1        0.0375
      8  N         49.9100 -141.4510   65.4090 N.3    19  ARG19      -0.1231
      9  CA        50.3060 -142.1310   64.1740 C.3    19  ARG19       0.1694
     10  C         49.6570 -141.5080   62.9370 C.2    19  ARG19       0.2593
     11  O         48.4390 -141.3180   62.8860 O.2    19  ARG19      -0.2718
     12  CB        49.9740 -143.6250   64.2360 C.3    19  ARG19       0.0321
     13  CG        50.4330 -144.3940   63.0030 C.3    19  ARG19       0.0489
     14  CD        50.3140 -145.8980   63.1740 C.3    19  ARG19       0.2205
     15  NE        51.3120 -146.4260   64.1010 N.pl3  19  ARG19      -0.0865
     16  CZ        51.4820 -147.7170   64.3780 C.cat  19  ARG19       0.5346
     17  NH1       50.7210 -148.6430   63.8010 N.pl3  19  ARG19       0.1354
     18  NH2       52.4220 -148.0850   65.2380 N.pl3  19  ARG19       0.1354
     19  N         50.4930 -141.1990   61.9480 N.am   20  THR20      -0.1939
     20  CA        50.0460 -140.7410   60.6360 C.3    20  THR20       0.2028
     21  C         50.6180 -141.6940   59.5890 C.2    20  THR20       0.2642
     22  O         51.8380 -141.8570   59.4930 O.2    20  THR20      -0.2714
     23  CB        50.5230 -139.3020   60.3540 C.3    20  THR20       0.1808
     24  OG1       50.0190 -138.4250   61.3690 O.3    20  THR20      -0.2208
     25  CG2       50.0360 -138.8120   59.0000 C.3    20  THR20       0.0379
     26  N         49.7330 -142.3260   58.8140 N.am   21  THR21      -0.1950
     27  CA        50.1370 -143.3460   57.8440 C.3    21  THR21       0.1897
     28  C         49.8770 -142.9370   56.4020 C.2    21  THR21       0.2313
     29  O         48.8610 -142.3130   56.0990 O.2    21  THR21      -0.2863
     30  CB        49.3840 -144.6700   58.0670 C.3    21  THR21       0.1794
     31  OG1       47.9730 -144.4240   58.0640 O.3    21  THR21      -0.2208
     32  CG2       49.7830 -145.3010   59.3840 C.3    21  THR21       0.0378
     33  N         52.9260 -137.5170   65.7330 N.3    31  THR31      -0.1218
     34  CA        52.0220 -136.4510   65.2960 C.3    31  THR31       0.1862
     35  C         51.2190 -135.8630   66.4550 C.2    31  THR31       0.2287
     36  O         50.7960 -136.5870   67.3610 O.2    31  THR31      -0.2866
     37  CB        51.0010 -136.9780   64.2660 C.3    31  THR31       0.1770
     38  OG1       51.6540 -137.8490   63.3360 O.3    31  THR31      -0.2211
     39  CG2       50.3430 -135.8270   63.5120 C.3    31  THR31       0.0375
     40  N         47.7530 -134.3830   67.0970 N.3    33  LYS33      -0.1245
     41  CA        46.4180 -134.2950   66.5020 C.3    33  LYS33       0.1561
     42  C         45.4640 -133.4690   67.3540 C.2    33  LYS33       0.2260
     43  O         44.3060 -133.2690   66.9750 O.2    33  LYS33      -0.2867
     44  CB        45.8430 -135.6960   66.3100 C.3    33  LYS33       0.0271
     45  CG        46.7110 -136.5810   65.4370 C.3    33  LYS33       0.0035
     46  CD        46.1420 -137.9780   65.3130 C.3    33  LYS33       0.0206
     47  CE        47.0680 -138.8570   64.4930 C.3    33  LYS33       0.1093
     48  NZ        46.4810 -140.2010   64.2580 N.3    33  LYS33      -0.1314
     49  N         41.3900 -133.8950   65.3640 N.3    45  ARG45      -0.1231
     50  CA        41.2330 -133.9840   63.9140 C.3    45  ARG45       0.1694
     51  C         41.2660 -135.4300   63.4150 C.2    45  ARG45       0.2593
     52  O         42.0470 -136.2480   63.9070 O.2    45  ARG45      -0.2718
     53  CB        42.3160 -133.1520   63.2270 C.3    45  ARG45       0.0321
     54  CG        42.2020 -131.6660   63.5330 C.3    45  ARG45       0.0489
     55  CD        43.3160 -130.8430   62.9020 C.3    45  ARG45       0.2205
     56  NE        44.6460 -131.2420   63.3710 N.pl3  45  ARG45      -0.0865
     57  CZ        45.5040 -132.0150   62.7020 C.cat  45  ARG45       0.5346
     58  NH1       45.2050 -132.5090   61.5000 N.pl3  45  ARG45       0.1354
     59  NH2       46.6810 -132.2980   63.2440 N.pl3  45  ARG45       0.1354
     60  N         40.3930 -135.7330   62.4510 N.am   46  SER46      -0.1938
     61  CA        40.3860 -137.0280   61.7570 C.3    46  SER46       0.2055
     62  C         39.9940 -136.8560   60.2910 C.2    46  SER46       0.2643
     63  O         39.2440 -135.9450   59.9470 O.2    46  SER46      -0.2714
     64  CB        39.4490 -138.0290   62.4350 C.3    46  SER46       0.2130
     65  OG        38.0870 -137.7170   62.1920 O.3    46  SER46      -0.2179
     66  N         40.5080 -137.7420   59.4410 N.am   47  GLY47      -0.1954
     67  CA        40.2970 -137.6560   57.9960 C.3    47  GLY47       0.1869
     68  C         41.5260 -137.1280   57.2800 C.2    47  GLY47       0.2309
     69  O         42.6510 -137.5040   57.6100 O.2    47  GLY47      -0.2863
     70  N         44.5150 -134.9050   56.5370 N.3    49  ALA49      -0.1245
     71  CA        45.3860 -134.0350   57.3310 C.3    49  ALA49       0.1562
     72  C         45.3980 -132.6220   56.7540 C.2    49  ALA49       0.2260
     73  O         45.3060 -131.6490   57.4960 O.2    49  ALA49      -0.2867
     74  CB        46.8000 -134.5960   57.3900 C.3    49  ALA49       0.0290
     75  N         41.7950 -130.9300   57.4860 N.3    52  THR52      -0.1218
     76  CA        41.5500 -130.6230   58.8950 C.3    52  THR52       0.1862
     77  C         42.4800 -129.5190   59.4110 C.2    52  THR52       0.2287
     78  O         42.0810 -128.7060   60.2520 O.2    52  THR52      -0.2866
     79  CB        41.6850 -131.8800   59.7790 C.3    52  THR52       0.1770
     80  OG1       42.9810 -132.4650   59.5990 O.3    52  THR52      -0.2211
     81  CG2       40.6110 -132.9000   59.4280 C.3    52  THR52       0.0375
     82  N         37.2010 -134.0610   53.4650 N.3    94  THR94      -0.1218
     83  CA        37.1360 -135.2980   54.2300 C.3    94  THR94       0.1862
     84  C         37.6610 -134.9730   55.6220 C.2    94  THR94       0.2287
     85  O         38.8580 -135.0970   55.8920 O.2    94  THR94      -0.2866
     86  CB        37.9690 -136.4190   53.5830 C.3    94  THR94       0.1770
     87  OG1       37.5850 -136.5680   52.2110 O.3    94  THR94      -0.2211
     88  CG2       37.7520 -137.7400   54.3070 C.3    94  THR94       0.0375
     89  N         36.5720 -135.1950   59.9180 N.3    96  GLY96      -0.1225
     90  CA        35.7670 -135.5770   61.0710 C.3    96  GLY96       0.1811
     91  C         36.3970 -134.9500   62.2930 C.2    96  GLY96       0.2280
     92  O         37.4530 -135.3950   62.7420 O.2    96  GLY96      -0.2866
     93  N         31.5730 -136.5660   59.0520 N.3   115  LEU115     -0.1245
     94  CA        31.7880 -136.2690   57.6320 C.3   115  LEU115      0.1561
     95  C         30.7690 -135.3080   57.0130 C.2   115  LEU115      0.2260
     96  O         31.1520 -134.3260   56.3690 O.2   115  LEU115     -0.2867
     97  CB        31.8390 -137.5680   56.8140 C.3   115  LEU115      0.0270
     98  CG        33.2220 -138.0510   56.3580 C.3   115  LEU115      0.0019
     99  CD1       34.2560 -138.0690   57.4830 C.3   115  LEU115      0.0001
    100  CD2       33.0910 -139.4330   55.7320 C.3   115  LEU115      0.0001
    101  N         37.6040 -141.3730   64.4130 N.3   128  GLY128     -0.1210
    102  CA        38.7810 -141.9370   63.7690 C.3   128  GLY128      0.1956
    103  C         38.6110 -143.4260   63.5480 C.2   128  GLY128      0.2612
    104  O         37.7190 -144.0480   64.1230 O.2   128  GLY128     -0.2717
    105  N         39.4780 -143.9950   62.7160 N.am  129  SER129     -0.1952
    106  CA        39.3890 -145.4080   62.3380 C.3   129  SER129      0.1924
    107  C         39.4010 -146.3540   63.5380 C.2   129  SER129      0.2314
    108  O         38.6990 -147.3680   63.5430 O.2   129  SER129     -0.2863
    109  CB        40.5310 -145.7750   61.3850 C.3   129  SER129      0.2116
    110  OG        41.7960 -145.5160   61.9710 O.3   129  SER129     -0.2180
    111  N         46.1970 -148.2700   61.8350 N.3   168  SER168     -0.1217
    112  CA        46.3260 -146.8570   61.4800 C.3   168  SER168      0.1889
    113  C         46.6230 -145.9750   62.6910 C.2   168  SER168      0.2288
    114  O         47.0460 -144.8300   62.5320 O.2   168  SER168     -0.2866
    115  CB        45.0470 -146.3630   60.7940 C.3   168  SER168      0.2089
    116  OG        44.7350 -147.1510   59.6570 O.3   168  SER168     -0.2183
@<TRIPOS>BOND
     1    87    86    1
     2    82    83    1
     3    86    83    1
     4    86    88    1
     5    83    84    1
     6    84    85    2
     7   100    98    1
     8    29    28    2
     9    98    97    1
    10    98    99    1
    11    96    95    2
    12    28    27    1
    13    70    71    1
    14    72    71    1
    15    72    73    2
    16    97    94    1
    17    95    94    1
    18    68    69    2
    19    68    67    1
    20    71    74    1
    21    75    76    1
    22    94    93    1
    23    27    30    1
    24    27    26    1
    25    67    66    1
    26    31    30    1
    27    30    32    1
    28    26    21   am
    29    76    77    1
    30    76    79    1
    31    25    23    1
    32    77    78    2
    33    81    79    1
    34    66    62   am
    35    22    21    2
    36    21    20    1
    37    80    79    1
    38   116   115    1
    39    89    90    1
    40    63    62    2
    41    62    61    1
    42    23    20    1
    43    23    24    1
    44    20    19    1
    45   115   112    1
    46    90    91    1
    47   109   110    1
    48   109   106    1
    49   112   111    1
    50   112   113    1
    51    58    57    1
    52    61    64    1
    53    61    60    1
    54    19    10   am
    55    65    64    1
    56    91    92    2
    57   106   105    1
    58   106   107    1
    59     6     5    1
    60    60    51   am
    61   114   113    2
    62    57    59    1
    63    57    56    2
    64   105   103   am
    65    11    10    2
    66    55    56    1
    67    55    54    1
    68    10     9    1
    69    13    14    1
    70    13    12    1
    71     1     2    1
    72    14    15    1
    73    53    54    1
    74    53    50    1
    75     5     2    1
    76     5     7    1
    77    38    37    1
    78    51    52    2
    79    51    50    1
    80    39    37    1
    81   107   108    2
    82   103   102    1
    83   103   104    2
    84   102   101    1
    85    17    16    1
    86    50    49    1
    87     2     3    1
    88    15    16    2
    89     9    12    1
    90     9     8    1
    91    48    47    1
    92    37    34    1
    93    16    18    1
    94    47    46    1
    95     4     3    2
    96    34    33    1
    97    34    35    1
    98    46    45    1
    99    45    44    1
   100    44    41    1
   101    35    36    2
   102    41    40    1
   103    41    42    1
   104    43    42    2
