@<TRIPOS>MOLECULE
tmp/4z1oB00.pdb
 144 140 0 0 0
SMALL
GASTEIGER

@<TRIPOS>ATOM
      1  N        -15.6030    1.1980   -5.4960 N.3    34  VAL34      -0.1231
      2  CA       -15.2690    0.1530   -6.4540 C.3    34  VAL34       0.1692
      3  C        -14.5510    0.7830   -7.6540 C.2    34  VAL34       0.2592
      4  O        -15.1680    1.5160   -8.4220 O.2    34  VAL34      -0.2718
      5  CB       -16.5120   -0.5940   -6.9350 C.3    34  VAL34       0.0266
      6  CG1      -16.1320   -1.7430   -7.9500 C.3    34  VAL34       0.0020
      7  CG2      -17.2960   -1.1220   -5.7710 C.3    34  VAL34       0.0020
      8  N        -13.2550    0.5170   -7.7950 N.am   35  LEU35      -0.1966
      9  CA       -12.4760    1.0640   -8.9010 C.3    35  LEU35       0.1728
     10  C        -12.8450    0.3500  -10.2110 C.2    35  LEU35       0.2617
     11  O        -13.0910   -0.8560  -10.1950 O.2    35  LEU35      -0.2715
     12  CB       -10.9760    0.9240   -8.6280 C.3    35  LEU35       0.0311
     13  CG       -10.3670    1.5300   -7.3610 C.3    35  LEU35       0.0022
     14  CD1       -8.8800    1.1420   -7.2540 C.3    35  LEU35       0.0001
     15  CD2      -10.5330    3.0370   -7.2820 C.3    35  LEU35       0.0001
     16  N        -12.9110    1.0730  -11.3310 N.am   36  THR36      -0.1937
     17  CA       -12.7070    2.5210  -11.3940 C.3    36  THR36       0.2028
     18  C        -13.9900    3.3320  -11.6100 C.2    36  THR36       0.2642
     19  O        -13.9770    4.5570  -11.4480 O.2    36  THR36      -0.2714
     20  CB       -11.7370    2.9160  -12.5370 C.3    36  THR36       0.1808
     21  OG1      -12.2630    2.4790  -13.8030 O.3    36  THR36      -0.2208
     22  CG2      -10.3480    2.3250  -12.3100 C.3    36  THR36       0.0379
     23  N        -15.0780    2.6690  -12.0090 N.am   37  GLY37      -0.1954
     24  CA       -16.3350    3.3600  -12.2680 C.3    37  GLY37       0.1869
     25  C        -16.9840    3.9700  -11.0200 C.2    37  GLY37       0.2309
     26  O        -17.7700    4.9240  -11.1050 O.2    37  GLY37      -0.2863
     27  N        -10.9840   -3.9540   -8.6590 N.3    59  ILE59      -0.1231
     28  CA       -11.6280   -5.1550   -9.1600 C.3    59  ILE59       0.1692
     29  C        -12.0930   -4.9260  -10.6140 C.2    59  ILE59       0.2592
     30  O        -12.5100   -3.8220  -10.9890 O.2    59  ILE59      -0.2718
     31  CB       -12.8050   -5.5650   -8.2500 C.3    59  ILE59       0.0266
     32  CG1      -13.3620   -6.9290   -8.6490 C.3    59  ILE59       0.0019
     33  CG2      -13.8830   -4.4690   -8.2360 C.3    59  ILE59       0.0020
     34  CD1      -14.5700   -7.3830   -7.8160 C.3    59  ILE59       0.0001
     35  N        -11.9940   -5.9600  -11.4400 N.am   60  LYS60      -0.1966
     36  CA       -12.3480   -5.8130  -12.8510 C.3    60  LYS60       0.1728
     37  C        -13.1170   -7.0030  -13.3830 C.2    60  LYS60       0.2616
     38  O        -12.7370   -8.1590  -13.1240 O.2    60  LYS60      -0.2715
     39  CB       -11.0950   -5.6200  -13.6860 C.3    60  LYS60       0.0311
     40  CG       -10.8750   -4.2170  -14.1830 C.3    60  LYS60       0.0038
     41  CD       -11.8510   -3.8300  -15.2750 C.3    60  LYS60       0.0206
     42  CE       -11.6530   -4.6330  -16.5570 C.3    60  LYS60       0.1093
     43  NZ       -12.6150   -4.2290  -17.6500 N.3    60  LYS60      -0.1314
     44  N        -14.1880   -6.7140  -14.1260 N.am   61  PHE61      -0.1974
     45  CA       -14.9370   -7.7350  -14.8600 C.3    61  PHE61       0.1639
     46  C        -14.5170   -7.7340  -16.3450 C.2    61  PHE61       0.2290
     47  O        -15.0510   -6.9590  -17.1640 O.2    61  PHE61      -0.2864
     48  CB       -16.4390   -7.5010  -14.7890 C.3    61  PHE61       0.0560
     49  CG       -17.2630   -8.7560  -14.9240 C.ar   61  PHE61      -0.0200
     50  CD1      -18.5050   -8.8600  -14.3190 C.ar   61  PHE61      -0.0042
     51  CD2      -16.7460   -9.8700  -15.5870 C.ar   61  PHE61      -0.0042
     52  CE1      -19.2550  -10.0290  -14.4520 C.ar   61  PHE61      -0.0003
     53  CE2      -17.4810  -11.0410  -15.7090 C.ar   61  PHE61      -0.0003
     54  CZ       -18.7370  -11.1110  -15.1380 C.ar   61  PHE61      -0.0000
     55  N         -7.8700   -7.3300   -8.1770 N.3    75  ARG75      -0.1245
     56  CA        -6.4720   -7.1960   -8.5280 C.3    75  ARG75       0.1563
     57  C         -5.6880   -6.5720   -7.3840 C.2    75  ARG75       0.2260
     58  O         -4.4930   -6.8040   -7.2500 O.2    75  ARG75      -0.2867
     59  CB        -6.3420   -6.3810   -9.8130 C.3    75  ARG75       0.0307
     60  CG        -7.3700   -6.8390  -10.8680 C.3    75  ARG75       0.0489
     61  CD        -7.1430   -6.2160  -12.2150 C.3    75  ARG75       0.2205
     62  NE        -7.5370   -4.8130  -12.2540 N.pl3  75  ARG75      -0.0865
     63  CZ        -7.6300   -4.0970  -13.3720 C.cat  75  ARG75       0.5346
     64  NH1       -7.3710   -4.6620  -14.5580 N.pl3  75  ARG75       0.1354
     65  NH2       -7.9970   -2.8220  -13.3090 N.pl3  75  ARG75       0.1354
     66  N        -20.5020    2.0040   -6.1620 N.3    91  ASP91      -0.1225
     67  CA       -20.1810    1.7150   -7.5540 C.3    91  ASP91       0.1805
     68  C        -21.0810    2.5220   -8.5050 C.2    91  ASP91       0.2598
     69  O        -22.0410    3.1610   -8.0660 O.2    91  ASP91      -0.2718
     70  CB       -20.3210    0.2230   -7.8370 C.3    91  ASP91       0.1424
     71  CG       -19.4080   -0.2450   -8.9580 C.2    91  ASP91       0.3668
     72  OD1      -18.8400    0.6190   -9.6760 O.co2  91  ASP91      -0.2456
     73  OD2      -19.2750   -1.4760   -9.1290 O.co2  91  ASP91      -0.2456
     74  N        -20.7750    2.5210   -9.8010 N.am   92  ASP92      -0.1960
     75  CA       -21.5980    3.3150  -10.7080 C.3    92  ASP92       0.1840
     76  C        -22.8220    2.5430  -11.2280 C.2    92  ASP92       0.2622
     77  O        -23.9270    3.0860  -11.2440 O.2    92  ASP92      -0.2715
     78  CB       -20.7710    3.8950  -11.8820 C.3    92  ASP92       0.1450
     79  CG       -19.9230    2.8610  -12.6380 C.2    92  ASP92       0.3671
     80  OD1      -19.9610    1.6490  -12.3550 O.co2  92  ASP92      -0.2456
     81  OD2      -19.2080    3.3030  -13.5620 O.co2  92  ASP92      -0.2456
     82  N        -22.6380    1.2850  -11.6220 N.am   93  VAL93      -0.1963
     83  CA       -23.7580    0.4850  -12.1160 C.3    93  VAL93       0.1727
     84  C        -23.6690   -0.9570  -11.6300 C.2    93  VAL93       0.2616
     85  O        -22.5970   -1.5620  -11.6500 O.2    93  VAL93      -0.2715
     86  CB       -23.8410    0.5000  -13.6780 C.3    93  VAL93       0.0290
     87  CG1      -22.4980    0.1300  -14.3370 C.3    93  VAL93       0.0023
     88  CG2      -24.9690   -0.4080  -14.1720 C.3    93  VAL93       0.0023
     89  N        -24.7870   -1.5040  -11.1660 N.am   94  ALA94      -0.1963
     90  CA       -24.8550   -2.9450  -10.9620 C.3    94  ALA94       0.1728
     91  C        -25.5310   -3.5500  -12.1960 C.2    94  ALA94       0.2616
     92  O        -26.6520   -3.1830  -12.5400 O.2    94  ALA94      -0.2715
     93  CB       -25.6140   -3.2950   -9.6720 C.3    94  ALA94       0.0334
     94  N        -24.8150   -4.4360  -12.8810 N.am   95  ASP95      -0.1957
     95  CA       -25.3160   -5.0850  -14.0820 C.3    95  ASP95       0.1840
     96  C        -25.8120   -6.4690  -13.6970 C.2    95  ASP95       0.2623
     97  O        -26.9920   -6.6390  -13.4040 O.2    95  ASP95      -0.2715
     98  CB       -24.2260   -5.1560  -15.1540 C.3    95  ASP95       0.1450
     99  CG       -24.7330   -5.7030  -16.4700 C.2    95  ASP95       0.3671
    100  OD1      -25.9170   -5.4990  -16.7960 O.co2  95  ASP95      -0.2456
    101  OD2      -23.9410   -6.3510  -17.1830 O.co2  95  ASP95      -0.2456
    102  N        -24.9130   -7.4500  -13.6660 N.am   96  THR96      -0.1937
    103  CA       -25.2670   -8.7650  -13.1330 C.3    96  THR96       0.2028
    104  C        -25.2650   -8.7730  -11.6130 C.2    96  THR96       0.2643
    105  O        -25.8900   -9.6370  -10.9950 O.2    96  THR96      -0.2714
    106  CB       -24.3090   -9.8610  -13.5960 C.3    96  THR96       0.1808
    107  OG1      -23.0190   -9.6400  -13.0040 O.3    96  THR96      -0.2208
    108  CG2      -24.1940   -9.8570  -15.1080 C.3    96  THR96       0.0379
    109  N        -24.5500   -7.8190  -11.0130 N.am   97  GLY97      -0.1939
    110  CA       -24.3880   -7.7920   -9.5710 C.3    97  GLY97       0.2014
    111  C        -23.2130   -8.6350   -9.0940 C.2    97  GLY97       0.2639
    112  O        -22.9300   -8.7120   -7.9040 O.2    97  GLY97      -0.2714
    113  N        -22.5110   -9.2610  -10.0260 N.am   98  GLU98      -0.1963
    114  CA       -21.3560  -10.0650   -9.6570 C.3    98  GLU98       0.1733
    115  C        -20.2540   -9.2610   -8.9500 C.2    98  GLU98       0.2617
    116  O        -19.5700   -9.7940   -8.1000 O.2    98  GLU98      -0.2715
    117  CB       -20.7780  -10.7590  -10.8960 C.3    98  GLU98       0.0429
    118  CG       -21.6260  -11.9340  -11.3800 C.3    98  GLU98       0.1163
    119  CD       -21.7330  -13.0310  -10.3250 C.2    98  GLU98       0.3649
    120  OE1      -20.8150  -13.1400   -9.4800 O.co2  98  GLU98      -0.2457
    121  OE2      -22.7310  -13.7810  -10.3360 O.co2  98  GLU98      -0.2457
    122  N        -20.0800   -7.9920   -9.3180 N.am   99  THR99      -0.1937
    123  CA       -19.0260   -7.1430   -8.7480 C.3    99  THR99       0.2028
    124  C        -19.3690   -6.7290   -7.3090 C.2    99  THR99       0.2642
    125  O        -18.5600   -6.8970   -6.3980 O.2    99  THR99      -0.2714
    126  CB       -18.7880   -5.8670   -9.6160 C.3    99  THR99       0.1808
    127  OG1      -18.1880   -6.2400  -10.8620 O.3    99  THR99      -0.2208
    128  CG2      -17.8750   -4.8610   -8.9080 C.3    99  THR99       0.0379
    129  N        -20.5740   -6.2050   -7.1200 N.am  100  LEU100     -0.1977
    130  CA       -21.0510   -5.8190   -5.7930 C.3   100  LEU100      0.1596
    131  C        -20.9540   -6.9950   -4.8200 C.2   100  LEU100      0.2287
    132  O        -20.5230   -6.8310   -3.6850 O.2   100  LEU100     -0.2864
    133  CB       -22.4930   -5.2990   -5.8590 C.3   100  LEU100      0.0297
    134  CG       -22.6650   -3.8190   -6.2050 C.3   100  LEU100      0.0022
    135  CD1      -24.1130   -3.3300   -6.0260 C.3   100  LEU100      0.0001
    136  CD2      -21.6980   -2.9650   -5.3890 C.3   100  LEU100      0.0001
    137  N        -16.7830    7.0650  -18.7060 N.3   146  ASP146     -0.1239
    138  CA       -16.3580    6.0150  -19.6430 C.3   146  ASP146      0.1674
    139  C        -16.8440    6.2500  -21.0790 C.2   146  ASP146      0.2266
    140  O        -16.8710    5.3220  -21.8850 O.2   146  ASP146     -0.2867
    141  CB       -16.8100    4.6190  -19.1580 C.3   146  ASP146      0.1410
    142  CG       -18.3290    4.4830  -19.0150 C.2   146  ASP146      0.3668
    143  OD1      -19.0910    5.1180  -19.7850 O.co2 146  ASP146     -0.2456
    144  OD2      -18.7600    3.6960  -18.1350 O.co2 146  ASP146     -0.2456
@<TRIPOS>BOND
     1   140   139    2
     2   139   138    1
     3   143   142   ar
     4   138   141    1
     5   138   137    1
     6   141   142    1
     7   142   144   ar
     8    43    42    1
     9   101    99   ar
    10    47    46    2
    11   100    99   ar
    12    42    41    1
    13    99    98    1
    14    46    45    1
    15    53    51   ar
    16    53    54   ar
    17    51    49   ar
    18    41    40    1
    19    98    95    1
    20    54    52   ar
    21   108   106    1
    22    49    48    1
    23    49    50   ar
    24    45    48    1
    25    45    44    1
    26    64    63    1
    27    52    50   ar
    28    87    86    1
    29    40    39    1
    30    88    86    1
    31    44    37   am
    32    95    96    1
    33    95    94    1
    34    21    20    1
    35    96   102   am
    36    96    97    2
    37    39    36    1
    38    86    83    1
    39   102   103    1
    40   106   103    1
    41   106   107    1
    42    81    79   ar
    43    37    38    2
    44    37    36    1
    45    63    65    1
    46    63    62    2
    47   103   104    1
    48    94    91   am
    49    36    35    1
    50    79    80   ar
    51    79    78    1
    52    92    91    2
    53    20    22    1
    54    20    17    1
    55    24    23    1
    56    24    25    1
    57    62    61    1
    58    61    60    1
    59    91    90    1
    60    83    84    1
    61    83    82    1
    62    23    18   am
    63    78    75    1
    64    85    84    2
    65    84    89   am
    66    82    76   am
    67   104   109   am
    68   104   105    2
    69    18    19    2
    70    18    17    1
    71    35    29   am
    72    17    16    1
    73   118   117    1
    74   118   119    1
    75    16    10   am
    76    77    76    2
    77    76    75    1
    78    89    90    1
    79    26    25    2
    80   109   110    1
    81    30    29    2
    82    90    93    1
    83   117   114    1
    84    60    59    1
    85   127   126    1
    86    75    74    1
    87    29    28    1
    88   121   119   ar
    89   119   120   ar
    90    10    11    2
    91    10     9    1
    92   113   114    1
    93   113   111   am
    94    59    56    1
    95    74    68   am
    96    72    71   ar
    97   114   115    1
    98   126   128    1
    99   126   123    1
   100   110   111    1
   101   122   115   am
   102   122   123    1
   103    28    27    1
   104    28    31    1
   105    73    71   ar
   106   111   112    2
   107    71    70    1
   108   115   116    2
   109     9    12    1
   110     9     8    1
   111   123   124    1
   112    32    31    1
   113    32    34    1
   114    12    13    1
   115    56    55    1
   116    56    57    1
   117    68    69    2
   118    68    67    1
   119     4     3    2
   120    31    33    1
   121     6     5    1
   122    70    67    1
   123     8     3   am
   124     3     2    1
   125    67    66    1
   126    57    58    2
   127    13    15    1
   128    13    14    1
   129   124   129   am
   130   124   125    2
   131   129   130    1
   132     5     2    1
   133     5     7    1
   134     2     1    1
   135   134   135    1
   136   134   133    1
   137   134   136    1
   138   133   130    1
   139   130   131    1
   140   131   132    2
