@<TRIPOS>MOLECULE
tmp/4z1sB00.pdb
 143 139 0 0 0
SMALL
GASTEIGER

@<TRIPOS>ATOM
      1  N        -35.4100  -33.4650  183.4750 N.3    41  TRP41      -0.1228
      2  CA       -35.0850  -34.8700  183.3300 C.3    41  TRP41       0.1722
      3  C        -35.9560  -35.6840  182.3750 C.2    41  TRP41       0.2437
      4  O        -35.4540  -36.4960  181.6180 O.2    41  TRP41      -0.2733
      5  CB       -34.8910  -35.5580  184.7130 C.3    41  TRP41       0.0563
      6  CG       -36.1140  -35.5490  185.5470 C.ar   41  TRP41       0.0003
      7  CD1      -36.5390  -34.5160  186.3850 C.ar   41  TRP41       0.0946
      8  CD2      -37.0890  -36.5740  185.6800 C.ar   41  TRP41       0.0152
      9  NE1      -37.7050  -34.8430  186.9520 N.ar   41  TRP41      -0.2442
     10  CE2      -38.0970  -36.0920  186.5980 C.ar   41  TRP41       0.0810
     11  CE3      -37.2460  -37.8410  185.1380 C.ar   41  TRP41       0.0012
     12  CZ2      -39.2570  -36.8300  186.8840 C.ar   41  TRP41       0.0191
     13  CZ3      -38.4190  -38.5780  185.4410 C.ar   41  TRP41       0.0001
     14  CH2      -39.3640  -38.1070  186.2730 C.ar   41  TRP41       0.0015
     15  N        -37.3230  -35.4570  182.3500 N.am   42  PRO42      -0.2718
     16  CA       -38.0870  -36.2990  181.4110 C.3    42  PRO42       0.1535
     17  C        -37.8620  -35.9750  179.9040 C.2    42  PRO42       0.2598
     18  O        -38.3050  -36.7210  179.0480 O.2    42  PRO42      -0.2715
     19  CB       -39.5890  -35.9960  181.7670 C.3    42  PRO42       0.0310
     20  CG       -39.5060  -35.4500  183.1550 C.3    42  PRO42       0.0237
     21  CD       -38.1970  -34.6360  183.1900 C.3    42  PRO42       0.0939
     22  N        -37.2340  -34.8230  179.6750 N.am   43  PHE43      -0.1974
     23  CA       -37.0140  -34.2580  178.3640 C.3    43  PHE43       0.1639
     24  C        -35.5710  -34.3830  177.8930 C.2    43  PHE43       0.2290
     25  O        -35.2440  -33.9540  176.7720 O.2    43  PHE43      -0.2864
     26  CB       -37.3820  -32.7540  178.3810 C.3    43  PHE43       0.0560
     27  CG       -38.7900  -32.5030  178.8190 C.ar   43  PHE43      -0.0200
     28  CD1      -39.8500  -32.6030  177.9050 C.ar   43  PHE43      -0.0042
     29  CD2      -39.0740  -32.1420  180.1690 C.ar   43  PHE43      -0.0042
     30  CE1      -41.1280  -32.4180  178.3230 C.ar   43  PHE43      -0.0003
     31  CE2      -40.3860  -31.9770  180.5950 C.ar   43  PHE43      -0.0003
     32  CZ       -41.3950  -32.1030  179.6770 C.ar   43  PHE43      -0.0000
     33  N        -33.9540  -37.0690  176.9690 N.3    45  GLN45      -0.1245
     34  CA       -33.7570  -38.1550  176.0180 C.3    45  GLN45       0.1566
     35  C        -35.0680  -38.4950  175.4250 C.2    45  GLN45       0.2260
     36  O        -36.1340  -38.1140  176.0030 O.2    45  GLN45      -0.2867
     37  CB       -33.1260  -39.4040  176.7090 C.3    45  GLN45       0.0367
     38  CG       -33.9480  -39.8740  177.9070 C.3    45  GLN45       0.0905
     39  CD       -33.8850  -39.0670  179.1640 C.2    45  GLN45       0.2608
     40  OE1      -32.7810  -38.6780  179.6000 O.2    45  GLN45      -0.2717
     41  NE2      -35.0460  -38.6580  179.6880 N.am   45  GLN45      -0.0878
     42  N        -38.5720  -40.2790  174.6770 N.3    47  VAL47      -0.1231
     43  CA       -39.5040  -40.9940  175.5220 C.3    47  VAL47       0.1692
     44  C        -39.2700  -42.5160  175.2320 C.2    47  VAL47       0.2592
     45  O        -39.4790  -42.9760  174.1110 O.2    47  VAL47      -0.2718
     46  CB       -40.9440  -40.6010  175.2810 C.3    47  VAL47       0.0266
     47  CG1      -41.8590  -41.4420  176.0780 C.3    47  VAL47       0.0020
     48  CG2      -41.0910  -39.1110  175.6130 C.3    47  VAL47       0.0020
     49  N        -38.9110  -43.2920  176.2180 N.am   48  ASP48      -0.1974
     50  CA       -38.7170  -44.7340  176.0930 C.3    48  ASP48       0.1709
     51  C        -40.0520  -45.4220  176.3940 C.2    48  ASP48       0.2293
     52  O        -40.3490  -45.7860  177.5180 O.2    48  ASP48      -0.2864
     53  CB       -37.5670  -45.2280  177.0060 C.3    48  ASP48       0.1436
     54  CG       -37.1690  -46.6690  176.7700 C.2    48  ASP48       0.3671
     55  OD1      -37.9630  -47.3700  176.1480 O.co2  48  ASP48      -0.2456
     56  OD2      -36.0400  -47.0680  177.1930 O.co2  48  ASP48      -0.2456
     57  N        -39.8650  -49.0860  177.7050 N.3    51  LYS51      -0.1231
     58  CA       -39.5270  -49.2130  179.0930 C.3    51  LYS51       0.1693
     59  C        -40.6300  -48.8090  180.0150 C.2    51  LYS51       0.2591
     60  O        -40.7820  -49.4030  181.1370 O.2    51  LYS51      -0.2718
     61  CB       -38.3690  -48.3480  179.4080 C.3    51  LYS51       0.0285
     62  CG       -37.9630  -48.5070  180.8420 C.3    51  LYS51       0.0035
     63  CD       -36.6680  -49.0950  181.0920 C.3    51  LYS51       0.0206
     64  CE       -35.7700  -47.9230  181.1900 C.3    51  LYS51       0.1093
     65  NZ       -35.4110  -47.7390  182.6190 N.3    51  LYS51      -0.1314
     66  N        -41.3140  -47.7130  179.6540 N.am   52  LEU52      -0.1980
     67  CA       -42.3870  -47.1630  180.3850 C.3    52  LEU52       0.1596
     68  C        -43.7250  -47.9010  180.2480 C.2    52  LEU52       0.2287
     69  O        -44.6820  -47.5800  180.9190 O.2    52  LEU52      -0.2864
     70  CB       -42.6100  -45.7140  179.9850 C.3    52  LEU52       0.0297
     71  CG       -41.4220  -44.7650  180.3630 C.3    52  LEU52       0.0022
     72  CD1      -41.7680  -43.3300  179.9180 C.3    52  LEU52       0.0001
     73  CD2      -41.1430  -44.7520  181.8810 C.3    52  LEU52       0.0001
     74  N        -45.8370  -47.8760  177.6260 N.3    54  LEU54      -0.1245
     75  CA       -46.7690  -46.9130  177.0430 C.3    54  LEU54       0.1561
     76  C        -46.8760  -47.0640  175.5360 C.2    54  LEU54       0.2260
     77  O        -46.3890  -46.2260  174.7460 O.2    54  LEU54      -0.2867
     78  CB       -46.3910  -45.4800  177.4230 C.3    54  LEU54       0.0270
     79  CG       -46.5320  -45.1410  178.9190 C.3    54  LEU54       0.0019
     80  CD1      -46.0490  -43.7360  179.2080 C.3    54  LEU54       0.0001
     81  CD2      -47.9850  -45.3570  179.4420 C.3    54  LEU54       0.0001
     82  N        -47.7640  -44.0760  173.0370 N.3    57  TYR57      -0.1241
     83  CA       -47.0480  -42.8400  172.8720 C.3    57  TYR57       0.1605
     84  C        -46.7410  -42.4900  171.4070 C.2    57  TYR57       0.2264
     85  O        -47.0400  -41.4610  170.9550 O.2    57  TYR57      -0.2867
     86  CB       -45.8380  -42.7930  173.7910 C.3    57  TYR57       0.0534
     87  CG       -45.1490  -41.3950  173.7380 C.ar   57  TYR57      -0.0201
     88  CD1      -45.5470  -40.3590  174.6140 C.ar   57  TYR57      -0.0009
     89  CD2      -44.2110  -41.0720  172.8180 C.ar   57  TYR57      -0.0009
     90  CE1      -45.0620  -39.1480  174.5400 C.ar   57  TYR57       0.0417
     91  CE2      -43.6820  -39.8530  172.7220 C.ar   57  TYR57       0.0417
     92  CZ       -44.0830  -38.8430  173.6120 C.ar   57  TYR57       0.1957
     93  OH       -43.5640  -37.6160  173.4330 O.3    57  TYR57      -0.2866
     94  N        -45.6310  -32.8180  174.4540 N.3    96  CYS96      -0.1235
     95  CA       -46.0530  -33.0460  175.8230 C.3    96  CYS96       0.1677
     96  C        -47.5060  -32.6560  176.0520 C.2    96  CYS96       0.2270
     97  O        -48.3230  -33.3920  176.6730 O.2    96  CYS96      -0.2867
     98  CB       -45.1190  -32.3070  176.7760 C.3    96  CYS96       0.0956
     99  SG       -45.3860  -32.6560  178.5150 S.3    96  CYS96      -0.0801
    100  N        -49.8120  -35.3520  174.1320 N.3    99  TYR99      -0.1227
    101  CA       -49.9450  -36.6330  174.7160 C.3    99  TYR99       0.1736
    102  C        -50.7630  -36.6370  176.0300 C.2    99  TYR99       0.2595
    103  O        -51.4830  -37.5620  176.2920 O.2    99  TYR99      -0.2718
    104  CB       -48.5340  -37.3110  174.9330 C.3    99  TYR99       0.0548
    105  CG       -48.6260  -38.6620  175.4730 C.ar   99  TYR99      -0.0200
    106  CD1      -49.2070  -39.7030  174.7450 C.ar   99  TYR99      -0.0009
    107  CD2      -48.2060  -38.9270  176.7960 C.ar   99  TYR99      -0.0009
    108  CE1      -49.3310  -41.0000  175.2770 C.ar   99  TYR99       0.0417
    109  CE2      -48.2910  -40.2110  177.2700 C.ar   99  TYR99       0.0417
    110  CZ       -48.8710  -41.2550  176.5190 C.ar   99  TYR99       0.1957
    111  OH       -48.9430  -42.5210  177.0750 O.3    99  TYR99      -0.2866
    112  N        -50.5070  -35.6120  176.8040 N.am  100  ASN100     -0.1974
    113  CA       -51.1030  -35.4630  178.1330 C.3   100  ASN100      0.1688
    114  C        -52.3310  -34.5740  178.1190 C.2   100  ASN100      0.2292
    115  O        -52.8940  -34.3400  177.0370 O.2   100  ASN100     -0.2864
    116  CB       -50.0120  -34.9810  179.1070 C.3   100  ASN100      0.1181
    117  CG       -48.8270  -35.9670  179.1500 C.2   100  ASN100      0.2629
    118  OD1      -48.8900  -37.0550  179.7310 O.2   100  ASN100     -0.2716
    119  ND2      -47.7630  -35.5770  178.4420 N.am  100  ASN100     -0.0877
    120  N        -49.2800  -33.0250  185.7970 N.3   105  ASP105     -0.1225
    121  CA       -47.9930  -32.6250  186.3520 C.3   105  ASP105      0.1805
    122  C        -46.9100  -32.3990  185.3110 C.2   105  ASP105      0.2597
    123  O        -46.2180  -31.4000  185.3130 O.2   105  ASP105     -0.2718
    124  CB       -47.5600  -33.7380  187.3440 C.3   105  ASP105      0.1424
    125  CG       -48.6600  -34.0290  188.3510 C.2   105  ASP105      0.3668
    126  OD1      -48.7030  -33.2910  189.3280 O.co2 105  ASP105     -0.2456
    127  OD2      -49.4920  -34.9480  188.2460 O.co2 105  ASP105     -0.2456
    128  N        -46.8130  -33.3210  184.3380 N.am  106  ILE106     -0.1980
    129  CA       -45.7500  -33.1990  183.3190 C.3   106  ILE106      0.1595
    130  C        -46.0490  -31.9650  182.4220 C.2   106  ILE106      0.2287
    131  O        -45.1200  -31.3240  181.8960 O.2   106  ILE106     -0.2864
    132  CB       -45.5620  -34.4950  182.5120 C.3   106  ILE106      0.0276
    133  CG1      -44.3060  -34.4500  181.6330 C.3   106  ILE106      0.0022
    134  CG2      -46.7360  -34.8450  181.6230 C.3   106  ILE106      0.0022
    135  CD1      -43.0460  -34.0270  182.3140 C.3   106  ILE106      0.0001
    136  N        -44.8240  -28.9380  184.1790 N.3   109  MET109     -0.1245
    137  CA       -43.3650  -28.9260  184.0420 C.3   109  MET109      0.1570
    138  C        -42.8850  -28.4370  182.6860 C.2   109  MET109      0.2261
    139  O        -42.0170  -27.5130  182.6100 O.2   109  MET109     -0.2867
    140  CB       -42.8360  -30.3270  184.2600 C.3   109  MET109      0.0387
    141  CG       -42.9450  -30.8010  185.7320 C.3   109  MET109      0.0595
    142  SD       -42.6950  -32.6000  185.9210 S.3   109  MET109     -0.1393
    143  CE       -40.8970  -32.7310  185.6570 C.3   109  MET109      0.0692
@<TRIPOS>BOND
     1    85    84    2
     2    84    83    1
     3    91    89   ar
     4    91    92   ar
     5    89    87   ar
     6    83    82    1
     7    83    86    1
     8    93    92    1
     9    92    90   ar
    10    87    86    1
    11    87    88   ar
    12    45    44    2
    13   100   101    1
    14    94    95    1
    15    90    88   ar
    16    42    43    1
    17   101   104    1
    18   101   102    1
    19   106   108   ar
    20   106   105   ar
    21    77    76    2
    22   104   105    1
    23    44    43    1
    24    44    49   am
    25   108   110   ar
    26    46    43    1
    27    46    48    1
    28    46    47    1
    29    35    36    2
    30    35    34    1
    31   105   107   ar
    32    76    75    1
    33    95    96    1
    34    95    98    1
    35    34    37    1
    36    34    33    1
    37   102   103    2
    38   102   112   am
    39    96    97    2
    40    50    49    1
    41    50    51    1
    42    50    53    1
    43    55    54   ar
    44    51    52    2
    45   110   111    1
    46   110   109   ar
    47    37    38    1
    48    54    53    1
    49    54    56   ar
    50    25    24    2
    51    98    99    1
    52   107   109   ar
    53   112   113    1
    54   115   114    2
    55    75    78    1
    56    75    74    1
    57    78    79    1
    58    57    58    1
    59    24    23    1
    60    28    30   ar
    61    28    27   ar
    62    38    39    1
    63   114   113    1
    64   113   116    1
    65    30    32   ar
    66    23    26    1
    67    23    22    1
    68    26    27    1
    69   119   117   am
    70    27    29   ar
    71    79    80    1
    72    79    81    1
    73    18    17    2
    74    58    61    1
    75    58    59    1
    76   116   117    1
    77   117   118    2
    78    39    40    2
    79    39    41   am
    80    61    62    1
    81    66    59   am
    82    66    67    1
    83    22    17   am
    84    32    31   ar
    85    17    16    1
    86    72    71    1
    87    70    71    1
    88    70    67    1
    89    59    60    2
    90    29    31   ar
    91    68    67    1
    92    68    69    2
    93    71    73    1
    94    62    63    1
    95    63    64    1
    96    64    65    1
    97    16    19    1
    98    16    15    1
    99     4     3    2
   100   134   132    1
   101   133   135    1
   102   133   132    1
   103    19    20    1
   104   131   130    2
   105    15     3   am
   106    15    21    1
   107     3     2    1
   108   130   129    1
   109   132   129    1
   110   139   138    2
   111   138   137    1
   112    20    21    1
   113   129   128    1
   114     2     1    1
   115     2     5    1
   116   137   136    1
   117   137   140    1
   118   140   141    1
   119   128   122   am
   120     5     6    1
   121    11    13   ar
   122    11     8   ar
   123   122   123    2
   124   122   121    1
   125    13    14   ar
   126     6     8   ar
   127     6     7   ar
   128   143   142    1
   129     8    10   ar
   130   141   142    1
   131   120   121    1
   132    14    12   ar
   133   121   124    1
   134     7     9   ar
   135    10    12   ar
   136    10     9   ar
   137   124   125    1
   138   127   125   ar
   139   125   126   ar
