@<TRIPOS>MOLECULE
tmp/4z1yA00.pdb
 130 122 0 0 0
SMALL
GASTEIGER

@<TRIPOS>ATOM
      1  N         47.1050  -39.8720  -10.4640 N.3    39  SER39      -0.1202
      2  CA        46.5120  -39.2780  -11.6560 C.3    39  SER39       0.2020
      3  C         46.2690  -37.7950  -11.3960 C.2    39  SER39       0.2619
      4  O         45.8820  -37.4030  -10.2950 O.2    39  SER39      -0.2717
      5  CB        45.2590  -40.0500  -12.0730 C.3    39  SER39       0.2103
      6  OG        45.5820  -41.3710  -12.4700 O.3    39  SER39      -0.2182
      7  N         46.4990  -36.9750  -12.4160 N.am   40  GLY40      -0.1956
      8  CA        46.9560  -37.4670  -13.7030 C.3    40  GLY40       0.1869
      9  C         46.2870  -36.8370  -14.9090 C.2    40  GLY40       0.2309
     10  O         45.0710  -36.9300  -15.0760 O.2    40  GLY40      -0.2863
     11  N         34.6760  -27.2510   -5.9230 N.3   155  HIS155     -0.1241
     12  CA        33.8160  -28.1920   -5.2160 C.3   155  HIS155      0.1621
     13  C         32.8090  -27.4640   -4.3320 C.2   155  HIS155      0.2264
     14  O         32.3060  -28.0230   -3.3580 O.2   155  HIS155     -0.2867
     15  CB        34.6540  -29.1540   -4.3730 C.3   155  HIS155      0.0745
     16  CG        36.0750  -29.2770   -4.8300 C.ar  155  HIS155      0.0817
     17  ND1       37.1250  -28.6800   -4.1650 N.ar  155  HIS155     -0.2268
     18  CD2       36.6190  -29.9280   -5.8840 C.ar  155  HIS155      0.1154
     19  CE1       38.2540  -28.9580   -4.7910 C.ar  155  HIS155      0.1986
     20  NE2       37.9750  -29.7140   -5.8380 N.ar  155  HIS155     -0.2212
     21  N         40.0000  -22.5960   -2.8600 N.3   163  GLN163     -0.1231
     22  CA        39.8880  -24.0410   -3.0180 C.3   163  GLN163      0.1698
     23  C         40.1160  -24.9030   -1.7560 C.2   163  GLN163      0.2592
     24  O         39.2490  -25.7190   -1.4510 O.2   163  GLN163     -0.2718
     25  CB        40.8090  -24.5150   -4.1430 C.3   163  GLN163      0.0381
     26  CG        40.2560  -25.7000   -4.9110 C.3   163  GLN163      0.0905
     27  CD        40.8080  -25.7200   -6.3010 C.2   163  GLN163      0.2608
     28  OE1       40.2530  -25.1110   -7.2260 O.2   163  GLN163     -0.2717
     29  NE2       41.9300  -26.3950   -6.4670 N.am  163  GLN163     -0.0878
     30  N         41.2770  -24.8140   -1.0840 N.am  164  GLU164     -0.1979
     31  CA        41.5060  -25.6880    0.0650 C.3   164  GLU164      0.1602
     32  C         42.2200  -25.0190    1.2270 C.2   164  GLU164      0.2287
     33  O         43.1590  -24.2360    1.0520 O.2   164  GLU164     -0.2864
     34  CB        42.2080  -27.0000   -0.3330 C.3   164  GLU164      0.0415
     35  CG        43.2670  -26.8390   -1.4060 C.3   164  GLU164      0.1163
     36  CD        43.8300  -28.1130   -1.9970 C.2   164  GLU164      0.3649
     37  OE1       44.4360  -28.9060   -1.2390 O.co2 164  GLU164     -0.2457
     38  OE2       43.7400  -28.2760   -3.2350 O.co2 164  GLU164     -0.2457
     39  N         39.4750  -36.0190   -1.0290 N.3   205  GLU205     -0.1245
     40  CA        40.5760  -35.9420   -0.0660 C.3   205  GLU205      0.1567
     41  C         40.0060  -36.4530    1.2630 C.2   205  GLU205      0.2260
     42  O         40.6560  -37.2120    1.9810 O.2   205  GLU205     -0.2867
     43  CB        41.0600  -34.4830    0.1310 C.3   205  GLU205      0.0388
     44  CG        40.9390  -33.5570   -1.0700 C.3   205  GLU205      0.1160
     45  CD        41.9990  -33.7250   -2.1400 C.2   205  GLU205      0.3649
     46  OE1       41.6370  -34.1020   -3.2780 O.co2 205  GLU205     -0.2457
     47  OE2       43.1880  -33.4630   -1.8470 O.co2 205  GLU205     -0.2457
     48  N         45.7300  -23.3840   -0.0320 N.3   242  ASP242     -0.1239
     49  CA        45.8890  -23.5160   -1.4750 C.3   242  ASP242      0.1674
     50  C         44.6370  -22.9040   -2.1120 C.2   242  ASP242      0.2266
     51  O         43.7180  -23.6290   -2.5070 O.2   242  ASP242     -0.2867
     52  CB        46.2240  -24.9470   -1.9710 C.3   242  ASP242      0.1410
     53  CG        46.1950  -25.1810   -3.4960 C.2   242  ASP242      0.3668
     54  OD1       46.3300  -24.1970   -4.2630 O.co2 242  ASP242     -0.2456
     55  OD2       46.0600  -26.3460   -3.9160 O.co2 242  ASP242     -0.2456
     56  N         52.6470  -24.6310   -7.2480 N.3   311  ASP311     -0.1225
     57  CA        52.0310  -25.8790   -7.7180 C.3   311  ASP311      0.1805
     58  C         51.8490  -25.7350   -9.2260 C.2   311  ASP311      0.2597
     59  O         52.7760  -26.0760   -9.9620 O.2   311  ASP311     -0.2718
     60  CB        50.6940  -26.1890   -6.9950 C.3   311  ASP311      0.1424
     61  CG        49.9560  -27.4690   -7.4160 C.2   311  ASP311      0.3668
     62  OD1       50.5940  -28.3520   -8.0450 O.co2 311  ASP311     -0.2456
     63  OD2       48.7620  -27.6200   -7.0460 O.co2 311  ASP311     -0.2456
     64  N         50.7020  -25.1710   -9.6920 N.am  312  ASP312     -0.1974
     65  CA        50.4300  -24.9520  -11.1250 C.3   312  ASP312      0.1709
     66  C         51.4480  -23.9780  -11.7280 C.2   312  ASP312      0.2293
     67  O         51.7300  -24.0360  -12.9210 O.2   312  ASP312     -0.2864
     68  CB        48.9980  -24.4490  -11.3420 C.3   312  ASP312      0.1436
     69  CG        47.9290  -25.3850  -10.8270 C.2   312  ASP312      0.3671
     70  OD1       48.0960  -26.6210  -10.9760 O.co2 312  ASP312     -0.2456
     71  OD2       46.9100  -24.8840  -10.2970 O.co2 312  ASP312     -0.2456
     72  N         55.6490  -27.5070   -4.8040 N.3   334  LEU334     -0.1245
     73  CA        54.8280  -28.7020   -4.6290 C.3   334  LEU334      0.1561
     74  C         55.3420  -29.7610   -5.5990 C.2   334  LEU334      0.2260
     75  O         55.4010  -29.5200   -6.8110 O.2   334  LEU334     -0.2867
     76  CB        53.3290  -28.4290   -4.8180 C.3   334  LEU334      0.0270
     77  CG        52.4120  -29.4860   -4.1800 C.3   334  LEU334      0.0019
     78  CD1       52.3710  -29.3480   -2.6600 C.3   334  LEU334      0.0001
     79  CD2       51.0140  -29.4120   -4.7260 C.3   334  LEU334      0.0001
     80  N         55.0200  -33.2250   -7.4530 N.3   336  LYS336     -0.1245
     81  CA        54.1510  -34.2500   -8.0190 C.3   336  LYS336      0.1561
     82  C         54.9590  -35.1370   -8.9650 C.2   336  LYS336      0.2260
     83  O         55.2660  -34.7750  -10.1080 O.2   336  LYS336     -0.2867
     84  CB        52.9080  -33.6450   -8.7120 C.3   336  LYS336      0.0271
     85  CG        51.9050  -33.0400   -7.7340 C.3   336  LYS336      0.0035
     86  CD        51.0610  -31.9550   -8.3670 C.3   336  LYS336      0.0206
     87  CE        49.8380  -31.6530   -7.5290 C.3   336  LYS336      0.1093
     88  NZ        48.9640  -30.6200   -8.1620 N.3   336  LYS336     -0.1314
     89  N         53.5570  -34.0810   -2.6860 N.3   363  SER363     -0.1202
     90  CA        52.1160  -34.1370   -2.7570 C.3   363  SER363      0.2020
     91  C         51.5520  -35.3920   -3.4090 C.2   363  SER363      0.2619
     92  O         52.1770  -36.0120   -4.2680 O.2   363  SER363     -0.2717
     93  CB        51.5880  -32.9110   -3.4830 C.3   363  SER363      0.2103
     94  OG        50.1720  -32.8830   -3.4420 O.3   363  SER363     -0.2182
     95  N         50.3110  -35.7080   -3.0260 N.am  364  HIS364     -0.1961
     96  CA        49.4870  -36.7740   -3.5770 C.3   364  HIS364      0.1787
     97  C         48.7070  -36.1530   -4.7500 C.2   364  HIS364      0.2620
     98  O         48.8480  -34.9540   -5.0240 O.2   364  HIS364     -0.2715
     99  CB        48.4800  -37.2510   -2.5060 C.3   364  HIS364      0.0785
    100  CG        47.5330  -36.1980   -1.9990 C.ar  364  HIS364      0.0821
    101  ND1       47.9390  -35.2010   -1.1140 N.ar  364  HIS364     -0.2267
    102  CD2       46.2150  -36.0350   -2.2510 C.ar  364  HIS364      0.1154
    103  CE1       46.8650  -34.4640   -0.8770 C.ar  364  HIS364      0.1986
    104  NE2       45.8030  -34.9220   -1.5390 N.ar  364  HIS364     -0.2212
    105  N         47.9290  -36.9550   -5.4710 N.am  365  ARG365     -0.1963
    106  CA        47.0590  -36.4810   -6.5390 C.3   365  ARG365      0.1729
    107  C         45.6060  -36.8010   -6.2210 C.2   365  ARG365      0.2616
    108  O         45.3730  -37.6710   -5.3790 O.2   365  ARG365     -0.2715
    109  CB        47.5380  -37.1350   -7.8430 C.3   365  ARG365      0.0348
    110  CG        48.9450  -36.7180   -8.2820 C.3   365  ARG365      0.0492
    111  CD        49.0160  -35.2950   -8.8200 C.3   365  ARG365      0.2205
    112  NE        48.8460  -35.2530  -10.2740 N.pl3 365  ARG365     -0.0865
    113  CZ        48.5530  -34.1600  -10.9710 C.cat 365  ARG365      0.5346
    114  NH1       48.3740  -32.9990  -10.3560 N.pl3 365  ARG365      0.1354
    115  NH2       48.4250  -34.2230  -12.2890 N.pl3 365  ARG365      0.1354
    116  N         44.6310  -36.0850   -6.8480 N.am  366  SER366     -0.1950
    117  CA        43.1780  -36.2510   -6.6110 C.3   366  SER366      0.1924
    118  C         42.7220  -37.7190   -6.6490 C.2   366  SER366      0.2314
    119  O         41.9960  -38.1720   -5.7580 O.2   366  SER366     -0.2863
    120  CB        42.3480  -35.3770   -7.5550 C.3   366  SER366      0.2116
    121  OG        42.5610  -35.6920   -8.9230 O.3   366  SER366     -0.2180
    122  N         51.8340  -33.2950    1.6520 N.3   387  LYS387     -0.1245
    123  CA        50.4790  -32.8680    1.3740 C.3   387  LYS387      0.1561
    124  C         49.7050  -34.1270    0.9190 C.2   387  LYS387      0.2260
    125  O         49.7400  -34.4830   -0.2600 O.2   387  LYS387     -0.2867
    126  CB        50.4680  -31.7480    0.3280 C.3   387  LYS387      0.0271
    127  CG        49.0910  -31.1250    0.1570 C.3   387  LYS387      0.0035
    128  CD        49.1040  -29.9850   -0.8320 C.3   387  LYS387      0.0206
    129  CE        47.7430  -29.8300   -1.4570 C.3   387  LYS387      0.1093
    130  NZ        47.6340  -28.5510   -2.1960 N.3   387  LYS387     -0.1314
@<TRIPOS>BOND
     1    10     9    2
     2     9     8    1
     3     8     7    1
     4    67    66    2
     5     6     5    1
     6     7     3   am
     7   115   113    1
     8     5     2    1
     9    66    65    1
    10     2     3    1
    11     2     1    1
    12     3     4    2
    13    68    65    1
    14    68    69    1
    15    65    64    1
    16    70    69   ar
    17   113   114    1
    18   113   112    2
    19    69    71   ar
    20   112   111    1
    21    83    82    2
    22    59    58    2
    23    64    58   am
    24    58    57    1
    25    82    81    1
    26   121   120    1
    27   111   110    1
    28    84    81    1
    29    84    85    1
    30    86    85    1
    31    86    87    1
    32   110   109    1
    33    88    87    1
    34    62    61   ar
    35    81    80    1
    36   109   106    1
    37    57    56    1
    38    57    60    1
    39   120   117    1
    40    61    63   ar
    41    61    60    1
    42    28    27    2
    43   116   117    1
    44   116   107   am
    45    75    74    2
    46   118   117    1
    47   118   119    2
    48   106   107    1
    49   106   105    1
    50    29    27   am
    51    27    26    1
    52   107   108    2
    53    11    12    1
    54    18    20   ar
    55    18    16   ar
    56    20    19   ar
    57    74    73    1
    58   105    97   am
    59    12    15    1
    60    12    13    1
    61    98    97    2
    62    26    25    1
    63    16    15    1
    64    16    17   ar
    65    76    73    1
    66    76    77    1
    67    72    73    1
    68    19    17   ar
    69    97    96    1
    70    79    77    1
    71    13    14    2
    72    92    91    2
    73    54    53   ar
    74    77    78    1
    75    25    22    1
    76    55    53   ar
    77    96    95    1
    78    96    99    1
    79    53    52    1
    80    93    94    1
    81    93    90    1
    82    91    95   am
    83    91    90    1
    84    46    45   ar
    85    38    36   ar
    86    22    21    1
    87    22    23    1
    88    90    89    1
    89    51    50    2
    90    99   100    1
    91   102   100   ar
    92   102   104   ar
    93   130   129    1
    94    45    47   ar
    95    45    44    1
    96    50    49    1
    97   100   101   ar
    98    36    35    1
    99    36    37   ar
   100    52    49    1
   101    23    24    2
   102    23    30   am
   103   104   103   ar
   104    49    48    1
   105   129   128    1
   106    35    34    1
   107   101   103   ar
   108    30    31    1
   109    44    43    1
   110    39    40    1
   111   128   127    1
   112    34    31    1
   113   125   124    2
   114    40    43    1
   115    40    41    1
   116    31    32    1
   117   127   126    1
   118   126   123    1
   119   124   123    1
   120    33    32    2
   121    41    42    2
   122   123   122    1
