@<TRIPOS>MOLECULE
tmp/4z22A00.pdb
 144 135 0 0 0
SMALL
GASTEIGER

@<TRIPOS>ATOM
      1  N         -1.0090   -3.5150  -17.4100 N.3    34  ASP34      -0.1239
      2  CA        -1.2890   -2.7650  -18.6270 C.3    34  ASP34       0.1674
      3  C         -1.8610   -3.6480  -19.7380 C.2    34  ASP34       0.2266
      4  O         -1.1830   -4.5450  -20.2490 O.2    34  ASP34      -0.2867
      5  CB        -0.0040   -2.0690  -19.0950 C.3    34  ASP34       0.1410
      6  CG        -0.1910   -1.2730  -20.3660 C.2    34  ASP34       0.3668
      7  OD1       -1.2930   -0.7240  -20.5730 O.co2  34  ASP34      -0.2456
      8  OD2        0.7740   -1.1850  -21.1540 O.co2  34  ASP34      -0.2456
      9  N         -2.5750   -2.4920  -22.5400 N.3    36  GLY36      -0.1210
     10  CA        -2.1720   -1.8040  -23.7530 C.3    36  GLY36       0.1956
     11  C         -0.7830   -2.1910  -24.2240 C.2    36  GLY36       0.2612
     12  O         -0.2890   -1.6700  -25.2250 O.2    36  GLY36      -0.2717
     13  N         -0.1430   -3.0860  -23.4780 N.am   37  SER37      -0.1952
     14  CA         1.1110   -3.7020  -23.8990 C.3    37  SER37       0.1924
     15  C          1.0580   -5.1900  -23.5560 C.2    37  SER37       0.2314
     16  O          0.0980   -5.6450  -22.9300 O.2    37  SER37      -0.2863
     17  CB         2.3090   -3.0160  -23.2440 C.3    37  SER37       0.2116
     18  OG         2.1940   -3.0040  -21.8350 O.3    37  SER37      -0.2180
     19  N          7.9380   -6.4780  -17.8420 N.3    41  TRP41      -0.1241
     20  CA         9.1880   -5.7530  -17.6620 C.3    41  TRP41       0.1605
     21  C          9.5650   -5.7190  -16.1890 C.2    41  TRP41       0.2264
     22  O          8.7910   -5.2520  -15.3510 O.2    41  TRP41      -0.2867
     23  CB         9.0720   -4.3360  -18.2200 C.3    41  TRP41       0.0550
     24  CG         8.6890   -4.2930  -19.6700 C.ar   41  TRP41       0.0003
     25  CD1        7.4690   -4.6000  -20.2060 C.ar   41  TRP41       0.0946
     26  CD2        9.5280   -3.9110  -20.7690 C.ar   41  TRP41       0.0152
     27  NE1        7.5000   -4.4390  -21.5710 N.ar   41  TRP41      -0.2442
     28  CE2        8.7500   -4.0170  -21.9430 C.ar   41  TRP41       0.0810
     29  CE3       10.8570   -3.4890  -20.8790 C.ar   41  TRP41       0.0012
     30  CZ2        9.2610   -3.7160  -23.2070 C.ar   41  TRP41       0.0191
     31  CZ3       11.3640   -3.1910  -22.1370 C.ar   41  TRP41       0.0001
     32  CH2       10.5660   -3.3060  -23.2830 C.ar   41  TRP41       0.0015
     33  N         14.3970   -0.7580  -26.5360 N.3    75  MET75      -0.1245
     34  CA        13.2560   -0.0090  -27.0410 C.3    75  MET75       0.1570
     35  C         13.5690    1.4820  -26.9950 C.2    75  MET75       0.2261
     36  O         13.8810    2.0310  -25.9380 O.2    75  MET75      -0.2867
     37  CB        12.0060   -0.3280  -26.2180 C.3    75  MET75       0.0387
     38  CG        10.6880    0.0610  -26.8670 C.3    75  MET75       0.0595
     39  SD        10.1320   -1.1050  -28.1270 S.3    75  MET75      -0.1393
     40  CE        10.8180   -0.3820  -29.6170 C.3    75  MET75       0.0692
     41  N         12.8260    5.6100  -27.6610 N.3    77  TYR77      -0.1241
     42  CA        11.8700    6.7050  -27.7600 C.3    77  TYR77       0.1605
     43  C         12.5980    8.0410  -27.7230 C.2    77  TYR77       0.2264
     44  O         13.7670    8.1200  -27.3470 O.2    77  TYR77      -0.2867
     45  CB        10.8550    6.6730  -26.6140 C.3    77  TYR77       0.0534
     46  CG        10.0420    5.4100  -26.5100 C.ar   77  TYR77      -0.0201
     47  CD1        8.8860    5.2370  -27.2550 C.ar   77  TYR77      -0.0009
     48  CD2       10.4300    4.3900  -25.6520 C.ar   77  TYR77      -0.0009
     49  CE1        8.1390    4.0760  -27.1510 C.ar   77  TYR77       0.0417
     50  CE2        9.6940    3.2280  -25.5430 C.ar   77  TYR77       0.0417
     51  CZ         8.5490    3.0740  -26.2940 C.ar   77  TYR77       0.1957
     52  OH         7.8130    1.9150  -26.1870 O.3    77  TYR77      -0.2866
     53  N         14.7340    2.4650  -23.2530 N.3    82  VAL82      -0.1245
     54  CA        14.6980    1.3730  -22.2910 C.3    82  VAL82       0.1561
     55  C         15.5010    0.1790  -22.8240 C.2    82  VAL82       0.2260
     56  O         15.1440   -0.4170  -23.8400 O.2    82  VAL82      -0.2867
     57  CB        13.2510    0.9410  -21.9860 C.3    82  VAL82       0.0252
     58  CG1       13.2370   -0.2600  -21.0540 C.3    82  VAL82       0.0019
     59  CG2       12.4790    2.1010  -21.3750 C.3    82  VAL82       0.0019
     60  N         13.9180    7.8910  -18.7420 N.3   111  PHE111     -0.1241
     61  CA        12.8940    8.0370  -17.7200 C.3   111  PHE111      0.1605
     62  C         13.4230    8.0280  -16.2990 C.2   111  PHE111      0.2264
     63  O         12.6590    7.8270  -15.3630 O.2   111  PHE111     -0.2867
     64  CB        11.8910    6.8970  -17.8940 C.3   111  PHE111      0.0534
     65  CG        11.4390    6.7220  -19.3070 C.ar  111  PHE111     -0.0203
     66  CD1       10.4140    7.4860  -19.8320 C.ar  111  PHE111     -0.0042
     67  CD2       12.0640    5.7910  -20.1210 C.ar  111  PHE111     -0.0042
     68  CE1       10.0140    7.3180  -21.1460 C.ar  111  PHE111     -0.0003
     69  CE2       11.6700    5.6190  -21.4280 C.ar  111  PHE111     -0.0003
     70  CZ        10.6450    6.3800  -21.9410 C.ar  111  PHE111     -0.0000
     71  N          6.5040   -3.2880  -15.2500 N.3   123  ILE123     -0.1245
     72  CA         5.2540   -3.2580  -15.9990 C.3   123  ILE123      0.1561
     73  C          4.8370   -4.6520  -16.4690 C.2   123  ILE123      0.2260
     74  O          5.6040   -5.3530  -17.1270 O.2   123  ILE123     -0.2867
     75  CB         5.3590   -2.3130  -17.2130 C.3   123  ILE123      0.0252
     76  CG1        5.6340   -0.8830  -16.7380 C.3   123  ILE123      0.0019
     77  CG2        4.0830   -2.3680  -18.0410 C.3   123  ILE123      0.0019
     78  CD1        5.7880    0.1210  -17.8540 C.3   123  ILE123      0.0001
     79  N         -4.6950   -5.1410  -29.5970 N.3   192  TYR192     -0.1241
     80  CA        -5.1580   -4.5030  -28.3770 C.3   192  TYR192      0.1605
     81  C         -6.5140   -5.0870  -28.0380 C.2   192  TYR192      0.2264
     82  O         -7.1220   -5.7790  -28.8570 O.2   192  TYR192     -0.2867
     83  CB        -5.2750   -2.9870  -28.5400 C.3   192  TYR192      0.0534
     84  CG        -3.9820   -2.2660  -28.8370 C.ar  192  TYR192     -0.0201
     85  CD1       -3.1320   -1.8700  -27.8120 C.ar  192  TYR192     -0.0009
     86  CD2       -3.6180   -1.9700  -30.1430 C.ar  192  TYR192     -0.0009
     87  CE1       -1.9510   -1.2030  -28.0830 C.ar  192  TYR192      0.0417
     88  CE2       -2.4400   -1.3060  -30.4250 C.ar  192  TYR192      0.0417
     89  CZ        -1.6100   -0.9240  -29.3940 C.ar  192  TYR192      0.1957
     90  OH        -0.4370   -0.2640  -29.6790 O.3   192  TYR192     -0.2866
     91  N        -10.4560    1.2810  -27.8140 N.3   212  ILE212     -0.1245
     92  CA        -9.4420    0.4770  -27.1540 C.3   212  ILE212      0.1561
     93  C         -9.6180    0.5480  -25.6410 C.2   212  ILE212      0.2260
     94  O         -9.6730    1.6320  -25.0640 O.2   212  ILE212     -0.2867
     95  CB        -8.0310    0.9490  -27.5470 C.3   212  ILE212      0.0252
     96  CG1       -7.9170    1.0370  -29.0710 C.3   212  ILE212      0.0019
     97  CG2       -6.9600    0.0370  -26.9520 C.3   212  ILE212      0.0019
     98  CD1       -6.5580    1.4520  -29.5540 C.3   212  ILE212      0.0001
     99  N         -7.9670    0.1460  -22.2470 N.3   214  ASP214     -0.1239
    100  CA        -6.5680    0.1990  -21.8510 C.3   214  ASP214      0.1674
    101  C         -6.4010    0.7330  -20.4330 C.2   214  ASP214      0.2266
    102  O         -6.6590    1.9070  -20.1650 O.2   214  ASP214     -0.2867
    103  CB        -5.7840    1.0580  -22.8470 C.3   214  ASP214      0.1410
    104  CG        -4.3370    1.2350  -22.4550 C.2   214  ASP214      0.3668
    105  OD1       -3.7540    0.2900  -21.8880 O.co2 214  ASP214     -0.2456
    106  OD2       -3.7710    2.3120  -22.7330 O.co2 214  ASP214     -0.2456
    107  N         -3.6650    1.1840  -18.9900 N.3   216  GLY216     -0.1210
    108  CA        -2.4190    1.9190  -18.9060 C.3   216  GLY216      0.1956
    109  C         -2.5820    3.3910  -19.2310 C.2   216  GLY216      0.2612
    110  O         -1.6080    4.1380  -19.2450 O.2   216  GLY216     -0.2717
    111  N         -3.8130    3.8150  -19.4900 N.am  217  THR217     -0.1952
    112  CA        -4.0730    5.2110  -19.8260 C.3   217  THR217      0.1897
    113  C         -4.9070    5.9010  -18.7480 C.2   217  THR217      0.2313
    114  O         -6.0080    5.4640  -18.4200 O.2   217  THR217     -0.2863
    115  CB        -4.7760    5.3300  -21.1830 C.3   217  THR217      0.1794
    116  OG1       -3.9680    4.7010  -22.1870 O.3   217  THR217     -0.2208
    117  CG2       -4.9860    6.7950  -21.5470 C.3   217  THR217      0.0378
    118  N         -6.9890   13.2080  -29.1880 N.3   292  LEU292     -0.1245
    119  CA        -5.9590   12.4120  -29.8450 C.3   292  LEU292      0.1561
    120  C         -6.4760   11.7950  -31.1400 C.2   292  LEU292      0.2260
    121  O         -7.5560   11.2040  -31.1690 O.2   292  LEU292     -0.2867
    122  CB        -5.4570   11.3220  -28.8990 C.3   292  LEU292      0.0270
    123  CG        -4.3020   10.4470  -29.3790 C.3   292  LEU292      0.0019
    124  CD1       -3.1290   11.3060  -29.8110 C.3   292  LEU292      0.0001
    125  CD2       -3.8890    9.4850  -28.2790 C.3   292  LEU292      0.0001
    126  N         -5.9540    9.1970  -34.3190 N.3   294  PHE294     -0.1241
    127  CA        -5.3370    8.0410  -34.9650 C.3   294  PHE294      0.1605
    128  C         -5.7840    7.9950  -36.4260 C.2   294  PHE294      0.2264
    129  O         -6.7310    8.6900  -36.7970 O.2   294  PHE294     -0.2867
    130  CB        -5.7150    6.7450  -34.2370 C.3   294  PHE294      0.0534
    131  CG        -5.0660    6.5890  -32.8910 C.ar  294  PHE294     -0.0203
    132  CD1       -3.7570    6.1460  -32.7880 C.ar  294  PHE294     -0.0042
    133  CD2       -5.7650    6.8700  -31.7290 C.ar  294  PHE294     -0.0042
    134  CE1       -3.1540    5.9920  -31.5520 C.ar  294  PHE294     -0.0003
    135  CE2       -5.1680    6.7200  -30.4890 C.ar  294  PHE294     -0.0003
    136  CZ        -3.8600    6.2810  -30.4010 C.ar  294  PHE294     -0.0000
    137  N         -9.8520    5.9460  -26.7490 N.3   300  ILE300     -0.1245
    138  CA        -9.1500    5.1280  -25.7720 C.3   300  ILE300      0.1561
    139  C         -9.8750    5.2170  -24.4440 C.2   300  ILE300      0.2260
    140  O         -9.9270    6.2750  -23.8190 O.2   300  ILE300     -0.2867
    141  CB        -7.6900    5.5590  -25.5790 C.3   300  ILE300      0.0252
    142  CG1       -6.9290    5.4740  -26.9000 C.3   300  ILE300      0.0019
    143  CG2       -7.0230    4.7120  -24.5030 C.3   300  ILE300      0.0019
    144  CD1       -5.5030    5.9400  -26.7910 C.3   300  ILE300      0.0001
@<TRIPOS>BOND
     1   129   128    2
     2   128   127    1
     3   127   126    1
     4   127   130    1
     5   130   131    1
     6   131   132   ar
     7   131   133   ar
     8   132   134   ar
     9   133   135   ar
    10   134   136   ar
    11   121   120    2
    12   120   119    1
    13   135   136   ar
    14    88    86   ar
    15    88    89   ar
    16    86    84   ar
    17   119   118    1
    18   119   122    1
    19   124   123    1
    20    90    89    1
    21    40    39    1
    22    79    80    1
    23    98    96    1
    24    89    87   ar
    25   123   122    1
    26   123   125    1
    27    96    95    1
    28    82    81    2
    29    84    83    1
    30    84    85   ar
    31    83    80    1
    32    80    81    1
    33    39    38    1
    34    87    85   ar
    35    91    92    1
    36    42    43    1
    37    42    41    1
    38    42    45    1
    39    43    44    2
    40    95    92    1
    41    95    97    1
    42    47    49   ar
    43    47    46   ar
    44    92    93    1
    45    49    51   ar
    46    34    35    1
    47    34    33    1
    48    34    37    1
    49    35    36    2
    50   142   144    1
    51   142   141    1
    52    38    37    1
    53   137   138    1
    54    45    46    1
    55    46    48   ar
    56    51    52    1
    57    51    50   ar
    58   138   141    1
    59   138   139    1
    60    48    50   ar
    61    93    94    2
    62   141   143    1
    63    12    11    2
    64   139   140    2
    65    11    10    1
    66    11    13   am
    67    14    15    1
    68    14    13    1
    69    14    17    1
    70    56    55    2
    71    10     9    1
    72    15    16    2
    73    32    30   ar
    74    32    31   ar
    75    53    54    1
    76    17    18    1
    77    30    28   ar
    78   103   104    1
    79   103   100    1
    80    55    54    1
    81   106   104   ar
    82   104   105   ar
    83    54    57    1
    84    99   100    1
    85   116   115    1
    86    31    29   ar
    87    57    59    1
    88    57    58    1
    89    28    27   ar
    90    28    26   ar
    91    70    69   ar
    92    70    68   ar
    93   100   101    1
    94    27    25   ar
    95   117   115    1
    96    69    67   ar
    97   115   112    1
    98     8     6   ar
    99    68    66   ar
   100    29    26   ar
   101    26    24   ar
   102     7     6   ar
   103   101   102    2
   104     6     5    1
   105     4     3    2
   106    25    24   ar
   107    67    65   ar
   108    66    65   ar
   109   112   111    1
   110   112   113    1
   111     3     2    1
   112    24    23    1
   113   111   109   am
   114    65    64    1
   115   110   109    2
   116   109   108    1
   117     5     2    1
   118   107   108    1
   119   113   114    2
   120    60    61    1
   121     2     1    1
   122    23    20    1
   123    77    75    1
   124    64    61    1
   125    78    76    1
   126    19    20    1
   127    61    62    1
   128    20    21    1
   129    75    76    1
   130    75    72    1
   131    74    73    2
   132    73    72    1
   133    62    63    2
   134    21    22    2
   135    72    71    1
