@<TRIPOS>MOLECULE
tmp/4z28B01.pdb
 87 84 0 0 0
SMALL
GASTEIGER

@<TRIPOS>ATOM
      1  N         19.1810   -3.4540   -0.2540 N.3    46  GLY46      -0.1210
      2  CA        18.4270   -4.1980    0.7460 C.3    46  GLY46       0.1956
      3  C         18.2810   -3.5710    2.1290 C.2    46  GLY46       0.2613
      4  O         17.8140   -4.2330    3.0690 O.2    46  GLY46      -0.2717
      5  N         18.6720   -2.3120    2.2870 N.am   47  THR47      -0.1938
      6  CA        18.5450   -1.6400    3.6090 C.3    47  THR47       0.2028
      7  C         17.5860   -0.4740    3.5110 C.2    47  THR47       0.2642
      8  O         17.1780   -0.0950    2.3890 O.2    47  THR47      -0.2714
      9  CB        19.9070   -1.1710    4.1520 C.3    47  THR47       0.1808
     10  OG1       20.4800   -0.1780    3.2990 O.3    47  THR47      -0.2208
     11  CG2       20.8740   -2.3450    4.3100 C.3    47  THR47       0.0379
     12  N         17.2300    0.1040    4.6640 N.am   48  GLY48      -0.1954
     13  CA        16.4000    1.2810    4.7110 C.3    48  GLY48       0.1869
     14  C         17.2550    2.5300    4.7230 C.2    48  GLY48       0.2309
     15  O         18.4860    2.4710    4.7160 O.2    48  GLY48      -0.2863
     16  N         14.5600    4.5730   10.3870 N.3    80  CYS80      -0.1235
     17  CA        14.5840    3.1090   10.3510 C.3    80  CYS80       0.1677
     18  C         14.5920    2.4960   11.7580 C.2    80  CYS80       0.2270
     19  O         14.6400    1.2810   11.9330 O.2    80  CYS80      -0.2867
     20  CB        15.7870    2.6470    9.5370 C.3    80  CYS80       0.0956
     21  SG        15.6050    3.0600    7.7790 S.3    80  CYS80      -0.0801
     22  N         16.7150    2.2430   14.2330 N.3    82  SER82      -0.1217
     23  CA        17.8450    1.3410   14.3430 C.3    82  SER82       0.1889
     24  C         19.1120    2.1430   14.5100 C.2    82  SER82       0.2288
     25  O         19.0930    3.3500   14.3460 O.2    82  SER82      -0.2866
     26  CB        17.9310    0.4960   13.0570 C.3    82  SER82       0.2089
     27  OG        18.0930    1.3320   11.9230 O.3    82  SER82      -0.2183
     28  N         30.9690   -4.2010   12.0320 N.3   103  TRP103     -0.1241
     29  CA        29.8170   -3.4360   12.4810 C.3   103  TRP103      0.1605
     30  C         28.7290   -4.3160   13.0490 C.2   103  TRP103      0.2264
     31  O         28.6700   -5.5240   12.7710 O.2   103  TRP103     -0.2867
     32  CB        29.2690   -2.5100   11.3580 C.3   103  TRP103      0.0550
     33  CG        28.8440   -3.1880   10.0100 C.ar  103  TRP103      0.0003
     34  CD1       29.5440   -3.1440    8.8020 C.ar  103  TRP103      0.0946
     35  CD2       27.6310   -3.8690    9.7300 C.ar  103  TRP103      0.0152
     36  NE1       28.8730   -3.8060    7.8510 N.ar  103  TRP103     -0.2442
     37  CE2       27.6840   -4.2510    8.3330 C.ar  103  TRP103      0.0810
     38  CE3       26.5050   -4.1950   10.4580 C.ar  103  TRP103      0.0012
     39  CZ2       26.6720   -4.9690    7.7200 C.ar  103  TRP103      0.0191
     40  CZ3       25.4880   -4.8970    9.8470 C.ar  103  TRP103      0.0001
     41  CH2       25.5700   -5.2800    8.4880 C.ar  103  TRP103      0.0015
     42  N         24.4280   -3.7900   13.8780 N.3   105  LEU105     -0.1245
     43  CA        23.2520   -3.0050   13.5550 C.3   105  LEU105      0.1561
     44  C         22.1300   -3.5510   14.4210 C.2   105  LEU105      0.2260
     45  O         21.7170   -4.6920   14.2630 O.2   105  LEU105     -0.2867
     46  CB        22.9060   -3.1630   12.0350 C.3   105  LEU105      0.0270
     47  CG        21.5100   -2.7330   11.6360 C.3   105  LEU105      0.0019
     48  CD1       21.0940   -1.3410   12.0110 C.3   105  LEU105      0.0001
     49  CD2       21.5420   -2.8100   10.0870 C.3   105  LEU105      0.0001
     50  N         18.2880   -3.4530   15.7180 N.3   107  PHE107     -0.1227
     51  CA        16.9710   -3.1410   15.1840 C.3   107  PHE107      0.1736
     52  C         15.8720   -4.0260   15.7940 C.2   107  PHE107      0.2595
     53  O         16.1510   -5.0240   16.4870 O.2   107  PHE107     -0.2718
     54  CB        16.9970   -3.3300   13.6500 C.3   107  PHE107      0.0547
     55  CG        17.1700   -4.7610   13.2270 C.ar  107  PHE107     -0.0202
     56  CD1       18.4310   -5.3520   13.2230 C.ar  107  PHE107     -0.0042
     57  CD2       16.0630   -5.5370   12.8560 C.ar  107  PHE107     -0.0042
     58  CE1       18.5970   -6.6820   12.8310 C.ar  107  PHE107     -0.0003
     59  CE2       16.2230   -6.8620   12.4630 C.ar  107  PHE107     -0.0003
     60  CZ        17.4910   -7.4370   12.4440 C.ar  107  PHE107     -0.0000
     61  N         14.6250   -3.6890   15.4670 N.am  108  TYR108     -0.1962
     62  CA        13.4860   -4.5490   15.8090 C.3   108  TYR108      0.1771
     63  C         12.7530   -5.0780   14.5870 C.2   108  TYR108      0.2620
     64  O         12.7200   -4.4280   13.5280 O.2   108  TYR108     -0.2715
     65  CB        12.4910   -3.7940   16.6850 C.3   108  TYR108      0.0574
     66  CG        12.7810   -3.8380   18.1520 C.ar  108  TYR108     -0.0198
     67  CD1       13.7600   -3.0260   18.6890 C.ar  108  TYR108     -0.0009
     68  CD2       12.0670   -4.6690   19.0210 C.ar  108  TYR108     -0.0009
     69  CE1       14.0340   -3.0350   20.0360 C.ar  108  TYR108      0.0417
     70  CE2       12.3360   -4.6940   20.3940 C.ar  108  TYR108      0.0417
     71  CZ        13.3210   -3.8710   20.8920 C.ar  108  TYR108      0.1957
     72  OH        13.6240   -3.8690   22.2330 O.3   108  TYR108     -0.2866
     73  N         12.1720   -6.2740   14.7400 N.am  109  SER109     -0.1950
     74  CA        11.2460   -6.8750   13.7600 C.3   109  SER109      0.1924
     75  C          9.9760   -7.1240   14.5140 C.2   109  SER109      0.2314
     76  O          9.8560   -8.1330   15.2080 O.2   109  SER109     -0.2863
     77  CB        11.7650   -8.1970   13.2360 C.3   109  SER109      0.2116
     78  OG        13.0490   -8.0230   12.7100 O.3   109  SER109     -0.2180
     79  N         22.4500   -7.4040   13.9890 N.3   116  GLN116     -0.1245
     80  CA        23.0780   -8.0610   12.8430 C.3   116  GLN116      0.1566
     81  C         24.5440   -7.6570   12.7920 C.2   116  GLN116      0.2260
     82  O         24.8670   -6.5040   13.0440 O.2   116  GLN116     -0.2867
     83  CB        22.3590   -7.6810   11.5280 C.3   116  GLN116      0.0367
     84  CG        23.0790   -8.1230   10.2320 C.3   116  GLN116      0.0905
     85  CD        22.4880   -7.5700    8.9550 C.2   116  GLN116      0.2608
     86  OE1       22.4270   -8.2760    7.9360 O.2   116  GLN116     -0.2717
     87  NE2       22.0780   -6.3120    8.9730 N.am  116  GLN116     -0.0878
@<TRIPOS>BOND
     1     1     2    1
     2     2     3    1
     3     3     5   am
     4     3     4    2
     5     5     6    1
     6     8     7    2
     7    10     9    1
     8     7     6    1
     9     7    12   am
    10     6     9    1
    11     9    11    1
    12    12    13    1
    13    13    14    1
    14    15    14    2
    15    39    37   ar
    16    39    41   ar
    17    21    20    1
    18    36    37   ar
    19    36    34   ar
    20    86    85    2
    21    37    35   ar
    22    41    40   ar
    23    34    33   ar
    24    85    87   am
    25    85    84    1
    26    20    17    1
    27    35    33   ar
    28    35    38   ar
    29    40    38   ar
    30    33    32    1
    31    49    47    1
    32    84    83    1
    33    17    16    1
    34    17    18    1
    35    32    29    1
    36    83    80    1
    37    47    48    1
    38    47    46    1
    39    18    19    2
    40    27    26    1
    41    28    29    1
    42    46    43    1
    43    60    59   ar
    44    60    58   ar
    45    59    57   ar
    46    29    30    1
    47    78    77    1
    48    31    30    2
    49    81    80    1
    50    81    82    2
    51    58    56   ar
    52    80    79    1
    53    57    55   ar
    54    26    23    1
    55    56    55   ar
    56    55    54    1
    57    77    74    1
    58    64    63    2
    59    43    42    1
    60    43    44    1
    61    54    51    1
    62    74    75    1
    63    74    73    1
    64    22    23    1
    65    45    44    2
    66    23    24    1
    67    25    24    2
    68    75    76    2
    69    63    73   am
    70    63    62    1
    71    51    50    1
    72    51    52    1
    73    61    52   am
    74    61    62    1
    75    52    53    2
    76    62    65    1
    77    65    66    1
    78    66    67   ar
    79    66    68   ar
    80    67    69   ar
    81    68    70   ar
    82    69    71   ar
    83    70    71   ar
    84    71    72    1
