@<TRIPOS>MOLECULE
tmp/4z28B00.pdb
 150 143 0 0 0
SMALL
GASTEIGER

@<TRIPOS>ATOM
      1  N         32.4640    2.6610    0.8750 N.3    14  ASN14      -0.1240
      2  CA        32.5480    1.2360    1.1720 C.3    14  ASN14       0.1653
      3  C         32.1360    0.3730    0.0180 C.2    14  ASN14       0.2266
      4  O         31.6570    0.8750   -1.0250 O.2    14  ASN14      -0.2867
      5  CB        31.9150    0.7840    2.5520 C.3    14  ASN14       0.1155
      6  CG        30.3930    0.8610    2.6160 C.2    14  ASN14       0.2627
      7  OD1       29.7760    0.9390    3.7530 O.2    14  ASN14      -0.2716
      8  ND2       29.7380    0.8060    1.4790 N.am   14  ASN14      -0.0877
      9  N         29.6890   -1.4270   -0.4010 N.3    16  SER16      -0.1217
     10  CA        28.2680   -1.3390   -0.7550 C.3    16  SER16       0.1889
     11  C         27.9150   -0.0090   -1.4040 C.2    16  SER16       0.2288
     12  O         26.7680    0.2290   -1.7130 O.2    16  SER16      -0.2866
     13  CB        27.3560   -1.5890    0.4480 C.3    16  SER16       0.2089
     14  OG        27.6060   -2.8530    1.0420 O.3    16  SER16      -0.2183
     15  N         28.1630    3.0000    0.0800 N.3    18  SER18      -0.1217
     16  CA        27.8840    4.0240    1.0610 C.3    18  SER18       0.1889
     17  C         29.0980    4.9090    1.2620 C.2    18  SER18       0.2288
     18  O         30.2140    4.4450    1.0810 O.2    18  SER18      -0.2866
     19  CB        27.5960    3.3630    2.3970 C.3    18  SER18       0.2089
     20  OG        26.4290    2.5600    2.3900 O.3    18  SER18      -0.2183
     21  N         26.9840   10.2480    7.2380 N.3    40  TYR40      -0.1241
     22  CA        26.9730    8.9650    6.5650 C.3    40  TYR40       0.1605
     23  C         25.8150    8.9190    5.5740 C.2    40  TYR40       0.2264
     24  O         24.6760    9.2450    5.9250 O.2    40  TYR40      -0.2867
     25  CB        26.8230    7.8360    7.5710 C.3    40  TYR40       0.0534
     26  CG        27.3140    6.4710    7.0860 C.ar   40  TYR40      -0.0201
     27  CD1       26.4940    5.6280    6.3140 C.ar   40  TYR40      -0.0009
     28  CD2       28.5660    6.0080    7.4060 C.ar   40  TYR40      -0.0009
     29  CE1       26.9270    4.3690    5.9160 C.ar   40  TYR40       0.0417
     30  CE2       29.0180    4.7600    6.9690 C.ar   40  TYR40       0.0417
     31  CZ        28.1950    3.9570    6.2020 C.ar   40  TYR40       0.1957
     32  OH        28.6290    2.7070    5.8340 O.3    40  TYR40      -0.2866
     33  N         24.0010    6.1640    3.3640 N.3    42  ASN42      -0.1240
     34  CA        23.8450    4.7540    3.1690 C.3    42  ASN42       0.1653
     35  C         23.3390    4.4960    1.7220 C.2    42  ASN42       0.2266
     36  O         22.2790    4.9980    1.3460 O.2    42  ASN42      -0.2867
     37  CB        22.7920    4.2400    4.0830 C.3    42  ASN42       0.1155
     38  CG        22.4750    2.7970    3.8510 C.2    42  ASN42       0.2627
     39  OD1       23.3600    1.9700    3.5300 O.2    42  ASN42      -0.2716
     40  ND2       21.1980    2.4630    4.0260 N.am   42  ASN42      -0.0877
     41  N         23.5370    1.0100    0.6300 N.3    44  ALA44      -0.1245
     42  CA        23.5250   -0.4530    0.6430 C.3    44  ALA44       0.1562
     43  C         22.1960   -1.0250    0.2070 C.2    44  ALA44       0.2260
     44  O         21.1310   -0.7260    0.7810 O.2    44  ALA44      -0.2867
     45  CB        23.8780   -1.0080    2.0230 C.3    44  ALA44       0.0290
     46  N         18.6720   -2.3120    2.2870 N.3    47  THR47      -0.1203
     47  CA        18.5450   -1.6400    3.6090 C.3    47  THR47       0.1994
     48  C         17.5860   -0.4740    3.5110 C.2    47  THR47       0.2618
     49  O         17.1780   -0.0950    2.3890 O.2    47  THR47      -0.2717
     50  CB        19.9070   -1.1710    4.1520 C.3    47  THR47       0.1784
     51  OG1       20.4800   -0.1780    3.2990 O.3    47  THR47      -0.2211
     52  CG2       20.8740   -2.3450    4.3100 C.3    47  THR47       0.0376
     53  N         17.2300    0.1040    4.6640 N.am   48  GLY48      -0.1942
     54  CA        16.4000    1.2810    4.7110 C.3    48  GLY48       0.2014
     55  C         17.2550    2.5300    4.7230 C.2    48  GLY48       0.2639
     56  O         18.4860    2.4710    4.7160 O.2    48  GLY48      -0.2714
     57  N         16.5900    3.6760    4.7490 N.am   49  CYS49      -0.1967
     58  CA        17.2690    4.9390    5.0510 C.3    49  CYS49       0.1712
     59  C         18.4240    5.1810    4.1080 C.2    49  CYS49       0.2296
     60  O         19.5290    5.4850    4.4980 O.2    49  CYS49      -0.2864
     61  CB        17.7310    4.9660    6.5660 C.3    49  CYS49       0.0983
     62  SG        16.3420    5.0440    7.7510 S.3    49  CYS49      -0.0798
     63  N         19.7080    5.8130   12.9540 N.3    73  TRP73      -0.1241
     64  CA        19.0930    5.9990   11.6280 C.3    73  TRP73       0.1605
     65  C         17.7960    6.7810   11.7150 C.2    73  TRP73       0.2264
     66  O         16.7180    6.2720   11.3470 O.2    73  TRP73      -0.2867
     67  CB        18.9250    4.6370   10.9550 C.3    73  TRP73       0.0550
     68  CG        20.2320    3.9700   10.7030 C.ar   73  TRP73       0.0003
     69  CD1       20.7970    2.9200   11.4090 C.ar   73  TRP73       0.0946
     70  CD2       21.1620    4.2920    9.6510 C.ar   73  TRP73       0.0152
     71  NE1       22.0310    2.5910   10.8630 N.ar   73  TRP73      -0.2442
     72  CE2       22.2640    3.4110    9.7790 C.ar   73  TRP73       0.0810
     73  CE3       21.1720    5.2550    8.6240 C.ar   73  TRP73       0.0012
     74  CZ2       23.3660    3.4660    8.9270 C.ar   73  TRP73       0.0191
     75  CZ3       22.2750    5.3030    7.7690 C.ar   73  TRP73       0.0001
     76  CH2       23.3440    4.4160    7.9190 C.ar   73  TRP73       0.0015
     77  N         14.5600    4.5730   10.3870 N.3    80  CYS80      -0.1235
     78  CA        14.5840    3.1090   10.3510 C.3    80  CYS80       0.1677
     79  C         14.5920    2.4960   11.7580 C.2    80  CYS80       0.2270
     80  O         14.6400    1.2810   11.9330 O.2    80  CYS80      -0.2867
     81  CB        15.7870    2.6470    9.5370 C.3    80  CYS80       0.0956
     82  SG        15.6050    3.0600    7.7790 S.3    80  CYS80      -0.0801
     83  N         16.7150    2.2430   14.2330 N.3    82  SER82      -0.1217
     84  CA        17.8450    1.3410   14.3430 C.3    82  SER82       0.1889
     85  C         19.1120    2.1430   14.5100 C.2    82  SER82       0.2288
     86  O         19.0930    3.3500   14.3460 O.2    82  SER82      -0.2866
     87  CB        17.9310    0.4960   13.0570 C.3    82  SER82       0.2089
     88  OG        18.0930    1.3320   11.9230 O.3    82  SER82      -0.2183
     89  N         23.6690    1.7020   14.0390 N.3    84  THR84      -0.1218
     90  CA        24.8330    0.9330   13.6910 C.3    84  THR84       0.1862
     91  C         26.0630    1.4860   14.3600 C.2    84  THR84       0.2287
     92  O         26.2460    2.6900   14.4370 O.2    84  THR84      -0.2866
     93  CB        25.0420    0.9670   12.1270 C.3    84  THR84       0.1770
     94  OG1       23.8560    0.4330   11.5580 O.3    84  THR84      -0.2211
     95  CG2       26.2150    0.1310   11.7560 C.3    84  THR84       0.0375
     96  N         30.2830    0.9330   14.0260 N.3    86  TRP86      -0.1241
     97  CA        31.4470    0.4350   13.3150 C.3    86  TRP86       0.1605
     98  C         32.6860    0.6230   14.1960 C.2    86  TRP86       0.2264
     99  O         32.8810    1.6780   14.7960 O.2    86  TRP86      -0.2867
    100  CB        31.7100    1.2230   12.0000 C.3    86  TRP86       0.0550
    101  CG        30.7150    1.1610   10.9030 C.ar   86  TRP86       0.0003
    102  CD1       30.8880    0.4300    9.7140 C.ar   86  TRP86       0.0946
    103  CD2       29.5050    1.9120   10.7350 C.ar   86  TRP86       0.0152
    104  NE1       29.8070    0.6410    8.8780 N.ar   86  TRP86      -0.2442
    105  CE2       28.9680    1.5600    9.4510 C.ar   86  TRP86       0.0810
    106  CE3       28.8230    2.8680   11.4990 C.ar   86  TRP86       0.0012
    107  CZ2       27.7930    2.0770    8.9860 C.ar   86  TRP86       0.0191
    108  CZ3       27.6250    3.3460   11.0810 C.ar   86  TRP86       0.0001
    109  CH2       27.1250    2.9750    9.7730 C.ar   86  TRP86       0.0015
    110  N         30.9690   -4.2010   12.0320 N.3   103  TRP103     -0.1241
    111  CA        29.8170   -3.4360   12.4810 C.3   103  TRP103      0.1605
    112  C         28.7290   -4.3160   13.0490 C.2   103  TRP103      0.2264
    113  O         28.6700   -5.5240   12.7710 O.2   103  TRP103     -0.2867
    114  CB        29.2690   -2.5100   11.3580 C.3   103  TRP103      0.0550
    115  CG        28.8440   -3.1880   10.0100 C.ar  103  TRP103      0.0003
    116  CD1       29.5440   -3.1440    8.8020 C.ar  103  TRP103      0.0946
    117  CD2       27.6310   -3.8690    9.7300 C.ar  103  TRP103      0.0152
    118  NE1       28.8730   -3.8060    7.8510 N.ar  103  TRP103     -0.2442
    119  CE2       27.6840   -4.2510    8.3330 C.ar  103  TRP103      0.0810
    120  CE3       26.5050   -4.1950   10.4580 C.ar  103  TRP103      0.0012
    121  CZ2       26.6720   -4.9690    7.7200 C.ar  103  TRP103      0.0191
    122  CZ3       25.4880   -4.8970    9.8470 C.ar  103  TRP103      0.0001
    123  CH2       25.5700   -5.2800    8.4880 C.ar  103  TRP103      0.0015
    124  N         24.4280   -3.7900   13.8780 N.3   105  LEU105     -0.1245
    125  CA        23.2520   -3.0050   13.5550 C.3   105  LEU105      0.1561
    126  C         22.1300   -3.5510   14.4210 C.2   105  LEU105      0.2260
    127  O         21.7170   -4.6920   14.2630 O.2   105  LEU105     -0.2867
    128  CB        22.9060   -3.1630   12.0350 C.3   105  LEU105      0.0270
    129  CG        21.5100   -2.7330   11.6360 C.3   105  LEU105      0.0019
    130  CD1       21.0940   -1.3410   12.0110 C.3   105  LEU105      0.0001
    131  CD2       21.5420   -2.8100   10.0870 C.3   105  LEU105      0.0001
    132  N         18.2880   -3.4530   15.7180 N.3   107  PHE107     -0.1241
    133  CA        16.9710   -3.1410   15.1840 C.3   107  PHE107      0.1605
    134  C         15.8720   -4.0260   15.7940 C.2   107  PHE107      0.2264
    135  O         16.1510   -5.0240   16.4870 O.2   107  PHE107     -0.2867
    136  CB        16.9970   -3.3300   13.6500 C.3   107  PHE107      0.0534
    137  CG        17.1700   -4.7610   13.2270 C.ar  107  PHE107     -0.0203
    138  CD1       18.4310   -5.3520   13.2230 C.ar  107  PHE107     -0.0042
    139  CD2       16.0630   -5.5370   12.8560 C.ar  107  PHE107     -0.0042
    140  CE1       18.5970   -6.6820   12.8310 C.ar  107  PHE107     -0.0003
    141  CE2       16.2230   -6.8620   12.4630 C.ar  107  PHE107     -0.0003
    142  CZ        17.4910   -7.4370   12.4440 C.ar  107  PHE107     -0.0000
    143  N         32.4500   -3.7790    6.8290 N.3   120  ASP120     -0.1239
    144  CA        32.5670   -2.7460    5.8290 C.3   120  ASP120      0.1674
    145  C         34.0250   -2.4170    5.6180 C.2   120  ASP120      0.2266
    146  O         34.7670   -2.1130    6.5360 O.2   120  ASP120     -0.2867
    147  CB        31.7980   -1.4800    6.1690 C.3   120  ASP120      0.1410
    148  CG        30.3100   -1.5950    5.9100 C.2   120  ASP120      0.3668
    149  OD1       29.9210   -2.5210    5.1350 O.co2 120  ASP120     -0.2456
    150  OD2       29.5310   -0.7080    6.3880 O.co2 120  ASP120     -0.2456
@<TRIPOS>BOND
     1    12    11    2
     2    11    10    1
     3     4     3    2
     4    10     9    1
     5    10    13    1
     6     3     2    1
     7    15    16    1
     8    43    42    1
     9    43    44    2
    10    13    14    1
    11    41    42    1
    12    42    45    1
    13     1     2    1
    14    16    17    1
    15    16    19    1
    16    18    17    2
    17     2     5    1
    18    36    35    2
    19     8     6   am
    20    35    34    1
    21    46    47    1
    22    49    48    2
    23    20    19    1
    24     5     6    1
    25     6     7    2
    26    34    33    1
    27    34    37    1
    28    51    50    1
    29    48    47    1
    30    48    53   am
    31    39    38    2
    32    47    50    1
    33    38    40   am
    34    38    37    1
    35    59    60    2
    36    59    58    1
    37    50    52    1
    38    53    54    1
    39    54    55    1
    40    56    55    2
    41    55    57   am
    42    57    58    1
    43    58    61    1
    44   149   148   ar
    45    23    24    2
    46    23    22    1
    47   145   144    1
    48   145   146    2
    49   144   147    1
    50   144   143    1
    51    32    31    1
    52   148   147    1
    53   148   150   ar
    54    29    31   ar
    55    29    27   ar
    56    31    30   ar
    57    27    26   ar
    58    22    21    1
    59    22    25    1
    60    61    62    1
    61    30    28   ar
    62    26    28   ar
    63    26    25    1
    64   121   119   ar
    65   121   123   ar
    66    62    82    1
    67    75    76   ar
    68    75    73   ar
    69    82    81    1
    70   118   119   ar
    71   118   116   ar
    72    76    74   ar
    73   119   117   ar
    74   123   122   ar
    75    73    70   ar
    76   116   115   ar
    77   104   105   ar
    78   104   102   ar
    79    74    72   ar
    80   107   105   ar
    81   107   109   ar
    82   105   103   ar
    83    81    78    1
    84    70    72   ar
    85    70    68   ar
    86   102   101   ar
    87   117   115   ar
    88   117   120   ar
    89   109   108   ar
    90    72    71   ar
    91   122   120   ar
    92   115   114    1
    93   131   129    1
    94    78    77    1
    95    78    79    1
    96    68    67    1
    97    68    69   ar
    98   103   101   ar
    99   103   106   ar
   100    71    69   ar
   101   101   100    1
   102    67    64    1
   103   108   106   ar
   104    66    65    2
   105   114   111    1
   106    94    93    1
   107    64    65    1
   108    64    63    1
   109   129   130    1
   110   129   128    1
   111    95    93    1
   112    79    80    2
   113    88    87    1
   114   100    97    1
   115   110   111    1
   116   128   125    1
   117    93    90    1
   118   142   141   ar
   119   142   140   ar
   120   141   139   ar
   121   111   112    1
   122   113   112    2
   123   140   138   ar
   124   139   137   ar
   125    87    84    1
   126   138   137   ar
   127   137   136    1
   128    97    96    1
   129    97    98    1
   130   125   124    1
   131   125   126    1
   132   136   133    1
   133    90    89    1
   134    90    91    1
   135    98    99    2
   136    83    84    1
   137   127   126    2
   138    84    85    1
   139    86    85    2
   140    91    92    2
   141   133   132    1
   142   133   134    1
   143   134   135    2
