@<TRIPOS>MOLECULE
tmp/4z2bA01.pdb
 205 196 0 0 0
SMALL
GASTEIGER

@<TRIPOS>ATOM
      1  N         -7.0910   -6.4850   18.7470 N.3   141  ASN141     -0.1240
      2  CA        -7.5250   -6.0040   20.0530 C.3   141  ASN141      0.1653
      3  C         -6.2710   -5.3700   20.6340 C.2   141  ASN141      0.2266
      4  O         -5.3130   -6.0890   20.9200 O.2   141  ASN141     -0.2867
      5  CB        -8.0690   -7.1360   20.9180 C.3   141  ASN141      0.1155
      6  CG        -8.5240   -6.6180   22.2670 C.2   141  ASN141      0.2627
      7  OD1       -7.9240   -5.6910   22.8460 O.2   141  ASN141     -0.2716
      8  ND2       -9.5580   -7.2270   22.8160 N.am  141  ASN141     -0.0877
      9  N         -5.7460   -3.6510   23.4460 N.3   143  LEU143     -0.1245
     10  CA        -5.7380   -3.5900   24.9230 C.3   143  LEU143      0.1561
     11  C         -5.9310   -2.1430   25.3880 C.2   143  LEU143      0.2260
     12  O         -5.0280   -1.3030   25.2980 O.2   143  LEU143     -0.2867
     13  CB        -4.4490   -4.2420   25.4930 C.3   143  LEU143      0.0270
     14  CG        -4.1210   -4.0710   26.9830 C.3   143  LEU143      0.0019
     15  CD1       -5.2390   -4.5920   27.8780 C.3   143  LEU143      0.0001
     16  CD2       -2.7650   -4.7400   27.3180 C.3   143  LEU143      0.0001
     17  N         -8.4670   -0.4400   30.8870 N.3   147  TYR147     -0.1241
     18  CA        -8.3000   -1.7230   31.5650 C.3   147  TYR147      0.1605
     19  C         -6.8590   -1.9540   32.0130 C.2   147  TYR147      0.2264
     20  O         -6.6450   -2.4320   33.1210 O.2   147  TYR147     -0.2867
     21  CB        -8.7560   -2.8970   30.6730 C.3   147  TYR147      0.0534
     22  CG       -10.1450   -2.7070   30.1020 C.ar  147  TYR147     -0.0201
     23  CD1      -11.1820   -2.2120   30.8890 C.ar  147  TYR147     -0.0009
     24  CD2      -10.3980   -2.9180   28.7470 C.ar  147  TYR147     -0.0009
     25  CE1      -12.4610   -2.0530   30.3750 C.ar  147  TYR147      0.0417
     26  CE2      -11.6680   -2.7200   28.2100 C.ar  147  TYR147      0.0417
     27  CZ       -12.6920   -2.2710   29.0280 C.ar  147  TYR147      0.1957
     28  OH       -13.9620   -2.0880   28.5680 O.3   147  TYR147     -0.2866
     29  N         -5.6720   -0.6790   35.5830 N.3   150  THR150     -0.1218
     30  CA        -6.2660   -1.1980   36.8210 C.3   150  THR150      0.1862
     31  C         -5.2680   -2.0510   37.5870 C.2   150  THR150      0.2287
     32  O         -4.3790   -2.6360   36.9710 O.2   150  THR150     -0.2866
     33  CB        -7.5250   -2.0330   36.5320 C.3   150  THR150      0.1770
     34  OG1       -7.1560   -3.2110   35.7960 O.3   150  THR150     -0.2211
     35  CG2       -8.6100   -1.2360   35.7940 C.3   150  THR150      0.0375
     36  N         -5.9800   -4.9270   38.9790 N.3   152  PHE152     -0.1227
     37  CA        -6.2580   -6.2700   38.4980 C.3   152  PHE152      0.1736
     38  C         -5.4030   -6.5580   37.2350 C.2   152  PHE152      0.2596
     39  O         -4.7710   -7.6110   37.1780 O.2   152  PHE152     -0.2718
     40  CB        -7.7620   -6.4230   38.2060 C.3   152  PHE152      0.0547
     41  CG        -8.1890   -7.7830   37.6940 C.ar  152  PHE152     -0.0202
     42  CD1       -8.2370   -8.8810   38.5460 C.ar  152  PHE152     -0.0042
     43  CD2       -8.5730   -7.9570   36.3690 C.ar  152  PHE152     -0.0042
     44  CE1       -8.6550  -10.1290   38.0750 C.ar  152  PHE152     -0.0003
     45  CE2       -9.0140   -9.1980   35.9060 C.ar  152  PHE152     -0.0003
     46  CZ        -9.0520  -10.2770   36.7610 C.ar  152  PHE152     -0.0000
     47  N         -5.3240   -5.6210   36.2500 N.am  153  SER153     -0.1952
     48  CA        -4.4850   -5.9120   35.0700 C.3   153  SER153      0.1924
     49  C         -2.9920   -5.9050   35.4210 C.2   153  SER153      0.2314
     50  O         -2.2540   -6.8040   35.0210 O.2   153  SER153     -0.2863
     51  CB        -4.7380   -4.9090   33.9390 C.3   153  SER153      0.2116
     52  OG        -6.0540   -5.0460   33.4300 O.3   153  SER153     -0.2180
     53  N         -3.5330   -9.9560   36.0310 N.3   157  LEU157     -0.1231
     54  CA        -3.4650  -10.4090   34.6330 C.3   157  LEU157      0.1693
     55  C         -2.0400  -10.3970   34.0540 C.2   157  LEU157      0.2592
     56  O         -1.6140  -11.3850   33.4550 O.2   157  LEU157     -0.2718
     57  CB        -4.3800   -9.5450   33.7420 C.3   157  LEU157      0.0284
     58  CG        -5.8960   -9.6530   33.9640 C.3   157  LEU157      0.0019
     59  CD1       -6.6430   -8.7550   32.9840 C.3   157  LEU157      0.0001
     60  CD2       -6.4220  -11.1120   33.8150 C.3   157  LEU157      0.0001
     61  N         -1.3130   -9.2810   34.1920 N.am  158  TYR158     -0.1976
     62  CA         0.0130   -9.1450   33.5740 C.3   158  TYR158      0.1639
     63  C          1.1440   -8.8020   34.5870 C.2   158  TYR158      0.2290
     64  O          1.9140   -7.8720   34.3140 O.2   158  TYR158     -0.2864
     65  CB        -0.0290   -8.0550   32.4600 C.3   158  TYR158      0.0560
     66  CG        -1.3460   -7.9490   31.7100 C.ar  158  TYR158     -0.0198
     67  CD1       -1.8440   -9.0260   30.9700 C.ar  158  TYR158     -0.0009
     68  CD2       -2.0740   -6.7620   31.7070 C.ar  158  TYR158     -0.0009
     69  CE1       -3.0630   -8.9360   30.2940 C.ar  158  TYR158      0.0417
     70  CE2       -3.2700   -6.6450   30.9910 C.ar  158  TYR158      0.0417
     71  CZ        -3.7650   -7.7390   30.2950 C.ar  158  TYR158      0.1957
     72  OH        -4.9710   -7.6350   29.6310 O.3   158  TYR158     -0.2866
     73  N        -10.9600   -2.3870   21.6430 N.3   191  GLU191     -0.1245
     74  CA       -10.4100   -1.8230   22.8980 C.3   191  GLU191      0.1567
     75  C         -9.6330   -0.5510   22.6180 C.2   191  GLU191      0.2260
     76  O         -8.5140   -0.3400   23.1200 O.2   191  GLU191     -0.2867
     77  CB        -9.5620   -2.8530   23.6710 C.3   191  GLU191      0.0388
     78  CG       -10.4000   -3.9730   24.2720 C.3   191  GLU191      0.1160
     79  CD        -9.7090   -4.7870   25.3480 C.2   191  GLU191      0.3649
     80  OE1       -8.7820   -4.2660   26.0070 O.co2 191  GLU191     -0.2457
     81  OE2      -10.0870   -5.9660   25.5170 O.co2 191  GLU191     -0.2457
     82  N        -18.2560    1.6960   22.9840 N.3   217  LYS217     -0.1245
     83  CA       -18.9840    0.6220   23.6440 C.3   217  LYS217      0.1561
     84  C        -19.4590    1.2490   24.9630 C.2   217  LYS217      0.2260
     85  O        -20.5630    1.8040   25.0100 O.2   217  LYS217     -0.2867
     86  CB       -18.1000   -0.6290   23.8120 C.3   217  LYS217      0.0271
     87  CG       -18.7940   -1.8200   24.4820 C.3   217  LYS217      0.0035
     88  CD       -17.8100   -2.7800   25.1590 C.3   217  LYS217      0.0206
     89  CE       -16.9290   -3.5380   24.1940 C.3   217  LYS217      0.1093
     90  NZ       -15.6130   -3.9100   24.7880 N.3   217  LYS217     -0.1314
     91  N        -16.4240   -6.9060   19.1770 N.3   296  HIS296     -0.1241
     92  CA       -15.7580   -7.3710   20.3830 C.3   296  HIS296      0.1621
     93  C        -16.8350   -8.0000   21.2350 C.2   296  HIS296      0.2264
     94  O        -17.6650   -7.2890   21.8220 O.2   296  HIS296     -0.2867
     95  CB       -15.0240   -6.2150   21.0890 C.3   296  HIS296      0.0745
     96  CG       -14.2020   -6.6430   22.2770 C.ar  296  HIS296      0.0817
     97  ND1      -13.6820   -5.7070   23.1560 N.ar  296  HIS296     -0.2268
     98  CD2      -13.8350   -7.8830   22.6990 C.ar  296  HIS296      0.1154
     99  CE1      -13.0130   -6.3970   24.0690 C.ar  296  HIS296      0.1986
    100  NE2      -13.1280   -7.7080   23.8700 N.ar  296  HIS296     -0.2212
    101  N        -16.6630  -11.0460   27.0760 N.3   299  TRP299     -0.1241
    102  CA       -15.3900  -11.6490   27.5000 C.3   299  TRP299      0.1605
    103  C        -15.4650  -12.9520   28.3250 C.2   299  TRP299      0.2264
    104  O        -14.4590  -13.6620   28.3670 O.2   299  TRP299     -0.2867
    105  CB       -14.6020  -10.6320   28.3790 C.3   299  TRP299      0.0550
    106  CG       -15.2310  -10.4310   29.7450 C.ar  299  TRP299      0.0003
    107  CD1      -16.2860   -9.6210   30.0490 C.ar  299  TRP299      0.0946
    108  CD2      -14.8900  -11.1210   30.9620 C.ar  299  TRP299      0.0152
    109  NE1      -16.6210   -9.7580   31.3780 N.ar  299  TRP299     -0.2442
    110  CE2      -15.7890  -10.6810   31.9590 C.ar  299  TRP299      0.0810
    111  CE3      -13.9110  -12.0820   31.3060 C.ar  299  TRP299      0.0012
    112  CZ2      -15.7400  -11.1560   33.2800 C.ar  299  TRP299      0.0191
    113  CZ3      -13.8450  -12.5300   32.6260 C.ar  299  TRP299      0.0001
    114  CH2      -14.7510  -12.0660   33.5950 C.ar  299  TRP299      0.0015
    115  N        -15.3050  -16.3800   30.2770 N.3   301  PRO301     -0.2116
    116  CA       -14.9760  -17.7330   29.7750 C.3   301  PRO301      0.1372
    117  C        -16.2060  -18.6370   29.6450 C.2   301  PRO301      0.2244
    118  O        -16.2320  -19.5030   28.7830 O.2   301  PRO301     -0.2868
    119  CB       -14.0000  -18.2820   30.8370 C.3   301  PRO301      0.0268
    120  CG       -14.2020  -17.4030   32.0500 C.3   301  PRO301      0.0207
    121  CD       -14.4800  -16.0440   31.4570 C.3   301  PRO301      0.0892
    122  N        -22.3480  -15.1480   23.5200 N.3   307  ARG307     -0.1245
    123  CA       -21.6230  -14.9460   22.2610 C.3   307  ARG307      0.1563
    124  C        -22.3900  -15.5140   21.0970 C.2   307  ARG307      0.2260
    125  O        -22.3690  -14.9180   20.0170 O.2   307  ARG307     -0.2867
    126  CB       -20.2370  -15.5720   22.3280 C.3   307  ARG307      0.0307
    127  CG       -19.3360  -14.7920   23.2850 C.3   307  ARG307      0.0489
    128  CD       -17.9440  -15.3730   23.3070 C.3   307  ARG307      0.2205
    129  NE       -17.7790  -16.5660   24.1540 N.pl3 307  ARG307     -0.0865
    130  CZ       -17.4240  -16.5170   25.4350 C.cat 307  ARG307      0.5346
    131  NH1      -17.2000  -17.6410   26.1140 N.pl3 307  ARG307      0.1354
    132  NH2      -17.2690  -15.3430   26.0440 N.pl3 307  ARG307      0.1354
    133  N        -13.8130  -13.6950   21.3350 N.3   338  ASN338     -0.1225
    134  CA       -13.7260  -14.3650   22.6460 C.3   338  ASN338      0.1785
    135  C        -14.2810  -15.8120   22.5380 C.2   338  ASN338      0.2598
    136  O        -14.9640  -16.2920   23.4460 O.2   338  ASN338     -0.2718
    137  CB       -14.4840  -13.5270   23.7070 C.3   338  ASN338      0.1169
    138  CG       -13.5880  -12.5000   24.3250 C.2   338  ASN338      0.2627
    139  OD1      -12.4450  -12.8180   24.6570 O.2   338  ASN338     -0.2716
    140  ND2      -14.0560  -11.2460   24.4570 N.am  338  ASN338     -0.0877
    141  N        -14.0010  -16.4770   21.3940 N.am  339  SER339     -0.1938
    142  CA       -14.4800  -17.8240   21.1050 C.3   339  SER339      0.2055
    143  C        -13.4080  -18.6430   20.4250 C.2   339  SER339      0.2643
    144  O        -12.9160  -18.2480   19.3690 O.2   339  SER339     -0.2714
    145  CB       -15.7090  -17.7730   20.1990 C.3   339  SER339      0.2130
    146  OG       -16.7240  -16.9120   20.6810 O.3   339  SER339     -0.2179
    147  N        -13.0670  -19.7920   21.0040 N.am  340  THR340     -0.1950
    148  CA       -12.0690  -20.6870   20.4000 C.3   340  THR340      0.1897
    149  C        -12.7200  -21.5410   19.3000 C.2   340  THR340      0.2313
    150  O        -13.9530  -21.7140   19.2950 O.2   340  THR340     -0.2863
    151  CB       -11.3600  -21.5550   21.4680 C.3   340  THR340      0.1794
    152  OG1      -12.3020  -22.4740   22.0040 O.3   340  THR340     -0.2208
    153  CG2      -10.7070  -20.7410   22.5830 C.3   340  THR340      0.0378
    154  N        -15.7320  -24.1050   20.0170 N.3   343  THR343     -0.1218
    155  CA       -16.9670  -23.6310   20.6560 C.3   343  THR343      0.1862
    156  C        -18.1740  -23.6360   19.7380 C.2   343  THR343      0.2287
    157  O        -18.0450  -23.7540   18.5120 O.2   343  THR343     -0.2866
    158  CB       -16.7840  -22.1980   21.1980 C.3   343  THR343      0.1770
    159  OG1      -16.6580  -21.3180   20.0780 O.3   343  THR343     -0.2211
    160  CG2      -15.6090  -22.0690   22.1460 C.3   343  THR343      0.0375
    161  N         -4.3120  -14.8040   21.6800 N.3   391  ASN391     -0.1240
    162  CA        -4.3520  -14.1410   22.9750 C.3   391  ASN391      0.1653
    163  C         -3.5190  -14.9980   23.8700 C.2   391  ASN391      0.2266
    164  O         -3.7420  -16.2120   23.9270 O.2   391  ASN391     -0.2867
    165  CB        -5.8170  -13.9960   23.4630 C.3   391  ASN391      0.1155
    166  CG        -5.9810  -13.5140   24.8870 C.2   391  ASN391      0.2627
    167  OD1       -6.6780  -14.1280   25.6800 O.2   391  ASN391     -0.2716
    168  ND2       -5.3390  -12.4260   25.2580 N.am  391  ASN391     -0.0877
    169  N         -4.2880  -17.6050   30.8060 N.3   396  PHE396     -0.1241
    170  CA        -5.0380  -18.2430   29.7160 C.3   396  PHE396      0.1605
    171  C         -4.3950  -17.9310   28.3690 C.2   396  PHE396      0.2264
    172  O         -3.7160  -16.9190   28.2210 O.2   396  PHE396     -0.2867
    173  CB        -6.5250  -17.7730   29.7020 C.3   396  PHE396      0.0534
    174  CG        -7.2850  -18.0050   28.4040 C.ar  396  PHE396     -0.0203
    175  CD1       -7.8250  -19.2560   28.1050 C.ar  396  PHE396     -0.0042
    176  CD2       -7.4280  -16.9830   27.4670 C.ar  396  PHE396     -0.0042
    177  CE1       -8.5010  -19.4770   26.8940 C.ar  396  PHE396     -0.0003
    178  CE2       -8.0890  -17.2120   26.2510 C.ar  396  PHE396     -0.0003
    179  CZ        -8.6380  -18.4500   25.9840 C.ar  396  PHE396     -0.0000
    180  N         -8.9080  -16.4970   19.7700 N.3   400  LEU400     -0.1245
    181  CA       -10.1560  -15.7630   20.0390 C.3   400  LEU400      0.1561
    182  C        -10.5700  -14.8050   18.9650 C.2   400  LEU400      0.2260
    183  O        -11.7220  -14.3440   18.9610 O.2   400  LEU400     -0.2867
    184  CB        -9.9880  -14.9440   21.3260 C.3   400  LEU400      0.0270
    185  CG        -9.6190  -15.7110   22.5960 C.3   400  LEU400      0.0019
    186  CD1       -9.4860  -14.7590   23.7520 C.3   400  LEU400      0.0001
    187  CD2      -10.6200  -16.8220   22.8920 C.3   400  LEU400      0.0001
    188  N         -2.2950   -7.9110   24.8260 N.3   438  ASP438     -0.1225
    189  CA        -2.4020   -9.3070   25.2620 C.3   438  ASP438      0.1805
    190  C         -2.8410  -10.1590   24.0710 C.2   438  ASP438      0.2597
    191  O         -2.7920  -11.3910   24.1310 O.2   438  ASP438     -0.2718
    192  CB        -3.3300   -9.4690   26.4680 C.3   438  ASP438      0.1424
    193  CG        -4.7300   -8.9150   26.2930 C.2   438  ASP438      0.3668
    194  OD1       -4.9020   -7.9790   25.4990 O.co2 438  ASP438     -0.2456
    195  OD2       -5.6310   -9.3680   27.0030 O.co2 438  ASP438     -0.2456
    196  N         -3.2280   -9.5010   22.9580 N.am  439  HIS439     -0.1975
    197  CA        -3.6050  -10.1970   21.7300 C.3   439  HIS439      0.1656
    198  C         -2.5250  -10.0350   20.6680 C.2   439  HIS439      0.2291
    199  O         -1.6600   -9.1700   20.7930 O.2   439  HIS439     -0.2864
    200  CB        -4.9520   -9.6550   21.1810 C.3   439  HIS439      0.0771
    201  CG        -6.1440  -10.0270   22.0190 C.ar  439  HIS439      0.0820
    202  ND1       -7.1150  -10.8960   21.5490 N.ar  439  HIS439     -0.2267
    203  CD2       -6.5050   -9.5950   23.2480 C.ar  439  HIS439      0.1154
    204  CE1       -7.9950  -11.0200   22.5340 C.ar  439  HIS439      0.1986
    205  NE2       -7.6900  -10.2280   23.5590 N.ar  439  HIS439     -0.2212
@<TRIPOS>BOND
     1   157   156    2
     2     1     2    1
     3   183   182    2
     4   182   181    1
     5    91    92    1
     6   150   149    2
     7   149   148    1
     8   144   143    2
     9   156   155    1
    10   180   181    1
    11   154   155    1
    12   125   124    2
    13   181   184    1
    14     2     3    1
    15     2     5    1
    16   159   158    1
    17   145   146    1
    18   145   142    1
    19    92    95    1
    20    92    93    1
    21   148   147    1
    22   148   151    1
    23   143   147   am
    24   143   142    1
    25     3     4    2
    26   155   158    1
    27   198   199    2
    28   198   197    1
    29     5     6    1
    30    95    96    1
    31   124   123    1
    32   142   141    1
    33   200   197    1
    34   200   201    1
    35   158   160    1
    36    93    94    2
    37   184   185    1
    38   133   134    1
    39   141   135   am
    40   151   152    1
    41   151   153    1
    42   202   201   ar
    43   202   204   ar
    44    73    74    1
    45   161   162    1
    46   197   196    1
    47   201   203   ar
    48   123   126    1
    49   123   122    1
    50     6     8   am
    51     6     7    2
    52    96    98   ar
    53    96    97   ar
    54   126   127    1
    55   204   205   ar
    56   135   134    1
    57   135   136    2
    58   185   187    1
    59   185   186    1
    60    75    74    1
    61    75    76    2
    62   134   137    1
    63    98   100   ar
    64    74    77    1
    65   196   190   am
    66   162   165    1
    67   162   163    1
    68    82    83    1
    69    97    99   ar
    70   203   205   ar
    71   127   128    1
    72   128   129    1
    73     9    10    1
    74   165   166    1
    75    83    86    1
    76    83    84    1
    77    77    78    1
    78   137   138    1
    79    86    87    1
    80   100    99   ar
    81   163   164    2
    82   190   191    2
    83   190   189    1
    84   129   130    2
    85    89    90    1
    86    89    88    1
    87    78    79    1
    88   138   140   am
    89   138   139    2
    90    87    88    1
    91   188   189    1
    92   166   168   am
    93   166   167    2
    94    10    11    1
    95    10    13    1
    96    84    85    2
    97   189   192    1
    98    12    11    2
    99    79    81   ar
   100    79    80   ar
   101   130   132    1
   102   130   131    1
   103    13    14    1
   104   194   193   ar
   105   179   178   ar
   106   179   177   ar
   107   178   176   ar
   108   193   192    1
   109   193   195   ar
   110   177   175   ar
   111    14    16    1
   112    14    15    1
   113   101   102    1
   114   176   174   ar
   115   102   103    1
   116   102   105    1
   117   175   174   ar
   118    26    24   ar
   119    26    27   ar
   120   172   171    2
   121   103   104    2
   122   171   170    1
   123   105   106    1
   124   174   173    1
   125    28    27    1
   126    24    22   ar
   127   118   117    2
   128    27    25   ar
   129    72    71    1
   130   117   116    1
   131   173   170    1
   132   170   169    1
   133   106   107   ar
   134   106   108   ar
   135   116   115    1
   136   116   119    1
   137   107   109   ar
   138    22    21    1
   139    22    23   ar
   140   115   121    1
   141    69    71   ar
   142    69    67   ar
   143    71    70   ar
   144    25    23   ar
   145    21    18    1
   146   119   120    1
   147    17    18    1
   148   108   111   ar
   149   108   110   ar
   150    67    66   ar
   151    70    68   ar
   152   111   113   ar
   153   109   110   ar
   154   121   120    1
   155    18    19    1
   156    68    66   ar
   157    66    65    1
   158   110   112   ar
   159    19    20    2
   160    65    62    1
   161   113   114   ar
   162    59    58    1
   163   112   114   ar
   164    52    51    1
   165    56    55    2
   166    62    61    1
   167    62    63    1
   168    57    58    1
   169    57    54    1
   170    60    58    1
   171    51    48    1
   172    55    61   am
   173    55    54    1
   174    64    63    2
   175    54    53    1
   176    50    49    2
   177    48    49    1
   178    48    47    1
   179    29    30    1
   180    35    33    1
   181    34    33    1
   182    45    43   ar
   183    45    46   ar
   184    47    38   am
   185    43    41   ar
   186    33    30    1
   187    46    44   ar
   188    30    31    1
   189    32    31    2
   190    39    38    2
   191    38    37    1
   192    41    40    1
   193    41    42   ar
   194    44    42   ar
   195    40    37    1
   196    37    36    1
