@<TRIPOS>MOLECULE
tmp/4z2gA01.pdb
 150 147 0 0 0
SMALL
GASTEIGER

@<TRIPOS>ATOM
      1  N        -25.5290   -2.3970  -28.2590 N.3    96  TRP96      -0.1241
      2  CA       -25.6430   -1.3990  -27.2090 C.3    96  TRP96       0.1605
      3  C        -27.0390   -0.7960  -27.1970 C.2    96  TRP96       0.2264
      4  O        -27.6930   -0.8100  -26.1460 O.2    96  TRP96      -0.2867
      5  CB       -24.5690   -0.2880  -27.3270 C.3    96  TRP96       0.0550
      6  CG       -24.6870    0.7200  -26.1650 C.ar   96  TRP96       0.0003
      7  CD1      -24.3600    0.5080  -24.8590 C.ar   96  TRP96       0.0946
      8  CD2      -25.2400    2.0390  -26.2210 C.ar   96  TRP96       0.0152
      9  NE1      -24.6710    1.6060  -24.1020 N.ar   96  TRP96      -0.2442
     10  CE2      -25.2120    2.5620  -24.9130 C.ar   96  TRP96       0.0810
     11  CE3      -25.7480    2.8310  -27.2530 C.ar   96  TRP96       0.0012
     12  CZ2      -25.6640    3.8440  -24.6090 C.ar   96  TRP96       0.0191
     13  CZ3      -26.2040    4.0950  -26.9530 C.ar   96  TRP96       0.0001
     14  CH2      -26.1550    4.5980  -25.6410 C.ar   96  TRP96       0.0015
     15  N        -28.5120   -2.0500  -23.5890 N.3   100  ASN100     -0.1225
     16  CA       -27.8970   -1.3280  -22.4460 C.3   100  ASN100      0.1785
     17  C        -28.9230   -1.0900  -21.3630 C.2   100  ASN100      0.2597
     18  O        -30.1220   -1.2740  -21.5980 O.2   100  ASN100     -0.2718
     19  CB       -27.2290   -0.0360  -22.8470 C.3   100  ASN100      0.1169
     20  CG       -28.2160    1.1030  -23.0400 C.2   100  ASN100      0.2627
     21  OD1      -28.6790    1.7030  -22.0780 O.2   100  ASN100     -0.2716
     22  ND2      -28.5230    1.4120  -24.2890 N.am  100  ASN100     -0.0877
     23  N        -28.4830   -0.6950  -20.1730 N.am  101  ASP101     -0.1960
     24  CA       -29.3870   -0.7390  -19.0050 C.3   101  ASP101      0.1840
     25  C        -30.6350    0.0910  -19.1950 C.2   101  ASP101      0.2621
     26  O        -31.6730   -0.1860  -18.5610 O.2   101  ASP101     -0.2715
     27  CB       -28.6930   -0.3100  -17.7330 C.3   101  ASP101      0.1450
     28  CG       -27.6080   -1.2370  -17.3600 C.2   101  ASP101      0.3671
     29  OD1      -26.8690   -1.6370  -18.2940 O.co2 101  ASP101     -0.2456
     30  OD2      -27.4870   -1.5720  -16.1670 O.co2 101  ASP101     -0.2456
     31  N        -30.4980    1.1030  -20.0520 N.am  102  LEU102     -0.1977
     32  CA       -31.5790    2.0150  -20.4590 C.3   102  LEU102      0.1596
     33  C        -31.7430    2.0060  -21.9720 C.2   102  LEU102      0.2287
     34  O        -31.9060    3.0480  -22.5920 O.2   102  LEU102     -0.2864
     35  CB       -31.2510    3.4570  -20.0090 C.3   102  LEU102      0.0297
     36  CG       -30.9360    3.6240  -18.5220 C.3   102  LEU102      0.0022
     37  CD1      -30.3980    5.0220  -18.2560 C.3   102  LEU102      0.0001
     38  CD2      -32.1690    3.3240  -17.6720 C.3   102  LEU102      0.0001
     39  N        -13.4850   -4.4370  -20.2640 N.3   187  GLY187     -0.1225
     40  CA       -12.9720   -3.5960  -19.1970 C.3   187  GLY187      0.1811
     41  C        -13.5260   -3.9520  -17.8510 C.2   187  GLY187      0.2280
     42  O        -14.6510   -4.3970  -17.7460 O.2   187  GLY187     -0.2866
     43  N        -14.7730   -2.5410  -15.2190 N.3   189  PHE189     -0.1227
     44  CA       -16.0240   -2.0400  -14.6100 C.3   189  PHE189      0.1736
     45  C        -17.2390   -2.8120  -15.0980 C.2   189  PHE189      0.2595
     46  O        -18.0280   -3.3030  -14.3070 O.2   189  PHE189     -0.2718
     47  CB       -16.1650   -0.5520  -14.8180 C.3   189  PHE189      0.0547
     48  CG       -15.0220    0.2070  -14.2350 C.ar  189  PHE189     -0.0202
     49  CD1      -14.9920    0.4990  -12.8740 C.ar  189  PHE189     -0.0042
     50  CD2      -13.9240    0.5580  -15.0060 C.ar  189  PHE189     -0.0042
     51  CE1      -13.9140    1.1770  -12.3250 C.ar  189  PHE189     -0.0003
     52  CE2      -12.8490    1.2310  -14.4500 C.ar  189  PHE189     -0.0003
     53  CZ       -12.8530    1.5410  -13.1150 C.ar  189  PHE189     -0.0000
     54  N        -17.3600   -2.9860  -16.3960 N.am  190  PHE190     -0.1976
     55  CA       -18.4130   -3.8110  -16.8790 C.3   190  PHE190      0.1639
     56  C        -18.2170   -5.3380  -16.6710 C.2   190  PHE190      0.2290
     57  O        -19.1920   -6.0720  -16.4220 O.2   190  PHE190     -0.2864
     58  CB       -18.6530   -3.4360  -18.3240 C.3   190  PHE190      0.0560
     59  CG       -19.4170   -2.1770  -18.4680 C.ar  190  PHE190     -0.0200
     60  CD1      -20.6960   -2.0700  -17.9170 C.ar  190  PHE190     -0.0042
     61  CD2      -18.8750   -1.0970  -19.1070 C.ar  190  PHE190     -0.0042
     62  CE1      -21.4230   -0.8920  -18.0170 C.ar  190  PHE190     -0.0003
     63  CE2      -19.5940    0.0950  -19.2050 C.ar  190  PHE190     -0.0003
     64  CZ       -20.8680    0.1930  -18.6660 C.ar  190  PHE190     -0.0000
     65  N        -19.4990   -7.3350  -13.5340 N.3   193  ARG193     -0.1245
     66  CA       -20.8850   -7.7440  -13.3530 C.3   193  ARG193      0.1563
     67  C        -21.0160   -9.2400  -13.4220 C.2   193  ARG193      0.2260
     68  O        -21.9490   -9.7770  -12.8440 O.2   193  ARG193     -0.2867
     69  CB       -21.8020   -7.1870  -14.4420 C.3   193  ARG193      0.0307
     70  CG       -21.9280   -5.6940  -14.4710 C.3   193  ARG193      0.0489
     71  CD       -22.8980   -5.2820  -15.5650 C.3   193  ARG193      0.2205
     72  NE       -23.1240   -3.8440  -15.4940 N.pl3 193  ARG193     -0.0865
     73  CZ       -24.1150   -3.1830  -16.0870 C.cat 193  ARG193      0.5346
     74  NH1      -25.0210   -3.8050  -16.8490 N.pl3 193  ARG193      0.1354
     75  NH2      -24.1980   -1.8750  -15.9120 N.pl3 193  ARG193      0.1354
     76  N        -13.1840    0.8010  -27.2050 N.3   214  ASP214     -0.1225
     77  CA       -14.1370    1.7380  -26.5970 C.3   214  ASP214      0.1805
     78  C        -13.7790    1.8400  -25.1200 C.2   214  ASP214      0.2597
     79  O        -14.6230    2.0220  -24.2840 O.2   214  ASP214     -0.2718
     80  CB       -15.5560    1.2680  -26.7730 C.3   214  ASP214      0.1424
     81  CG       -16.5320    2.3950  -27.2450 C.2   214  ASP214      0.3668
     82  OD1      -16.1280    3.2530  -28.0520 O.co2 214  ASP214     -0.2456
     83  OD2      -17.7430    2.3660  -26.8910 O.co2 214  ASP214     -0.2456
     84  N        -12.5120    1.7020  -24.7970 N.am  215  LEU215     -0.1979
     85  CA       -12.0880    1.8230  -23.4350 C.3   215  LEU215      0.1596
     86  C        -11.8190    3.2610  -23.0040 C.2   215  LEU215      0.2287
     87  O        -11.4650    3.4930  -21.8300 O.2   215  LEU215     -0.2864
     88  CB       -10.8300    0.9840  -23.2050 C.3   215  LEU215      0.0297
     89  CG       -10.9910   -0.5090  -23.5650 C.3   215  LEU215      0.0022
     90  CD1       -9.6820   -1.2180  -23.3390 C.3   215  LEU215      0.0001
     91  CD2      -12.0530   -1.2280  -22.8110 C.3   215  LEU215      0.0001
     92  N        -17.3180   10.0330  -21.9230 N.3   219  TRP219     -0.1227
     93  CA       -17.6970    9.8330  -20.5380 C.3   219  TRP219      0.1737
     94  C        -16.4710    9.9790  -19.6100 C.2   219  TRP219      0.2595
     95  O        -16.5730   10.3250  -18.4250 O.2   219  TRP219     -0.2718
     96  CB       -18.3720    8.4420  -20.3870 C.3   219  TRP219      0.0564
     97  CG       -17.4670    7.3070  -20.8220 C.ar  219  TRP219      0.0003
     98  CD1      -16.4260    6.7550  -20.1020 C.ar  219  TRP219      0.0946
     99  CD2      -17.4600    6.6500  -22.0830 C.ar  219  TRP219      0.0152
    100  NE1      -15.8020    5.7860  -20.8320 N.ar  219  TRP219     -0.2442
    101  CE2      -16.4240    5.6900  -22.0490 C.ar  219  TRP219      0.0810
    102  CE3      -18.2340    6.7670  -23.2360 C.ar  219  TRP219      0.0012
    103  CZ2      -16.1370    4.8570  -23.1350 C.ar  219  TRP219      0.0191
    104  CZ3      -17.9760    5.9270  -24.3090 C.ar  219  TRP219      0.0001
    105  CH2      -16.9130    4.9860  -24.2560 C.ar  219  TRP219      0.0015
    106  N        -15.2880    9.7490  -20.1320 N.am  220  GLU220     -0.1965
    107  CA       -14.1110    9.9490  -19.3060 C.3   220  GLU220      0.1733
    108  C        -13.7940   11.4160  -19.0020 C.2   220  GLU220      0.2616
    109  O        -14.1400   12.3260  -19.7580 O.2   220  GLU220     -0.2715
    110  CB       -12.9010    9.3200  -19.9350 C.3   220  GLU220      0.0429
    111  CG       -12.9890    7.8120  -20.2030 C.3   220  GLU220      0.1163
    112  CD       -13.0850    6.9070  -18.9730 C.2   220  GLU220      0.3649
    113  OE1      -12.9910    7.3670  -17.8140 O.co2 220  GLU220     -0.2457
    114  OE2      -13.2740    5.6890  -19.1980 O.co2 220  GLU220     -0.2457
    115  N        -13.0970   11.6210  -17.8850 N.am  221  LYS221     -0.1977
    116  CA       -12.5750   12.9310  -17.5020 C.3   221  LYS221      0.1596
    117  C        -11.5200   13.3990  -18.5250 C.2   221  LYS221      0.2287
    118  O        -11.4080   14.6000  -18.8870 O.2   221  LYS221     -0.2864
    119  CB       -11.9560   12.8460  -16.1050 C.3   221  LYS221      0.0298
    120  CG       -12.1760   14.0790  -15.2230 C.3   221  LYS221      0.0038
    121  CD       -11.2720   15.2450  -15.6220 C.3   221  LYS221      0.0206
    122  CE       -11.2140   16.3420  -14.5640 C.3   221  LYS221      0.1093
    123  NZ       -10.7430   17.6360  -15.1330 N.3   221  LYS221     -0.1314
    124  N         -6.9620    3.4750  -13.2610 N.3   238  PHE238     -0.1241
    125  CA        -8.3230    3.2480  -12.8020 C.3   238  PHE238      0.1605
    126  C         -8.3730    2.2270  -11.6700 C.2   238  PHE238      0.2264
    127  O         -7.4010    1.4840  -11.4370 O.2   238  PHE238     -0.2867
    128  CB        -9.1850    2.7500  -13.9450 C.3   238  PHE238      0.0534
    129  CG        -9.3310    3.7250  -15.0630 C.ar  238  PHE238     -0.0203
    130  CD1       -8.4280    3.7280  -16.1270 C.ar  238  PHE238     -0.0042
    131  CD2      -10.3870    4.6100  -15.0840 C.ar  238  PHE238     -0.0042
    132  CE1       -8.5740    4.6110  -17.1900 C.ar  238  PHE238     -0.0003
    133  CE2      -10.5260    5.5180  -16.1380 C.ar  238  PHE238     -0.0003
    134  CZ        -9.6310    5.5080  -17.1790 C.ar  238  PHE238     -0.0000
    135  N         -5.9850    0.6460  -18.1060 N.3   264  LEU264     -0.1245
    136  CA        -7.1200   -0.0010  -18.7570 C.3   264  LEU264      0.1561
    137  C         -6.7770   -0.3380  -20.2030 C.2   264  LEU264      0.2260
    138  O         -7.0290    0.4500  -21.1160 O.2   264  LEU264     -0.2867
    139  CB        -8.3670    0.8960  -18.6790 C.3   264  LEU264      0.0270
    140  CG        -9.7060    0.2870  -19.0490 C.3   264  LEU264      0.0019
    141  CD1      -10.1660   -0.7390  -18.0380 C.3   264  LEU264      0.0001
    142  CD2      -10.7760    1.3540  -19.1610 C.3   264  LEU264      0.0001
    143  N        -26.6450   11.1330  -25.3410 N.3   315  ASP315     -0.1239
    144  CA       -27.1720   10.2480  -26.4060 C.3   315  ASP315      0.1674
    145  C        -28.6370   10.5880  -26.6620 C.2   315  ASP315      0.2266
    146  O        -29.4820   10.4220  -25.7650 O.2   315  ASP315     -0.2867
    147  CB       -27.0750    8.7490  -26.0120 C.3   315  ASP315      0.1410
    148  CG       -25.6430    8.2950  -25.7620 C.2   315  ASP315      0.3668
    149  OD1      -24.8110    8.4920  -26.6840 O.co2 315  ASP315     -0.2456
    150  OD2      -25.3710    7.7440  -24.6490 O.co2 315  ASP315     -0.2456
@<TRIPOS>BOND
     1     1     2    1
     2    82    81   ar
     3     5     2    1
     4     5     6    1
     5    11    13   ar
     6    11     8   ar
     7    81    83   ar
     8    81    80    1
     9     2     3    1
    10    76    77    1
    11     3     4    2
    12    13    14   ar
    13    80    77    1
    14   149   148   ar
    15   145   144    1
    16   145   146    2
    17    77    78    1
    18   144   147    1
    19   144   143    1
    20     8     6   ar
    21     8    10   ar
    22     6     7   ar
    23   147   148    1
    24   148   150   ar
    25    14    12   ar
    26    78    84   am
    27    78    79    2
    28    10    12   ar
    29    10     9   ar
    30     7     9   ar
    31    84    85    1
    32   104   105   ar
    33   104   102   ar
    34    22    20   am
    35   105   103   ar
    36    15    16    1
    37    89    90    1
    38    89    88    1
    39    89    91    1
    40    85    88    1
    41    85    86    1
    42   102    99   ar
    43   103   101   ar
    44    20    19    1
    45    20    21    2
    46    86    87    2
    47    19    16    1
    48    34    33    2
    49    16    17    1
    50    99   101   ar
    51    99    97   ar
    52   101   100   ar
    53    33    32    1
    54    92    93    1
    55    18    17    2
    56    17    23   am
    57   138   137    2
    58   100    98   ar
    59    97    96    1
    60    97    98   ar
    61    93    96    1
    62    93    94    1
    63    32    31    1
    64    32    35    1
    65    39    40    1
    66   137   136    1
    67   111   110    1
    68   111   112    1
    69    23    24    1
    70   106    94   am
    71   106   107    1
    72    31    25   am
    73    35    36    1
    74   110   107    1
    75   109   108    2
    76    94    95    2
    77   107   108    1
    78    63    61   ar
    79    63    64   ar
    80   114   112   ar
    81    40    41    1
    82    25    24    1
    83    25    26    2
    84   142   140    1
    85    61    59   ar
    86   140   139    1
    87   140   141    1
    88    24    27    1
    89   108   115   am
    90   112   113   ar
    91   118   117    2
    92   136   139    1
    93   136   135    1
    94    64    62   ar
    95   117   116    1
    96    36    37    1
    97    36    38    1
    98    59    58    1
    99    59    60   ar
   100    58    55    1
   101    29    28   ar
   102    62    60   ar
   103   115   116    1
   104    41    42    2
   105    27    28    1
   106   116   119    1
   107    28    30   ar
   108   132   134   ar
   109   132   130   ar
   110   134   133   ar
   111    55    56    1
   112    55    54    1
   113    74    73    1
   114    56    57    2
   115    54    45   am
   116   133   131   ar
   117   130   129   ar
   118   119   120    1
   119    73    75    1
   120    73    72    2
   121   121   120    1
   122   121   122    1
   123    71    72    1
   124    71    70    1
   125    43    44    1
   126   123   122    1
   127    45    44    1
   128    45    46    2
   129   131   129   ar
   130   129   128    1
   131    50    52   ar
   132    50    48   ar
   133    47    44    1
   134    47    48    1
   135    70    69    1
   136    52    53   ar
   137    69    66    1
   138    48    49   ar
   139   128   125    1
   140    65    66    1
   141    67    66    1
   142    67    68    2
   143   124   125    1
   144    53    51   ar
   145    49    51   ar
   146   125   126    1
   147   126   127    2
