@<TRIPOS>MOLECULE
tmp/4z2gA00.pdb
 235 231 0 0 0
SMALL
GASTEIGER

@<TRIPOS>ATOM
      1  N        -17.7590   -8.3700  -37.6030 N.3     9  TYR9       -0.1241
      2  CA       -19.1480   -8.0090  -37.4220 C.3     9  TYR9        0.1605
      3  C        -19.5600   -7.3490  -38.7410 C.2     9  TYR9        0.2264
      4  O        -18.7190   -6.7780  -39.4290 O.2     9  TYR9       -0.2867
      5  CB       -19.3460   -7.0720  -36.2120 C.3     9  TYR9        0.0534
      6  CG       -19.6170   -7.7740  -34.9050 C.ar    9  TYR9       -0.0201
      7  CD1      -18.5870   -8.2830  -34.1460 C.ar    9  TYR9       -0.0009
      8  CD2      -20.8700   -7.9020  -34.4310 C.ar    9  TYR9       -0.0009
      9  CE1      -18.8220   -8.9440  -32.9470 C.ar    9  TYR9        0.0417
     10  CE2      -21.1290   -8.5690  -33.2470 C.ar    9  TYR9        0.0417
     11  CZ       -20.0990   -9.0830  -32.5050 C.ar    9  TYR9        0.1957
     12  OH       -20.3500   -9.7630  -31.3180 O.3     9  TYR9       -0.2866
     13  N        -22.8100   -4.8210  -40.0150 N.3    11  PHE11      -0.1241
     14  CA       -24.0210   -4.1060  -39.6380 C.3    11  PHE11       0.1605
     15  C        -24.7380   -3.5570  -40.8730 C.2    11  PHE11       0.2264
     16  O        -24.0910   -3.1310  -41.8200 O.2    11  PHE11      -0.2867
     17  CB       -23.7140   -2.9770  -38.6400 C.3    11  PHE11       0.0534
     18  CG       -24.9200   -2.1920  -38.2470 C.ar   11  PHE11      -0.0203
     19  CD1      -26.0060   -2.8170  -37.6540 C.ar   11  PHE11      -0.0042
     20  CD2      -24.9970   -0.8610  -38.5190 C.ar   11  PHE11      -0.0042
     21  CE1      -27.1460   -2.1220  -37.2810 C.ar   11  PHE11      -0.0003
     22  CE2      -26.1260   -0.1360  -38.1570 C.ar   11  PHE11      -0.0003
     23  CZ       -27.2070   -0.7650  -37.5360 C.ar   11  PHE11      -0.0000
     24  N        -28.7580   -1.3730  -41.2330 N.3    13  PRO13      -0.2116
     25  CA       -29.9720   -0.9260  -40.5340 C.3    13  PRO13       0.1372
     26  C        -31.2400   -1.4640  -41.1690 C.2    13  PRO13       0.2244
     27  O        -31.2100   -1.8340  -42.3430 O.2    13  PRO13      -0.2868
     28  CB       -29.9510    0.5980  -40.7170 C.3    13  PRO13       0.0268
     29  CG       -28.5540    0.9420  -41.1370 C.3    13  PRO13       0.0207
     30  CD       -28.0220   -0.2520  -41.8520 C.3    13  PRO13       0.0892
     31  N        -33.9770    0.1370  -42.1140 N.3    15  ASN15      -0.1240
     32  CA       -34.3520    0.9790  -43.2760 C.3    15  ASN15       0.1653
     33  C        -33.5050    0.7150  -44.5430 C.2    15  ASN15       0.2266
     34  O        -34.0420    0.8470  -45.6420 O.2    15  ASN15      -0.2867
     35  CB       -34.3490    2.4790  -42.9200 C.3    15  ASN15       0.1155
     36  CG       -32.9850    2.9720  -42.4430 C.2    15  ASN15       0.2627
     37  OD1      -32.2120    3.5400  -43.2200 O.2    15  ASN15      -0.2716
     38  ND2      -32.6780    2.7510  -41.1540 N.am   15  ASN15      -0.0877
     39  N        -28.1770   -6.3220  -36.5280 N.3    50  PHE50      -0.1241
     40  CA       -28.4840   -6.8470  -35.2070 C.3    50  PHE50       0.1605
     41  C        -29.9140   -7.3300  -35.1790 C.2    50  PHE50       0.2264
     42  O        -30.7540   -6.6520  -35.7290 O.2    50  PHE50      -0.2867
     43  CB       -28.4460   -5.7260  -34.1380 C.3    50  PHE50       0.0534
     44  CG       -27.1080   -5.5460  -33.4820 C.ar   50  PHE50      -0.0203
     45  CD1      -26.5930   -6.5350  -32.6640 C.ar   50  PHE50      -0.0042
     46  CD2      -26.3660   -4.3930  -33.6780 C.ar   50  PHE50      -0.0042
     47  CE1      -25.3590   -6.3850  -32.0770 C.ar   50  PHE50      -0.0003
     48  CE2      -25.1310   -4.2390  -33.1020 C.ar   50  PHE50      -0.0003
     49  CZ       -24.6310   -5.2330  -32.2940 C.ar   50  PHE50      -0.0000
     50  N        -25.5290   -2.3970  -28.2590 N.3    96  TRP96      -0.1227
     51  CA       -25.6430   -1.3990  -27.2090 C.3    96  TRP96       0.1737
     52  C        -27.0390   -0.7960  -27.1970 C.2    96  TRP96       0.2595
     53  O        -27.6930   -0.8100  -26.1460 O.2    96  TRP96      -0.2718
     54  CB       -24.5690   -0.2880  -27.3270 C.3    96  TRP96       0.0564
     55  CG       -24.6870    0.7200  -26.1650 C.ar   96  TRP96       0.0003
     56  CD1      -24.3600    0.5080  -24.8590 C.ar   96  TRP96       0.0946
     57  CD2      -25.2400    2.0390  -26.2210 C.ar   96  TRP96       0.0152
     58  NE1      -24.6710    1.6060  -24.1020 N.ar   96  TRP96      -0.2442
     59  CE2      -25.2120    2.5620  -24.9130 C.ar   96  TRP96       0.0810
     60  CE3      -25.7480    2.8310  -27.2530 C.ar   96  TRP96       0.0012
     61  CZ2      -25.6640    3.8440  -24.6090 C.ar   96  TRP96       0.0191
     62  CZ3      -26.2040    4.0950  -26.9530 C.ar   96  TRP96       0.0001
     63  CH2      -26.1550    4.5980  -25.6410 C.ar   96  TRP96       0.0015
     64  N        -27.5160   -0.3030  -28.3480 N.am   97  TYR97      -0.1962
     65  CA       -28.8280    0.3850  -28.3870 C.3    97  TYR97       0.1771
     66  C        -29.9870   -0.4090  -27.7230 C.2    97  TYR97       0.2619
     67  O        -30.7270    0.0820  -26.8220 O.2    97  TYR97      -0.2715
     68  CB       -29.1840    0.8020  -29.8270 C.3    97  TYR97       0.0574
     69  CG       -30.3760    1.7710  -29.8850 C.ar   97  TYR97      -0.0198
     70  CD1      -30.2810    3.0950  -29.3960 C.ar   97  TYR97      -0.0009
     71  CD2      -31.6160    1.3520  -30.3890 C.ar   97  TYR97      -0.0009
     72  CE1      -31.3780    3.9460  -29.4190 C.ar   97  TYR97       0.0417
     73  CE2      -32.7060    2.2030  -30.4170 C.ar   97  TYR97       0.0417
     74  CZ       -32.5850    3.4900  -29.9360 C.ar   97  TYR97       0.1957
     75  OH       -33.6890    4.3020  -29.9930 O.3    97  TYR97      -0.2866
     76  N        -30.1170   -1.6650  -28.1420 N.am   98  TYR98      -0.1974
     77  CA       -31.2140   -2.5150  -27.6950 C.3    98  TYR98       0.1639
     78  C        -31.0660   -2.9570  -26.2540 C.2    98  TYR98       0.2290
     79  O        -32.0710   -3.0370  -25.4970 O.2    98  TYR98      -0.2864
     80  CB       -31.2820   -3.7460  -28.6010 C.3    98  TYR98       0.0560
     81  CG       -31.8030   -3.5200  -30.0170 C.ar   98  TYR98      -0.0198
     82  CD1      -33.0850   -3.0070  -30.2280 C.ar   98  TYR98      -0.0009
     83  CD2      -31.0460   -3.8660  -31.1400 C.ar   98  TYR98      -0.0009
     84  CE1      -33.5820   -2.8150  -31.5050 C.ar   98  TYR98       0.0417
     85  CE2      -31.5430   -3.6730  -32.4190 C.ar   98  TYR98       0.0417
     86  CZ       -32.8170   -3.1490  -32.5880 C.ar   98  TYR98       0.1957
     87  OH       -33.3610   -2.9610  -33.8360 O.3    98  TYR98      -0.2866
     88  N        -25.0020  -10.3910  -27.8340 N.3   141  ASP141     -0.1239
     89  CA       -24.2690   -9.1710  -27.5190 C.3   141  ASP141      0.1674
     90  C        -25.1300   -8.2680  -26.6410 C.2   141  ASP141      0.2266
     91  O        -25.4420   -7.1200  -27.0430 O.2   141  ASP141     -0.2867
     92  CB       -23.8900   -8.4500  -28.8030 C.3   141  ASP141      0.1410
     93  CG       -23.2180   -7.1100  -28.5640 C.2   141  ASP141      0.3668
     94  OD1      -22.8700   -6.7990  -27.4220 O.co2 141  ASP141     -0.2456
     95  OD2      -22.9790   -6.3770  -29.5460 O.co2 141  ASP141     -0.2456
     96  N        -25.2020   -6.0700  -23.4980 N.3   143  GLU143     -0.1245
     97  CA       -24.2230   -5.2310  -22.8300 C.3   143  GLU143      0.1567
     98  C        -24.8640   -4.4810  -21.6860 C.2   143  GLU143      0.2260
     99  O        -25.2810   -3.3750  -21.9330 O.2   143  GLU143     -0.2867
    100  CB       -23.7000   -4.1950  -23.8380 C.3   143  GLU143      0.0388
    101  CG       -23.0300   -4.8370  -25.0570 C.3   143  GLU143      0.1160
    102  CD       -22.5180   -3.8330  -26.0650 C.2   143  GLU143      0.3649
    103  OE1      -22.4960   -2.6480  -25.7420 O.co2 143  GLU143     -0.2457
    104  OE2      -22.1360   -4.1920  -27.1960 O.co2 143  GLU143     -0.2457
    105  N        -20.4000  -11.4020  -27.1530 N.3   183  ALA183     -0.1245
    106  CA       -19.5150  -10.2340  -27.1050 C.3   183  ALA183      0.1562
    107  C        -19.3950   -9.9270  -25.6360 C.2   183  ALA183      0.2260
    108  O        -20.3910   -9.6770  -24.9610 O.2   183  ALA183     -0.2867
    109  CB       -20.1460   -9.0890  -27.8710 C.3   183  ALA183      0.0290
    110  N        -14.7460   -7.3580  -26.1590 N.3   211  MET211     -0.1245
    111  CA       -14.8490   -5.9830  -26.6990 C.3   211  MET211      0.1570
    112  C        -13.7490   -5.0940  -26.1590 C.2   211  MET211      0.2261
    113  O        -14.0280   -4.1470  -25.4380 O.2   211  MET211     -0.2867
    114  CB       -16.2550   -5.4000  -26.4760 C.3   211  MET211      0.0387
    115  CG       -17.2730   -6.0710  -27.3850 C.3   211  MET211      0.0595
    116  SD       -18.9070   -5.4470  -27.1360 S.3   211  MET211     -0.1393
    117  CE       -19.3400   -6.0820  -25.5060 C.3   211  MET211      0.0692
    118  N        -12.0800   -2.5780  -26.8200 N.3   213  TYR213     -0.1227
    119  CA       -12.0090   -1.2900  -27.4680 C.3   213  TYR213      0.1736
    120  C        -13.1200   -0.4650  -26.8510 C.2   213  TYR213      0.2595
    121  O        -13.9340   -0.9830  -26.0940 O.2   213  TYR213     -0.2718
    122  CB       -12.1750   -1.4300  -29.0150 C.3   213  TYR213      0.0548
    123  CG       -13.2980   -2.3660  -29.4730 C.ar  213  TYR213     -0.0200
    124  CD1      -14.5820   -1.9960  -29.3850 C.ar  213  TYR213     -0.0009
    125  CD2      -13.0250   -3.6260  -29.9830 C.ar  213  TYR213     -0.0009
    126  CE1      -15.5940   -2.8310  -29.7810 C.ar  213  TYR213      0.0417
    127  CE2      -14.0310   -4.4890  -30.3710 C.ar  213  TYR213      0.0417
    128  CZ       -15.3170   -4.0810  -30.2480 C.ar  213  TYR213      0.1957
    129  OH       -16.3680   -4.8670  -30.6410 O.3   213  TYR213     -0.2866
    130  N        -13.1840    0.8010  -27.2050 N.am  214  ASP214     -0.1974
    131  CA       -14.1370    1.7380  -26.5970 C.3   214  ASP214      0.1709
    132  C        -13.7790    1.8400  -25.1200 C.2   214  ASP214      0.2293
    133  O        -14.6230    2.0220  -24.2840 O.2   214  ASP214     -0.2864
    134  CB       -15.5560    1.2680  -26.7730 C.3   214  ASP214      0.1436
    135  CG       -16.5320    2.3950  -27.2450 C.2   214  ASP214      0.3671
    136  OD1      -16.1280    3.2530  -28.0520 O.co2 214  ASP214     -0.2456
    137  OD2      -17.7430    2.3660  -26.8910 O.co2 214  ASP214     -0.2456
    138  N        -13.1700    1.4910  -36.1460 N.3   291  TYR291     -0.1241
    139  CA       -13.5490    2.8820  -36.0230 C.3   291  TYR291      0.1605
    140  C        -12.5530    3.6530  -35.1450 C.2   291  TYR291      0.2264
    141  O        -11.5570    3.1040  -34.6510 O.2   291  TYR291     -0.2867
    142  CB       -14.9490    3.0050  -35.4810 C.3   291  TYR291      0.0534
    143  CG       -15.1060    2.5420  -34.0750 C.ar  291  TYR291     -0.0201
    144  CD1      -15.3380    1.1880  -33.7820 C.ar  291  TYR291     -0.0009
    145  CD2      -15.0290    3.4390  -33.0200 C.ar  291  TYR291     -0.0009
    146  CE1      -15.4850    0.7380  -32.4720 C.ar  291  TYR291      0.0417
    147  CE2      -15.1930    3.0080  -31.7100 C.ar  291  TYR291      0.0417
    148  CZ       -15.4160    1.6510  -31.4390 C.ar  291  TYR291      0.1957
    149  OH       -15.5500    1.2290  -30.1460 O.3   291  TYR291     -0.2866
    150  N        -12.3900    6.9640  -32.1460 N.3   293  ARG293     -0.1245
    151  CA       -13.1760    7.7410  -31.1740 C.3   293  ARG293      0.1563
    152  C        -12.5720    9.1460  -31.1460 C.2   293  ARG293      0.2260
    153  O        -11.3300    9.2940  -31.0260 O.2   293  ARG293     -0.2867
    154  CB       -13.0770    7.0990  -29.7800 C.3   293  ARG293      0.0307
    155  CG       -14.2120    6.1840  -29.4350 C.3   293  ARG293      0.0489
    156  CD       -15.1210    6.8420  -28.4420 C.3   293  ARG293      0.2205
    157  NE       -16.3010    6.0350  -28.2090 N.pl3 293  ARG293     -0.0865
    158  CZ       -17.5350    6.4930  -28.1120 C.cat 293  ARG293      0.5346
    159  NH1      -17.8270    7.7860  -28.2740 N.pl3 293  ARG293      0.1354
    160  NH2      -18.5100    5.6280  -27.8820 N.pl3 293  ARG293      0.1354
    161  N        -28.9790   11.0140  -27.8670 N.3   316  PRO316     -0.2102
    162  CA       -28.0780   11.1690  -28.9950 C.3   316  PRO316      0.1504
    163  C        -27.2100   12.4120  -28.8960 C.2   316  PRO316      0.2575
    164  O        -27.3760   13.2090  -27.9770 O.2   316  PRO316     -0.2718
    165  CB       -29.0470   11.3850  -30.1590 C.3   316  PRO316      0.0282
    166  CG       -30.1690   12.1280  -29.5190 C.3   316  PRO316      0.0208
    167  CD       -30.3490   11.4360  -28.1960 C.3   316  PRO316      0.0893
    168  N        -26.3240   12.5900  -29.8630 N.am  317  TYR317     -0.1977
    169  CA       -25.5470   13.8110  -29.9240 C.3   317  TYR317      0.1639
    170  C        -26.5110   14.9920  -29.9340 C.2   317  TYR317      0.2290
    171  O        -27.3730   15.0750  -30.7960 O.2   317  TYR317     -0.2864
    172  CB       -24.6820   13.8380  -31.1690 C.3   317  TYR317      0.0560
    173  CG       -23.6710   14.9470  -31.1790 C.ar  317  TYR317     -0.0198
    174  CD1      -22.5820   14.9180  -30.3330 C.ar  317  TYR317     -0.0009
    175  CD2      -23.7840   16.0150  -32.0510 C.ar  317  TYR317     -0.0009
    176  CE1      -21.6410   15.9260  -30.3510 C.ar  317  TYR317      0.0417
    177  CE2      -22.8450   17.0250  -32.0700 C.ar  317  TYR317      0.0417
    178  CZ       -21.7860   16.9730  -31.2110 C.ar  317  TYR317      0.1957
    179  OH       -20.8300   17.9470  -31.2330 O.3   317  TYR317     -0.2866
    180  N        -24.3720   10.6640  -40.8710 N.3   333  ASP333     -0.1225
    181  CA       -24.7730    9.8550  -39.7010 C.3   333  ASP333      0.1805
    182  C        -25.0650   10.7000  -38.4570 C.2   333  ASP333      0.2598
    183  O        -25.5870   10.1780  -37.5110 O.2   333  ASP333     -0.2718
    184  CB       -23.7660    8.7110  -39.4060 C.3   333  ASP333      0.1424
    185  CG       -23.8530    7.5440  -40.4360 C.2   333  ASP333      0.3668
    186  OD1      -24.9900    7.1860  -40.8440 O.co2 333  ASP333     -0.2456
    187  OD2      -22.7910    6.9910  -40.8490 O.co2 333  ASP333     -0.2456
    188  N        -24.7490   11.9940  -38.4690 N.am  334  LYS334     -0.1966
    189  CA       -25.1680   12.9550  -37.4240 C.3   334  LYS334      0.1728
    190  C        -24.4490   12.8300  -36.0430 C.2   334  LYS334      0.2616
    191  O        -25.0310   13.1250  -34.9990 O.2   334  LYS334     -0.2715
    192  CB       -26.7060   12.9460  -37.2660 C.3   334  LYS334      0.0311
    193  CG       -27.3010   11.8600  -36.3640 C.3   334  LYS334      0.0038
    194  CD       -27.7290   12.3640  -34.9780 C.3   334  LYS334      0.0206
    195  CE       -28.8580   11.5380  -34.3580 C.3   334  LYS334      0.1093
    196  NZ       -30.1810   11.6700  -35.0320 N.3   334  LYS334     -0.1314
    197  N        -23.1800   12.4120  -36.0430 N.am  335  ASP335     -0.1971
    198  CA       -22.4360   12.2530  -34.8110 C.3   335  ASP335      0.1709
    199  C        -20.9560   12.3570  -35.0850 C.2   335  ASP335      0.2293
    200  O        -20.3550   11.5580  -35.7900 O.2   335  ASP335     -0.2864
    201  CB       -22.7820   10.9210  -34.1310 C.3   335  ASP335      0.1436
    202  CG       -22.3060   10.8480  -32.6750 C.2   335  ASP335      0.3671
    203  OD1      -21.1410   11.2460  -32.4220 O.co2 335  ASP335     -0.2456
    204  OD2      -23.0880   10.3560  -31.8180 O.co2 335  ASP335     -0.2456
    205  N        -17.7170    9.4850  -33.4410 N.3   338  ILE338     -0.1245
    206  CA       -17.3410    8.1970  -34.0420 C.3   338  ILE338      0.1561
    207  C        -17.1000    8.3330  -35.5430 C.2   338  ILE338      0.2260
    208  O        -17.9730    8.7650  -36.2900 O.2   338  ILE338     -0.2867
    209  CB       -18.4880    7.1330  -33.8850 C.3   338  ILE338      0.0252
    210  CG1      -18.8420    6.8700  -32.4250 C.3   338  ILE338      0.0019
    211  CG2      -18.1180    5.8000  -34.5330 C.3   338  ILE338      0.0019
    212  CD1      -17.6580    6.4880  -31.5610 C.3   338  ILE338      0.0001
    213  N        -15.1880   -4.6670  -34.9060 N.3   402  TRP402     -0.1241
    214  CA       -16.4440   -4.0170  -35.2360 C.3   402  TRP402      0.1605
    215  C        -16.1420   -2.7350  -36.0160 C.2   402  TRP402      0.2264
    216  O        -15.4520   -1.8580  -35.4880 O.2   402  TRP402     -0.2867
    217  CB       -17.2050   -3.6880  -33.9840 C.3   402  TRP402      0.0550
    218  CG       -18.2330   -2.7160  -34.2060 C.ar  402  TRP402      0.0003
    219  CD1      -18.0840   -1.3620  -34.2630 C.ar  402  TRP402      0.0946
    220  CD2      -19.5990   -2.9810  -34.4010 C.ar  402  TRP402      0.0152
    221  NE1      -19.3060   -0.7600  -34.4160 N.ar  402  TRP402     -0.2442
    222  CE2      -20.2550   -1.7250  -34.5460 C.ar  402  TRP402      0.0810
    223  CE3      -20.3480   -4.1470  -34.4490 C.ar  402  TRP402      0.0012
    224  CZ2      -21.6200   -1.6010  -34.7650 C.ar  402  TRP402      0.0191
    225  CZ3      -21.7440   -4.0330  -34.6370 C.ar  402  TRP402      0.0001
    226  CH2      -22.3560   -2.7650  -34.8120 C.ar  402  TRP402      0.0015
    227  N        -17.0410   -0.6880  -41.9270 N.3   406  GLN406     -0.1245
    228  CA       -16.1980    0.4760  -41.6140 C.3   406  GLN406      0.1566
    229  C        -14.7740    0.2490  -42.0560 C.2   406  GLN406      0.2260
    230  O        -13.8920    1.0600  -41.7560 O.2   406  GLN406     -0.2867
    231  CB       -16.1380    0.7250  -40.1160 C.3   406  GLN406      0.0367
    232  CG       -17.4480    1.1230  -39.4580 C.3   406  GLN406      0.0905
    233  CD       -17.2760    1.1290  -37.9710 C.2   406  GLN406      0.2608
    234  OE1      -16.3040    0.5630  -37.4840 O.2   406  GLN406     -0.2717
    235  NE2      -18.1750    1.7660  -37.2490 N.am  406  GLN406     -0.0878
@<TRIPOS>BOND
     1    34    33    2
     2    33    32    1
     3    32    35    1
     4    32    31    1
     5    37    36    2
     6    35    36    1
     7    36    38   am
     8    27    26    2
     9   229   230    2
    10   229   228    1
    11   227   228    1
    12    30    24    1
    13    30    29    1
    14    16    15    2
    15   228   231    1
    16    24    25    1
    17    26    25    1
    18    29    28    1
    19    15    14    1
    20   180   181    1
    21   187   185   ar
    22   186   185   ar
    23    28    25    1
    24   185   184    1
    25   231   232    1
    26    13    14    1
    27   181   184    1
    28   181   182    1
    29    14    17    1
    30   232   233    1
    31     4     3    2
    32     3     2    1
    33    17    18    1
    34    20    18   ar
    35    20    22   ar
    36   188   182   am
    37   188   189    1
    38   182   183    2
    39    18    19   ar
    40    22    23   ar
    41   233   234    2
    42   233   235   am
    43    19    21   ar
    44     1     2    1
    45    23    21   ar
    46   189   192    1
    47   189   190    1
    48     2     5    1
    49   192   193    1
    50    39    40    1
    51   193   194    1
    52   208   207    2
    53     5     6    1
    54   138   139    1
    55   190   197   am
    56   190   191    2
    57   197   198    1
    58   139   142    1
    59   139   140    1
    60   215   216    2
    61   215   214    1
    62   200   199    2
    63    42    41    2
    64   207   206    1
    65   142   143    1
    66   214   213    1
    67   214   217    1
    68    40    41    1
    69    40    43    1
    70   140   141    2
    71   199   198    1
    72   196   195    1
    73   194   195    1
    74     6     8   ar
    75     6     7   ar
    76   226   224   ar
    77   226   225   ar
    78   198   201    1
    79   224   222   ar
    80   225   223   ar
    81   222   221   ar
    82   222   220   ar
    83   211   209    1
    84   223   220   ar
    85     8    10   ar
    86   221   219   ar
    87   220   218   ar
    88   219   218   ar
    89   218   217    1
    90     7     9   ar
    91    43    44    1
    92   201   202    1
    93   143   144   ar
    94   143   145   ar
    95   206   209    1
    96   206   205    1
    97   209   210    1
    98    87    86    1
    99   144   146   ar
   100    46    44   ar
   101    46    48   ar
   102    44    45   ar
   103    10    11   ar
   104    48    49   ar
   105   145   147   ar
   106     9    11   ar
   107   202   203   ar
   108   202   204   ar
   109    45    47   ar
   110    86    85   ar
   111    86    84   ar
   112    11    12    1
   113   146   148   ar
   114   210   212    1
   115    85    83   ar
   116    49    47   ar
   117   150   151    1
   118   177   175   ar
   119   177   178   ar
   120   175   173   ar
   121   147   148   ar
   122    84    82   ar
   123   148   149    1
   124   179   178    1
   125   178   176   ar
   126   173   172    1
   127   173   174   ar
   128   151   152    1
   129   151   154    1
   130   172   169    1
   131   152   153    2
   132    83    81   ar
   133   171   170    2
   134   129   128    1
   135    73    71   ar
   136    73    74   ar
   137    71    69   ar
   138   127   128   ar
   139   127   125   ar
   140   176   174   ar
   141   128   126   ar
   142    82    81   ar
   143   165   166    1
   144   165   162    1
   145    81    80    1
   146    75    74    1
   147   125   123   ar
   148    74    72   ar
   149   170   169    1
   150   169   168    1
   151    69    68    1
   152    69    70   ar
   153   168   163   am
   154    68    65    1
   155   126   124   ar
   156   154   155    1
   157    95    93   ar
   158   166   167    1
   159   123   124   ar
   160   123   122    1
   161   155   156    1
   162    72    70   ar
   163   122   119    1
   164   162   163    1
   165   162   161    1
   166   163   164    2
   167    92    93    1
   168    92    89    1
   169    80    77    1
   170    93    94   ar
   171   156   157    1
   172    65    64    1
   173    65    66    1
   174    64    52   am
   175   159   158    1
   176    50    51    1
   177   157   158    2
   178   167   161    1
   179    76    66   am
   180    76    77    1
   181   158   160    1
   182   136   135   ar
   183   109   106    1
   184    88    89    1
   185    66    67    2
   186    77    78    1
   187    89    90    1
   188   119   120    1
   189   119   118    1
   190   115   116    1
   191   115   114    1
   192    54    51    1
   193    54    55    1
   194    60    62   ar
   195    60    57   ar
   196   135   137   ar
   197   135   134    1
   198    51    52    1
   199   130   120   am
   200   130   131    1
   201    52    53    2
   202   104   102   ar
   203   105   106    1
   204   116   117    1
   205   106   107    1
   206    91    90    2
   207    62    63   ar
   208   120   121    2
   209   134   131    1
   210   111   114    1
   211   111   112    1
   212   111   110    1
   213   131   132    1
   214    78    79    2
   215    57    55   ar
   216    57    59   ar
   217    55    56   ar
   218   112   113    2
   219   102   103   ar
   220   102   101    1
   221    63    61   ar
   222   107   108    2
   223   132   133    2
   224   101   100    1
   225    59    61   ar
   226    59    58   ar
   227    56    58   ar
   228   100    97    1
   229    96    97    1
   230    97    98    1
   231    99    98    2
