@<TRIPOS>MOLECULE
tmp/4z2hA00.pdb
 245 240 0 0 0
SMALL
GASTEIGER

@<TRIPOS>ATOM
      1  N        -18.3890   -9.2760  -37.8710 N.3     9  TYR9       -0.1241
      2  CA       -19.7710   -8.8770  -37.8810 C.3     9  TYR9        0.1605
      3  C        -20.1700   -8.2370  -39.1960 C.2     9  TYR9        0.2264
      4  O        -19.4650   -7.3670  -39.7350 O.2     9  TYR9       -0.2867
      5  CB       -20.0890   -7.9090  -36.7370 C.3     9  TYR9        0.0534
      6  CG       -20.3320   -8.5910  -35.4270 C.ar    9  TYR9       -0.0201
      7  CD1      -19.2690   -8.9460  -34.6000 C.ar    9  TYR9       -0.0009
      8  CD2      -21.6280   -8.8940  -35.0120 C.ar    9  TYR9       -0.0009
      9  CE1      -19.5000   -9.5790  -33.3900 C.ar    9  TYR9        0.0417
     10  CE2      -21.8620   -9.5480  -33.8260 C.ar    9  TYR9        0.0417
     11  CZ       -20.8060   -9.8590  -32.9990 C.ar    9  TYR9        0.1957
     12  OH       -21.0470  -10.4430  -31.7740 O.3     9  TYR9       -0.2866
     13  N        -23.3740   -6.1390  -40.2150 N.3    11  PHE11      -0.1241
     14  CA       -24.5550   -5.4820  -39.6920 C.3    11  PHE11       0.1605
     15  C        -25.3260   -4.8090  -40.8060 C.2    11  PHE11       0.2264
     16  O        -24.7480   -4.1440  -41.6420 O.2    11  PHE11      -0.2867
     17  CB       -24.1800   -4.4170  -38.6900 C.3    11  PHE11       0.0534
     18  CG       -25.3540   -3.6310  -38.2220 C.ar   11  PHE11      -0.0203
     19  CD1      -26.3630   -4.2510  -37.5080 C.ar   11  PHE11      -0.0042
     20  CD2      -25.5620   -2.3420  -38.6650 C.ar   11  PHE11      -0.0042
     21  CE1      -27.4960   -3.5590  -37.1210 C.ar   11  PHE11      -0.0003
     22  CE2      -26.7300   -1.6720  -38.3480 C.ar   11  PHE11      -0.0003
     23  CZ       -27.6780   -2.2640  -37.5320 C.ar   11  PHE11      -0.0000
     24  N        -29.0840   -2.5150  -41.2370 N.3    13  PRO13      -0.2116
     25  CA       -30.3450   -2.0840  -40.6030 C.3    13  PRO13       0.1372
     26  C        -31.5990   -2.4720  -41.3940 C.2    13  PRO13       0.2244
     27  O        -31.5230   -2.8840  -42.5720 O.2    13  PRO13      -0.2868
     28  CB       -30.1800   -0.5580  -40.4700 C.3    13  PRO13       0.0268
     29  CG       -29.2250   -0.1910  -41.5690 C.3    13  PRO13       0.0207
     30  CD       -28.2900   -1.3800  -41.7310 C.3    13  PRO13       0.0892
     31  N        -28.6670   -7.5440  -36.6180 N.3    50  PHE50      -0.1241
     32  CA       -29.0210   -8.1720  -35.3470 C.3    50  PHE50       0.1605
     33  C        -30.4690   -8.6630  -35.4010 C.2    50  PHE50       0.2264
     34  O        -31.3530   -7.9560  -35.8810 O.2    50  PHE50      -0.2867
     35  CB       -28.9130   -7.1700  -34.1780 C.3    50  PHE50       0.0534
     36  CG       -27.5110   -6.9350  -33.6990 C.ar   50  PHE50      -0.0203
     37  CD1      -26.8170   -7.9330  -33.0570 C.ar   50  PHE50      -0.0042
     38  CD2      -26.8750   -5.7120  -33.9300 C.ar   50  PHE50      -0.0042
     39  CE1      -25.4960   -7.7380  -32.6710 C.ar   50  PHE50      -0.0003
     40  CE2      -25.5770   -5.5050  -33.5180 C.ar   50  PHE50      -0.0003
     41  CZ       -24.8910   -6.5190  -32.8750 C.ar   50  PHE50      -0.0000
     42  N        -26.1850   -3.7380  -28.5450 N.3    96  TRP96      -0.1227
     43  CA       -26.3440   -2.6770  -27.5380 C.3    96  TRP96       0.1737
     44  C        -27.7370   -2.0910  -27.6240 C.2    96  TRP96       0.2595
     45  O        -28.3970   -1.9610  -26.6050 O.2    96  TRP96      -0.2718
     46  CB       -25.2760   -1.5820  -27.6480 C.3    96  TRP96       0.0564
     47  CG       -25.4480   -0.4530  -26.6530 C.ar   96  TRP96       0.0003
     48  CD1      -26.1250    0.7380  -26.8640 C.ar   96  TRP96       0.0946
     49  CD2      -24.9680   -0.4090  -25.2970 C.ar   96  TRP96       0.0152
     50  NE1      -26.0930    1.4970  -25.7140 N.ar   96  TRP96      -0.2442
     51  CE2      -25.3860    0.8220  -24.7440 C.ar   96  TRP96       0.0810
     52  CE3      -24.2340   -1.2940  -24.4940 C.ar   96  TRP96       0.0012
     53  CZ2      -25.1110    1.1860  -23.4060 C.ar   96  TRP96       0.0191
     54  CZ3      -23.9390   -0.9260  -23.1300 C.ar   96  TRP96       0.0001
     55  CH2      -24.3900    0.2980  -22.6130 C.ar   96  TRP96       0.0015
     56  N        -28.2180   -1.8040  -28.8300 N.am   97  TYR97      -0.1962
     57  CA       -29.4720   -1.0480  -28.9610 C.3    97  TYR97       0.1771
     58  C        -30.6580   -1.8000  -28.3750 C.2    97  TYR97       0.2619
     59  O        -31.4060   -1.2670  -27.5670 O.2    97  TYR97      -0.2715
     60  CB       -29.7440   -0.7270  -30.4300 C.3    97  TYR97       0.0574
     61  CG       -31.0180    0.0540  -30.6660 C.ar   97  TYR97      -0.0198
     62  CD1      -31.1280    1.3980  -30.2680 C.ar   97  TYR97      -0.0009
     63  CD2      -32.1230   -0.5560  -31.2750 C.ar   97  TYR97      -0.0009
     64  CE1      -32.2970    2.1090  -30.5030 C.ar   97  TYR97       0.0417
     65  CE2      -33.2930    0.1360  -31.5030 C.ar   97  TYR97       0.0417
     66  CZ       -33.3700    1.4700  -31.1350 C.ar   97  TYR97       0.1957
     67  OH       -34.5320    2.1400  -31.3520 O.3    97  TYR97      -0.2866
     68  N        -30.7750   -3.0730  -28.7360 N.am   98  TYR98      -0.1974
     69  CA       -31.8410   -3.9150  -28.2180 C.3    98  TYR98       0.1639
     70  C        -31.6820   -4.2780  -26.7280 C.2    98  TYR98       0.2290
     71  O        -32.6690   -4.2270  -25.9710 O.2    98  TYR98      -0.2864
     72  CB       -31.9320   -5.1630  -29.0600 C.3    98  TYR98       0.0560
     73  CG       -32.4410   -4.9860  -30.4620 C.ar   98  TYR98      -0.0198
     74  CD1      -33.3830   -4.0160  -30.7720 C.ar   98  TYR98      -0.0009
     75  CD2      -32.1460   -5.9390  -31.4390 C.ar   98  TYR98      -0.0009
     76  CE1      -33.9330   -3.9130  -32.0580 C.ar   98  TYR98       0.0417
     77  CE2      -32.6730   -5.8490  -32.7110 C.ar   98  TYR98       0.0417
     78  CZ       -33.5570   -4.8160  -33.0220 C.ar   98  TYR98       0.1957
     79  OH       -34.1460   -4.7640  -34.2560 O.3    98  TYR98      -0.2866
     80  N        -25.4150  -11.5000  -28.0890 N.3   141  ASP141     -0.1239
     81  CA       -24.7170  -10.2420  -27.7900 C.3   141  ASP141      0.1674
     82  C        -25.6260   -9.4210  -26.8700 C.2   141  ASP141      0.2266
     83  O        -26.1430   -8.3880  -27.2490 O.2   141  ASP141     -0.2867
     84  CB       -24.3860   -9.5180  -29.0920 C.3   141  ASP141      0.1410
     85  CG       -23.6700   -8.1790  -28.8820 C.2   141  ASP141      0.3668
     86  OD1      -23.1770   -7.8880  -27.7690 O.co2 141  ASP141     -0.2456
     87  OD2      -23.5980   -7.3890  -29.8620 O.co2 141  ASP141     -0.2456
     88  N        -25.7940   -7.1060  -23.9130 N.3   143  GLU143     -0.1245
     89  CA       -24.8560   -6.2360  -23.2220 C.3   143  GLU143      0.1567
     90  C        -25.5030   -5.4890  -22.0430 C.2   143  GLU143      0.2260
     91  O        -25.8490   -4.3370  -22.2120 O.2   143  GLU143     -0.2867
     92  CB       -24.2800   -5.2510  -24.2500 C.3   143  GLU143      0.0388
     93  CG       -23.4840   -5.9320  -25.3590 C.3   143  GLU143      0.1160
     94  CD       -22.9710   -4.9830  -26.4370 C.2   143  GLU143      0.3649
     95  OE1      -22.7590   -3.7910  -26.1580 O.co2 143  GLU143     -0.2457
     96  OE2      -22.6920   -5.4560  -27.5600 O.co2 143  GLU143     -0.2457
     97  N        -20.8080  -12.5580  -27.5140 N.3   183  ALA183     -0.1245
     98  CA       -19.9710  -11.3700  -27.4220 C.3   183  ALA183      0.1562
     99  C        -19.8420  -11.0950  -25.9350 C.2   183  ALA183      0.2260
    100  O        -20.8390  -10.9480  -25.2750 O.2   183  ALA183     -0.2867
    101  CB       -20.6430  -10.2020  -28.1200 C.3   183  ALA183      0.0290
    102  N        -15.1840   -8.3330  -26.2620 N.3   211  MET211     -0.1245
    103  CA       -15.2880   -6.9860  -26.8310 C.3   211  MET211      0.1570
    104  C        -14.2380   -6.1180  -26.2280 C.2   211  MET211      0.2261
    105  O        -14.5250   -5.1700  -25.4920 O.2   211  MET211     -0.2867
    106  CB       -16.6990   -6.4120  -26.6430 C.3   211  MET211      0.0387
    107  CG       -17.7040   -7.1650  -27.4850 C.3   211  MET211      0.0595
    108  SD       -19.4210   -6.5980  -27.3520 S.3   211  MET211     -0.1393
    109  CE       -19.8200   -7.1070  -25.6870 C.3   211  MET211      0.0692
    110  N        -12.5720   -3.5730  -26.9860 N.3   213  TYR213     -0.1227
    111  CA       -12.5100   -2.2770  -27.6340 C.3   213  TYR213      0.1736
    112  C        -13.5710   -1.4320  -26.9190 C.2   213  TYR213      0.2595
    113  O        -14.1630   -1.8930  -25.9350 O.2   213  TYR213     -0.2718
    114  CB       -12.7540   -2.4110  -29.1570 C.3   213  TYR213      0.0548
    115  CG       -13.8470   -3.3740  -29.5810 C.ar  213  TYR213     -0.0200
    116  CD1      -15.1760   -3.0300  -29.4660 C.ar  213  TYR213     -0.0009
    117  CD2      -13.5530   -4.5970  -30.1270 C.ar  213  TYR213     -0.0009
    118  CE1      -16.1820   -3.9010  -29.8340 C.ar  213  TYR213      0.0417
    119  CE2      -14.5560   -5.4830  -30.5270 C.ar  213  TYR213      0.0417
    120  CZ       -15.8670   -5.1310  -30.3880 C.ar  213  TYR213      0.1957
    121  OH       -16.8830   -5.9560  -30.7910 O.3   213  TYR213     -0.2866
    122  N        -13.7230   -0.1630  -27.2910 N.am  214  ASP214     -0.1974
    123  CA       -14.5760    0.7520  -26.5380 C.3   214  ASP214      0.1709
    124  C        -14.1540    0.8450  -25.0830 C.2   214  ASP214      0.2293
    125  O        -14.9820    1.0590  -24.1890 O.2   214  ASP214     -0.2864
    126  CB       -16.0700    0.3610  -26.6570 C.3   214  ASP214      0.1436
    127  CG       -16.7620    1.0630  -27.8140 C.2   214  ASP214      0.3671
    128  OD1      -16.0770    1.5210  -28.7610 O.co2 214  ASP214     -0.2456
    129  OD2      -17.9940    1.2250  -27.7590 O.co2 214  ASP214     -0.2456
    130  N        -12.9760    0.5490  -36.3280 N.3   291  TYR291     -0.1241
    131  CA       -13.4340    1.9500  -36.2630 C.3   291  TYR291      0.1605
    132  C        -12.5860    2.7150  -35.2430 C.2   291  TYR291      0.2264
    133  O        -11.9690    2.1090  -34.3740 O.2   291  TYR291     -0.2867
    134  CB       -14.9230    2.0140  -35.8540 C.3   291  TYR291      0.0534
    135  CG       -15.2000    1.5000  -34.4320 C.ar  291  TYR291     -0.0201
    136  CD1      -15.4780    0.1690  -34.2100 C.ar  291  TYR291     -0.0009
    137  CD2      -15.1730    2.3450  -33.3390 C.ar  291  TYR291     -0.0009
    138  CE1      -15.6940   -0.3200  -32.9520 C.ar  291  TYR291      0.0417
    139  CE2      -15.3760    1.8690  -32.0490 C.ar  291  TYR291      0.0417
    140  CZ       -15.6810    0.5350  -31.8760 C.ar  291  TYR291      0.1957
    141  OH       -15.8620   -0.0120  -30.6450 O.3   291  TYR291     -0.2866
    142  N        -12.5960    5.9180  -32.3240 N.3   293  ARG293     -0.1245
    143  CA       -13.3800    6.8930  -31.5470 C.3   293  ARG293      0.1563
    144  C        -12.7190    8.2570  -31.5140 C.2   293  ARG293      0.2260
    145  O        -11.5000    8.3620  -31.2280 O.2   293  ARG293     -0.2867
    146  CB       -13.5600    6.3880  -30.1310 C.3   293  ARG293      0.0307
    147  CG       -14.5860    5.2770  -30.0720 C.3   293  ARG293      0.0489
    148  CD       -15.2570    5.2130  -28.7320 C.3   293  ARG293      0.2205
    149  NE       -16.4480    4.3810  -28.7790 N.pl3 293  ARG293     -0.0865
    150  CZ       -17.6980    4.8310  -28.8040 C.cat 293  ARG293      0.5346
    151  NH1      -17.9500    6.1140  -28.8570 N.pl3 293  ARG293      0.1354
    152  NH2      -18.6990    3.9680  -28.7300 N.pl3 293  ARG293      0.1354
    153  N        -27.0460   10.8780  -26.5250 N.3   315  ASP315     -0.1225
    154  CA       -27.5890   10.2280  -27.7180 C.3   315  ASP315      0.1790
    155  C        -29.0280   10.7080  -27.9170 C.2   315  ASP315      0.2440
    156  O        -29.7830   10.7110  -26.9750 O.2   315  ASP315     -0.2733
    157  CB       -27.5780    8.7120  -27.5340 C.3   315  ASP315      0.1423
    158  CG       -28.5820    8.0020  -28.4280 C.2   315  ASP315      0.3668
    159  OD1      -28.9080    8.5250  -29.5120 O.co2 315  ASP315     -0.2456
    160  OD2      -29.0320    6.8970  -28.0560 O.co2 315  ASP315     -0.2456
    161  N        -29.3800   11.2080  -29.1170 N.am  316  PRO316     -0.2718
    162  CA       -28.5240   11.3930  -30.3000 C.3   316  PRO316      0.1535
    163  C        -27.5040   12.5440  -30.1430 C.2   316  PRO316      0.2598
    164  O        -27.5890   13.3320  -29.1980 O.2   316  PRO316     -0.2715
    165  CB       -29.5310   11.7340  -31.4080 C.3   316  PRO316      0.0310
    166  CG       -30.7370   12.3010  -30.6850 C.3   316  PRO316      0.0237
    167  CD       -30.6040   12.0260  -29.2080 C.3   316  PRO316      0.0939
    168  N        -26.5680   12.6380  -31.0910 N.am  317  TYR317     -0.1974
    169  CA       -25.6050   13.7050  -31.0910 C.3   317  TYR317      0.1639
    170  C        -26.3990   14.9890  -30.9880 C.2   317  TYR317      0.2290
    171  O        -27.3800   15.1430  -31.6970 O.2   317  TYR317     -0.2864
    172  CB       -24.7170   13.6830  -32.3420 C.3   317  TYR317      0.0560
    173  CG       -23.5530   14.6070  -32.1800 C.ar  317  TYR317     -0.0198
    174  CD1      -22.5730   14.3480  -31.2450 C.ar  317  TYR317     -0.0009
    175  CD2      -23.5020   15.8010  -32.8610 C.ar  317  TYR317     -0.0009
    176  CE1      -21.5740   15.2640  -30.9840 C.ar  317  TYR317      0.0417
    177  CE2      -22.5010   16.7290  -32.6140 C.ar  317  TYR317      0.0417
    178  CZ       -21.5430   16.4440  -31.6840 C.ar  317  TYR317      0.1957
    179  OH       -20.5570   17.3450  -31.4480 O.3   317  TYR317     -0.2866
    180  N        -23.9430   10.2570  -41.2550 N.3   333  ASP333     -0.1239
    181  CA       -24.5730    9.6590  -40.0700 C.3   333  ASP333      0.1674
    182  C        -24.8830   10.6820  -38.9530 C.2   333  ASP333      0.2266
    183  O        -25.4380   10.3260  -37.9270 O.2   333  ASP333     -0.2867
    184  CB       -23.7340    8.5040  -39.5180 C.3   333  ASP333      0.1410
    185  CG       -23.4760    7.3930  -40.5490 C.2   333  ASP333      0.3668
    186  OD1      -24.3000    7.2020  -41.4690 O.co2 333  ASP333     -0.2456
    187  OD2      -22.4230    6.7260  -40.4530 O.co2 333  ASP333     -0.2456
    188  N        -23.0690   12.1390  -36.7760 N.3   335  ASP335     -0.1239
    189  CA       -22.3820   11.8990  -35.5580 C.3   335  ASP335      0.1674
    190  C        -20.8750   11.8850  -35.8570 C.2   335  ASP335      0.2266
    191  O        -20.3970   11.1590  -36.6910 O.2   335  ASP335     -0.2867
    192  CB       -22.8860   10.5820  -34.9110 C.3   335  ASP335      0.1410
    193  CG       -22.4570   10.4350  -33.4730 C.2   335  ASP335      0.3668
    194  OD1      -21.3620   10.9370  -33.0890 O.co2 335  ASP335     -0.2456
    195  OD2      -23.1660    9.7560  -32.7230 O.co2 335  ASP335     -0.2456
    196  N        -18.4580   11.1940  -33.7200 N.3   337  ARG337     -0.1231
    197  CA       -17.7650   10.5280  -32.6640 C.3   337  ARG337      0.1694
    198  C        -17.1270    9.2060  -33.0340 C.2   337  ARG337      0.2591
    199  O        -16.3060    8.6880  -32.2870 O.2   337  ARG337     -0.2718
    200  CB       -18.7280   10.3250  -31.5160 C.3   337  ARG337      0.0321
    201  CG       -18.9820   11.6380  -30.7910 C.3   337  ARG337      0.0489
    202  CD       -20.0540   11.4600  -29.7300 C.3   337  ARG337      0.2205
    203  NE       -21.3200   11.0120  -30.3050 N.pl3 337  ARG337     -0.0865
    204  CZ       -22.4400   10.9280  -29.6150 C.cat 337  ARG337      0.5346
    205  NH1      -22.4830   11.3140  -28.3330 N.pl3 337  ARG337      0.1354
    206  NH2      -23.5370   10.5330  -30.2210 N.pl3 337  ARG337      0.1354
    207  N        -17.5820    8.6210  -34.1340 N.am  338  ILE338     -0.1980
    208  CA       -17.0410    7.3340  -34.5900 C.3   338  ILE338      0.1595
    209  C        -16.8130    7.3970  -36.0880 C.2   338  ILE338      0.2287
    210  O        -17.7060    7.7870  -36.8170 O.2   338  ILE338     -0.2864
    211  CB       -18.0360    6.2140  -34.2900 C.3   338  ILE338      0.0276
    212  CG1      -17.9830    5.8910  -32.8200 C.3   338  ILE338      0.0022
    213  CG2      -17.7280    4.9720  -35.1110 C.3   338  ILE338      0.0022
    214  CD1      -19.1050    5.0040  -32.4050 C.3   338  ILE338      0.0001
    215  N        -12.0200  -11.5220  -33.3990 N.3   400  MET400     -0.1245
    216  CA       -13.3460  -11.0890  -33.8170 C.3   400  MET400      0.1570
    217  C        -13.2540   -9.5860  -34.1070 C.2   400  MET400      0.2261
    218  O        -12.4510   -8.8810  -33.5010 O.2   400  MET400     -0.2867
    219  CB       -14.3540  -11.3770  -32.7050 C.3   400  MET400      0.0387
    220  CG       -15.7540  -10.8090  -32.9180 C.3   400  MET400      0.0595
    221  SD       -15.9940   -9.0750  -32.4130 S.3   400  MET400     -0.1393
    222  CE       -16.2230   -9.2050  -30.6290 C.3   400  MET400      0.0692
    223  N        -15.6480   -5.8210  -35.0830 N.3   402  TRP402     -0.1241
    224  CA       -16.8420   -5.0380  -35.3560 C.3   402  TRP402      0.1605
    225  C        -16.3620   -3.8270  -36.1500 C.2   402  TRP402      0.2264
    226  O        -15.5990   -3.0050  -35.5960 O.2   402  TRP402     -0.2867
    227  CB       -17.5090   -4.5930  -34.0150 C.3   402  TRP402      0.0550
    228  CG       -18.6110   -3.6350  -34.2190 C.ar  402  TRP402      0.0003
    229  CD1      -18.4940   -2.2700  -34.2920 C.ar  402  TRP402      0.0946
    230  CD2      -19.9820   -3.9330  -34.5390 C.ar  402  TRP402      0.0152
    231  NE1      -19.7000   -1.7180  -34.6140 N.ar  402  TRP402     -0.2442
    232  CE2      -20.6310   -2.7030  -34.7630 C.ar  402  TRP402      0.0810
    233  CE3      -20.7200   -5.1100  -34.6390 C.ar  402  TRP402      0.0012
    234  CZ2      -21.9830   -2.6130  -35.0960 C.ar  402  TRP402      0.0191
    235  CZ3      -22.0670   -5.0250  -34.9540 C.ar  402  TRP402      0.0001
    236  CH2      -22.6760   -3.7930  -35.2150 C.ar  402  TRP402      0.0015
    237  N        -16.6810   -1.6060  -42.1190 N.3   406  GLN406     -0.1245
    238  CA       -15.7880   -0.5060  -41.7800 C.3   406  GLN406      0.1566
    239  C        -14.3590   -0.7360  -42.2810 C.2   406  GLN406      0.2260
    240  O        -13.5150    0.1390  -42.1460 O.2   406  GLN406     -0.2867
    241  CB       -15.7830   -0.2680  -40.2640 C.3   406  GLN406      0.0367
    242  CG       -17.1330    0.1470  -39.7010 C.3   406  GLN406      0.0905
    243  CD       -17.2100    0.1140  -38.1680 C.2   406  GLN406      0.2608
    244  OE1      -16.7000   -0.7940  -37.5120 O.2   406  GLN406     -0.2717
    245  NE2      -17.8360    1.1240  -37.6020 N.am  406  GLN406     -0.0878
@<TRIPOS>BOND
     1    27    26    2
     2   239   240    2
     3   239   238    1
     4   237   238    1
     5   238   241    1
     6    30    29    1
     7    30    24    1
     8    16    15    2
     9    29    28    1
    10   186   185   ar
    11    26    25    1
    12   180   181    1
    13    24    25    1
    14    15    14    1
    15    25    28    1
    16   185   187   ar
    17   185   184    1
    18   241   242    1
    19    13    14    1
    20   181   184    1
    21   181   182    1
    22     4     3    2
    23   242   243    1
    24    14    17    1
    25     3     2    1
    26   182   183    2
    27    17    18    1
    28    20    22   ar
    29    20    18   ar
    30    22    23   ar
    31    18    19   ar
    32   243   245   am
    33   243   244    2
    34     2     1    1
    35     2     5    1
    36    23    21   ar
    37    19    21   ar
    38   210   209    2
    39   188   189    1
    40     5     6    1
    41   191   190    2
    42    31    32    1
    43   130   131    1
    44   131   134    1
    45   131   132    1
    46   225   226    2
    47   225   224    1
    48   209   208    1
    49    34    33    2
    50   190   189    1
    51   134   135    1
    52   189   192    1
    53     6     8   ar
    54     6     7   ar
    55    33    32    1
    56   224   223    1
    57   224   227    1
    58    32    35    1
    59   132   133    2
    60   236   234   ar
    61   236   235   ar
    62   213   211    1
    63   234   232   ar
    64     8    10   ar
    65   235   233   ar
    66   192   193    1
    67   232   231   ar
    68   232   230   ar
    69   233   230   ar
    70   231   229   ar
    71     7     9   ar
    72   208   211    1
    73   208   207    1
    74   230   228   ar
    75   135   136   ar
    76   135   137   ar
    77   229   228   ar
    78   211   212    1
    79    79    78    1
    80   228   227    1
    81   136   138   ar
    82    35    36    1
    83   207   198   am
    84   217   216    1
    85   217   218    2
    86    38    36   ar
    87    38    40   ar
    88    10    11   ar
    89   216   215    1
    90   216   219    1
    91   196   197    1
    92    36    37   ar
    93    40    41   ar
    94   193   194   ar
    95   193   195   ar
    96     9    11   ar
    97   137   139   ar
    98    37    39   ar
    99   198   197    1
   100   198   199    2
   101    78    77   ar
   102    78    76   ar
   103    11    12    1
   104   138   140   ar
   105   220   219    1
   106   220   221    1
   107    41    39   ar
   108   175   177   ar
   109   175   173   ar
   110   212   214    1
   111    77    75   ar
   112   197   200    1
   113   177   178   ar
   114   221   222    1
   115   172   173    1
   116   172   169    1
   117   142   143    1
   118   173   174   ar
   119    76    74   ar
   120   139   140   ar
   121   140   141    1
   122   171   170    2
   123   178   179    1
   124   178   176   ar
   125   143   144    1
   126   143   146    1
   127   200   201    1
   128   144   145    2
   129    65    63   ar
   130    65    66   ar
   131    75    73   ar
   132   165   166    1
   133   165   162    1
   134    67    66    1
   135    63    61   ar
   136   174   176   ar
   137    66    64   ar
   138   168   169    1
   139   168   163   am
   140   169   170    1
   141   201   202    1
   142   121   120    1
   143    74    73   ar
   144   166   167    1
   145    61    60    1
   146    61    62   ar
   147   119   120   ar
   148   119   117   ar
   149    64    62   ar
   150    73    72    1
   151    60    57    1
   152   120   118   ar
   153   203   202    1
   154   203   204    2
   155   162   163    1
   156   162   161    1
   157   206   204    1
   158   163   164    2
   159   146   147    1
   160   117   115   ar
   161   147   148    1
   162    87    85   ar
   163   118   116   ar
   164   204   205    1
   165   115   116   ar
   166   115   114    1
   167   159   158   ar
   168   167   161    1
   169   114   111    1
   170   161   155   am
   171    84    85    1
   172    84    81    1
   173    72    69    1
   174    57    56    1
   175    57    58    1
   176    85    86   ar
   177   151   150    1
   178    56    44   am
   179   150   149    2
   180   150   152    1
   181   149   148    1
   182   128   127   ar
   183    68    58   am
   184    68    69    1
   185    42    43    1
   186   158   160   ar
   187   158   157    1
   188    58    59    2
   189    69    70    1
   190   101    98    1
   191    80    81    1
   192   155   154    1
   193   155   156    2
   194   127   129   ar
   195   127   126    1
   196    81    82    1
   197   154   157    1
   198   154   153    1
   199    46    43    1
   200    46    47    1
   201   111   110    1
   202   111   112    1
   203    44    43    1
   204    44    45    2
   205    96    94   ar
   206    97    98    1
   207   107   108    1
   208   107   106    1
   209    98    99    1
   210   108   109    1
   211   122   112   am
   212   122   123    1
   213    83    82    2
   214   112   113    2
   215    48    47   ar
   216    48    50   ar
   217   103   106    1
   218   103   102    1
   219   103   104    1
   220    70    71    2
   221   126   123    1
   222    47    49   ar
   223   123   124    1
   224    94    95   ar
   225    94    93    1
   226   104   105    2
   227    99   100    2
   228    50    51   ar
   229    93    92    1
   230    49    51   ar
   231    49    52   ar
   232   124   125    2
   233    51    53   ar
   234    52    54   ar
   235    92    89    1
   236    88    89    1
   237    53    55   ar
   238    89    90    1
   239    54    55   ar
   240    91    90    2
