@<TRIPOS>MOLECULE
tmp/4z2iA01.pdb
 161 158 0 0 0
SMALL
GASTEIGER

@<TRIPOS>ATOM
      1  N        -25.8870   -3.6280  -28.3770 N.3    96  TRP96      -0.1241
      2  CA       -26.0790   -2.5840  -27.3550 C.3    96  TRP96       0.1605
      3  C        -27.4880   -1.9740  -27.3970 C.2    96  TRP96       0.2264
      4  O        -28.1610   -1.8330  -26.3660 O.2    96  TRP96      -0.2867
      5  CB       -25.0310   -1.5020  -27.5380 C.3    96  TRP96       0.0550
      6  CG       -25.1900   -0.3410  -26.5450 C.ar   96  TRP96       0.0003
      7  CD1      -25.7870    0.8920  -26.8060 C.ar   96  TRP96       0.0946
      8  CD2      -24.7810   -0.3080  -25.1730 C.ar   96  TRP96       0.0152
      9  NE1      -25.7850    1.6450  -25.6520 N.ar   96  TRP96      -0.2442
     10  CE2      -25.1590    0.9440  -24.6500 C.ar   96  TRP96       0.0810
     11  CE3      -24.1610   -1.2210  -24.3250 C.ar   96  TRP96       0.0012
     12  CZ2      -24.9290    1.3000  -23.2970 C.ar   96  TRP96       0.0191
     13  CZ3      -23.9370   -0.8740  -22.9490 C.ar   96  TRP96       0.0001
     14  CH2      -24.3350    0.3650  -22.4580 C.ar   96  TRP96       0.0015
     15  N        -28.9280   -3.2180  -23.8830 N.3   100  ASN100     -0.1225
     16  CA       -28.2890   -2.4920  -22.7870 C.3   100  ASN100      0.1785
     17  C        -29.2900   -2.2810  -21.6830 C.2   100  ASN100      0.2597
     18  O        -30.4740   -2.5240  -21.8990 O.2   100  ASN100     -0.2718
     19  CB       -27.5870   -1.2180  -23.2760 C.3   100  ASN100      0.1169
     20  CG       -28.5300   -0.0020  -23.3870 C.2   100  ASN100      0.2627
     21  OD1      -28.8770    0.5900  -22.3820 O.2   100  ASN100     -0.2716
     22  ND2      -29.0220    0.2600  -24.5780 N.am  100  ASN100     -0.0877
     23  N        -28.8500   -1.8870  -20.4950 N.am  101  ASP101     -0.1960
     24  CA       -29.7470   -1.8760  -19.3160 C.3   101  ASP101      0.1840
     25  C        -30.9630   -0.9620  -19.5150 C.2   101  ASP101      0.2621
     26  O        -32.0040   -1.2290  -18.9580 O.2   101  ASP101     -0.2715
     27  CB       -29.0400   -1.3740  -18.0790 C.3   101  ASP101      0.1450
     28  CG       -27.9560   -2.3140  -17.5780 C.2   101  ASP101      0.3671
     29  OD1      -27.8750   -3.5050  -18.0240 O.co2 101  ASP101     -0.2456
     30  OD2      -27.1290   -1.8350  -16.7650 O.co2 101  ASP101     -0.2456
     31  N        -30.8170    0.0640  -20.3410 N.am  102  LEU102     -0.1977
     32  CA       -31.9210    0.9580  -20.7190 C.3   102  LEU102      0.1596
     33  C        -32.3550    0.7440  -22.1500 C.2   102  LEU102      0.2287
     34  O        -32.9710    1.6120  -22.7190 O.2   102  LEU102     -0.2864
     35  CB       -31.4640    2.4180  -20.5380 C.3   102  LEU102      0.0297
     36  CG       -30.9810    2.7000  -19.1120 C.3   102  LEU102      0.0022
     37  CD1      -30.4950    4.1350  -18.9400 C.3   102  LEU102      0.0001
     38  CD2      -32.0950    2.4200  -18.1310 C.3   102  LEU102      0.0001
     39  N        -13.9080   -5.3470  -20.5550 N.3   187  GLY187     -0.1225
     40  CA       -13.4170   -4.4790  -19.4900 C.3   187  GLY187      0.1811
     41  C        -14.0190   -4.9180  -18.1760 C.2   187  GLY187      0.2280
     42  O        -15.1650   -5.4060  -18.1390 O.2   187  GLY187     -0.2866
     43  N        -15.3780   -3.6600  -15.4710 N.3   189  PHE189     -0.1227
     44  CA       -16.5770   -3.1560  -14.8400 C.3   189  PHE189      0.1736
     45  C        -17.8170   -3.9150  -15.2940 C.2   189  PHE189      0.2595
     46  O        -18.5830   -4.4060  -14.4700 O.2   189  PHE189     -0.2718
     47  CB       -16.7620   -1.6500  -15.0480 C.3   189  PHE189      0.0547
     48  CG       -15.7080   -0.8260  -14.3880 C.ar  189  PHE189     -0.0202
     49  CD1      -15.8040   -0.5390  -13.0400 C.ar  189  PHE189     -0.0042
     50  CD2      -14.5980   -0.3450  -15.1130 C.ar  189  PHE189     -0.0042
     51  CE1      -14.8240    0.1970  -12.4120 C.ar  189  PHE189     -0.0003
     52  CE2      -13.6090    0.3450  -14.4930 C.ar  189  PHE189     -0.0003
     53  CZ       -13.7040    0.5990  -13.1230 C.ar  189  PHE189     -0.0000
     54  N        -17.9270   -4.1570  -16.5900 N.am  190  PHE190     -0.1976
     55  CA       -19.0260   -4.9680  -17.0850 C.3   190  PHE190      0.1639
     56  C        -18.7880   -6.4860  -16.8760 C.2   190  PHE190      0.2290
     57  O        -19.7100   -7.1970  -16.5310 O.2   190  PHE190     -0.2864
     58  CB       -19.2780   -4.7000  -18.5560 C.3   190  PHE190      0.0560
     59  CG       -19.9100   -3.3920  -18.8100 C.ar  190  PHE190     -0.0200
     60  CD1      -21.1200   -3.0680  -18.1810 C.ar  190  PHE190     -0.0042
     61  CD2      -19.3060   -2.4700  -19.6400 C.ar  190  PHE190     -0.0042
     62  CE1      -21.7530   -1.8580  -18.4330 C.ar  190  PHE190     -0.0003
     63  CE2      -19.9450   -1.2600  -19.9040 C.ar  190  PHE190     -0.0003
     64  CZ       -21.1600   -0.9460  -19.2850 C.ar  190  PHE190     -0.0000
     65  N        -20.0800   -8.2680  -13.7220 N.3   193  ARG193     -0.1245
     66  CA       -21.4490   -8.7710  -13.5910 C.3   193  ARG193      0.1563
     67  C        -21.5580  -10.3080  -13.5770 C.2   193  ARG193      0.2260
     68  O        -22.3980  -10.8630  -12.8840 O.2   193  ARG193     -0.2867
     69  CB       -22.3320   -8.2530  -14.7070 C.3   193  ARG193      0.0307
     70  CG       -22.5790   -6.7540  -14.6560 C.3   193  ARG193      0.0489
     71  CD       -23.2000   -6.2800  -15.9500 C.3   193  ARG193      0.2205
     72  NE       -23.5500   -4.8750  -15.8100 N.pl3 193  ARG193     -0.0865
     73  CZ       -24.6050   -4.2620  -16.3030 C.cat 193  ARG193      0.5346
     74  NH1      -25.4910   -4.8410  -17.0870 N.pl3 193  ARG193      0.1354
     75  NH2      -24.7830   -2.9920  -16.0100 N.pl3 193  ARG193      0.1354
     76  N        -13.7300   -0.1310  -27.3800 N.3   214  ASP214     -0.1225
     77  CA       -14.6040    0.7540  -26.6150 C.3   214  ASP214      0.1805
     78  C        -14.2200    0.8720  -25.1570 C.2   214  ASP214      0.2597
     79  O        -15.0620    1.0590  -24.2510 O.2   214  ASP214     -0.2718
     80  CB       -16.0690    0.3420  -26.8070 C.3   214  ASP214      0.1424
     81  CG       -16.8270    1.2270  -27.7980 C.2   214  ASP214      0.3668
     82  OD1      -16.2060    1.8180  -28.6980 O.co2 214  ASP214     -0.2456
     83  OD2      -18.0690    1.4080  -27.5890 O.co2 214  ASP214     -0.2456
     84  N        -12.9220    0.7260  -24.8740 N.am  215  LEU215     -0.1979
     85  CA       -12.4630    0.8220  -23.4990 C.3   215  LEU215      0.1596
     86  C        -12.2320    2.2840  -23.1020 C.2   215  LEU215      0.2287
     87  O        -11.8890    2.5930  -21.9600 O.2   215  LEU215     -0.2864
     88  CB       -11.2100   -0.0300  -23.2870 C.3   215  LEU215      0.0297
     89  CG       -11.3290   -1.5330  -23.5980 C.3   215  LEU215      0.0022
     90  CD1      -10.0050   -2.2260  -23.3410 C.3   215  LEU215      0.0001
     91  CD2      -12.4580   -2.1640  -22.7870 C.3   215  LEU215      0.0001
     92  N        -16.5160    8.9140  -24.8250 N.3   218  PRO218     -0.2102
     93  CA       -16.8400   10.2510  -24.2770 C.3   218  PRO218      0.1504
     94  C        -17.2840   10.2770  -22.8290 C.2   218  PRO218      0.2576
     95  O        -17.1830   11.3420  -22.1690 O.2   218  PRO218     -0.2718
     96  CB       -17.9770   10.7320  -25.1420 C.3   218  PRO218      0.0282
     97  CG       -18.2930    9.6800  -26.0810 C.3   218  PRO218      0.0208
     98  CD       -17.2910    8.6050  -26.0290 C.3   218  PRO218      0.0893
     99  N        -17.6900    9.1200  -22.3080 N.am  219  TRP219     -0.1963
    100  CA       -18.0690    9.0000  -20.9040 C.3   219  TRP219      0.1771
    101  C        -16.8540    9.0400  -19.9420 C.2   219  TRP219      0.2620
    102  O        -17.0090    9.0920  -18.7250 O.2   219  TRP219     -0.2715
    103  CB       -18.8610    7.6870  -20.7520 C.3   219  TRP219      0.0590
    104  CG       -18.0480    6.4680  -21.2280 C.ar  219  TRP219      0.0006
    105  CD1      -17.0360    5.8490  -20.5510 C.ar  219  TRP219      0.0946
    106  CD2      -18.0650    5.8890  -22.5280 C.ar  219  TRP219      0.0152
    107  NE1      -16.5140    4.8470  -21.3060 N.ar  219  TRP219     -0.2442
    108  CE2      -17.1490    4.8240  -22.5110 C.ar  219  TRP219      0.0810
    109  CE3      -18.9120    6.0320  -23.6350 C.ar  219  TRP219      0.0012
    110  CZ2      -16.9120    4.0260  -23.6140 C.ar  219  TRP219      0.0191
    111  CZ3      -18.7310    5.1900  -24.7040 C.ar  219  TRP219      0.0001
    112  CH2      -17.7350    4.1840  -24.6790 C.ar  219  TRP219      0.0015
    113  N        -15.6200    8.9500  -20.4410 N.am  220  GLU220     -0.1963
    114  CA       -14.4470    9.0010  -19.5400 C.3   220  GLU220      0.1733
    115  C        -14.0410   10.4320  -19.2540 C.2   220  GLU220      0.2616
    116  O        -14.2810   11.3000  -20.0730 O.2   220  GLU220     -0.2715
    117  CB       -13.2390    8.3240  -20.1260 C.3   220  GLU220      0.0429
    118  CG       -13.4420    6.8900  -20.5210 C.3   220  GLU220      0.1163
    119  CD       -13.5870    5.9460  -19.3670 C.2   220  GLU220      0.3649
    120  OE1      -13.7550    6.3750  -18.1910 O.co2 220  GLU220     -0.2457
    121  OE2      -13.6520    4.7330  -19.6960 O.co2 220  GLU220     -0.2457
    122  N        -13.2940   10.6250  -18.1730 N.am  221  LYS221     -0.1977
    123  CA       -12.8330   11.9760  -17.7610 C.3   221  LYS221      0.1596
    124  C        -11.7670   12.4870  -18.7510 C.2   221  LYS221      0.2287
    125  O        -11.7450   13.6730  -19.1050 O.2   221  LYS221     -0.2864
    126  CB       -12.1460   11.9150  -16.3760 C.3   221  LYS221      0.0298
    127  CG       -13.0600   11.9240  -15.1700 C.3   221  LYS221      0.0038
    128  CD       -12.3570   11.4690  -13.8820 C.3   221  LYS221      0.0206
    129  CE       -13.3850   11.2270  -12.7770 C.3   221  LYS221      0.1093
    130  NZ       -12.8050   10.7600  -11.4800 N.3   221  LYS221     -0.1314
    131  N         -7.6610    2.4800  -13.4070 N.3   238  PHE238     -0.1241
    132  CA        -9.0270    2.2730  -12.9550 C.3   238  PHE238      0.1605
    133  C         -9.0550    1.3090  -11.7800 C.2   238  PHE238      0.2264
    134  O         -8.2090    0.3970  -11.6700 O.2   238  PHE238     -0.2867
    135  CB        -9.8630    1.6870  -14.1020 C.3   238  PHE238      0.0534
    136  CG       -10.0560    2.6440  -15.2470 C.ar  238  PHE238     -0.0203
    137  CD1       -9.0960    2.7170  -16.2650 C.ar  238  PHE238     -0.0042
    138  CD2      -11.1220    3.5250  -15.2610 C.ar  238  PHE238     -0.0042
    139  CE1       -9.2080    3.6510  -17.2650 C.ar  238  PHE238     -0.0003
    140  CE2      -11.2830    4.4300  -16.3190 C.ar  238  PHE238     -0.0003
    141  CZ       -10.2870    4.5180  -17.3040 C.ar  238  PHE238     -0.0000
    142  N         -6.6170   -0.3970  -18.1520 N.3   264  LEU264     -0.1245
    143  CA        -7.7070   -1.0260  -18.9060 C.3   264  LEU264      0.1561
    144  C         -7.3210   -1.3370  -20.3490 C.2   264  LEU264      0.2260
    145  O         -7.3030   -0.4580  -21.2120 O.2   264  LEU264     -0.2867
    146  CB        -8.9300   -0.1230  -18.7890 C.3   264  LEU264      0.0270
    147  CG       -10.3520   -0.6250  -19.0350 C.3   264  LEU264      0.0019
    148  CD1      -10.8080   -1.6820  -18.0420 C.3   264  LEU264      0.0001
    149  CD2      -11.2720    0.5880  -18.9590 C.3   264  LEU264      0.0001
    150  N        -21.3980   13.1730  -24.5270 N.3   313  GLY313     -0.1225
    151  CA       -21.7210   11.7500  -24.3390 C.3   313  GLY313      0.1811
    152  C        -23.1880   11.3720  -24.5440 C.2   313  GLY313      0.2280
    153  O        -23.5200   10.1970  -24.5550 O.2   313  GLY313     -0.2866
    154  N        -26.8820   10.5980  -26.2210 N.3   315  ASP315     -0.1239
    155  CA       -27.4440    9.9360  -27.4130 C.3   315  ASP315      0.1674
    156  C        -28.8750   10.3850  -27.5820 C.2   315  ASP315      0.2266
    157  O        -29.5970   10.4210  -26.6250 O.2   315  ASP315     -0.2867
    158  CB       -27.4010    8.4080  -27.2480 C.3   315  ASP315      0.1410
    159  CG       -25.9600    7.8480  -27.3130 C.2   315  ASP315      0.3668
    160  OD1      -25.1880    8.2540  -28.2050 O.co2 315  ASP315     -0.2456
    161  OD2      -25.5690    7.0530  -26.4360 O.co2 315  ASP315     -0.2456
@<TRIPOS>BOND
     1    82    81   ar
     2     1     2    1
     3   160   159   ar
     4    81    83   ar
     5    81    80    1
     6   156   155    1
     7   156   157    2
     8     5     2    1
     9     5     6    1
    10   155   158    1
    11   155   154    1
    12     3     2    1
    13     3     4    2
    14    76    77    1
    15   159   158    1
    16   159   161   ar
    17    80    77    1
    18     7     6   ar
    19     7     9   ar
    20    77    78    1
    21     6     8   ar
    22    97    98    1
    23    97    96    1
    24    98    92    1
    25     9    10   ar
    26     8    10   ar
    27     8    11   ar
    28    78    84   am
    29    78    79    2
    30    96    93    1
    31    84    85    1
    32    92    93    1
    33   111   112   ar
    34   111   109   ar
    35   112   110   ar
    36    10    12   ar
    37    22    20   am
    38   153   152    2
    39   152   151    1
    40   150   151    1
    41    11    13   ar
    42    93    94    1
    43    15    16    1
    44   109   106   ar
    45   110   108   ar
    46    89    90    1
    47    89    88    1
    48    89    91    1
    49    85    88    1
    50    85    86    1
    51    20    19    1
    52    20    21    2
    53    12    14   ar
    54    19    16    1
    55    86    87    2
    56    13    14   ar
    57    94    99   am
    58    94    95    2
    59    16    17    1
    60    34    33    2
    61   106   108   ar
    62   106   104   ar
    63   108   107   ar
    64    99   100    1
    65    33    32    1
    66    18    17    2
    67    17    23   am
    68   107   105   ar
    69   104   103    1
    70   104   105   ar
    71   145   144    2
    72   100   103    1
    73   100   101    1
    74    32    35    1
    75    32    31    1
    76    39    40    1
    77    35    36    1
    78   118   117    1
    79   118   119    1
    80    23    24    1
    81   113   101   am
    82   113   114    1
    83   144   143    1
    84    31    25   am
    85   117   114    1
    86   116   115    2
    87   101   102    2
    88    63    61   ar
    89    63    64   ar
    90   121   119   ar
    91    61    59   ar
    92   114   115    1
    93    25    24    1
    94    25    26    2
    95    40    41    1
    96   119   120   ar
    97    24    27    1
    98    64    62   ar
    99   115   122   am
   100    36    37    1
   101    36    38    1
   102   125   124    2
   103   147   149    1
   104   147   146    1
   105   147   148    1
   106   143   146    1
   107   143   142    1
   108    59    58    1
   109    59    60   ar
   110   124   123    1
   111    58    55    1
   112    62    60   ar
   113    41    42    2
   114   122   123    1
   115    27    28    1
   116    29    28   ar
   117   123   126    1
   118    28    30   ar
   119   141   139   ar
   120   141   140   ar
   121   139   137   ar
   122    74    73    1
   123    55    56    1
   124    55    54    1
   125    56    57    2
   126    54    45   am
   127   126   127    1
   128   140   138   ar
   129    73    75    1
   130    73    72    2
   131   137   136   ar
   132    71    72    1
   133    71    70    1
   134    43    44    1
   135    45    44    1
   136    45    46    2
   137   138   136   ar
   138   136   135    1
   139   127   128    1
   140    50    52   ar
   141    50    48   ar
   142    47    44    1
   143    47    48    1
   144    69    70    1
   145    69    66    1
   146    52    53   ar
   147    48    49   ar
   148   135   132    1
   149   128   129    1
   150    65    66    1
   151    66    67    1
   152    67    68    2
   153   131   132    1
   154    53    51   ar
   155    49    51   ar
   156   132   133    1
   157   129   130    1
   158   133   134    2
