@<TRIPOS>MOLECULE
tmp/4z2iA00.pdb
 242 236 0 0 0
SMALL
GASTEIGER

@<TRIPOS>ATOM
      1  N        -18.2680   -9.2070  -37.8310 N.3     9  TYR9       -0.1241
      2  CA       -19.6590   -8.8500  -37.8010 C.3     9  TYR9        0.1605
      3  C        -20.0860   -8.2390  -39.1230 C.2     9  TYR9        0.2264
      4  O        -19.3420   -7.4830  -39.6900 O.2     9  TYR9       -0.2867
      5  CB       -19.9670   -7.8670  -36.6750 C.3     9  TYR9        0.0534
      6  CG       -20.2620   -8.5420  -35.3630 C.ar    9  TYR9       -0.0201
      7  CD1      -19.2460   -8.8730  -34.5300 C.ar    9  TYR9       -0.0009
      8  CD2      -21.5460   -8.8910  -35.0110 C.ar    9  TYR9       -0.0009
      9  CE1      -19.4890   -9.5150  -33.3240 C.ar    9  TYR9        0.0417
     10  CE2      -21.8170   -9.5390  -33.8130 C.ar    9  TYR9        0.0417
     11  CZ       -20.7670   -9.8630  -32.9790 C.ar    9  TYR9        0.1957
     12  OH       -20.9770  -10.4440  -31.7610 O.3     9  TYR9       -0.2866
     13  N        -23.2290   -6.0880  -40.2140 N.3    11  PHE11      -0.1241
     14  CA       -24.4200   -5.4300  -39.7100 C.3    11  PHE11       0.1605
     15  C        -25.2040   -4.7490  -40.8520 C.2    11  PHE11       0.2264
     16  O        -24.6310   -4.0700  -41.6690 O.2    11  PHE11      -0.2867
     17  CB       -24.0440   -4.3920  -38.6800 C.3    11  PHE11       0.0534
     18  CG       -25.2140   -3.5680  -38.2350 C.ar   11  PHE11      -0.0203
     19  CD1      -26.2320   -4.1440  -37.5430 C.ar   11  PHE11      -0.0042
     20  CD2      -25.3850   -2.2770  -38.7070 C.ar   11  PHE11      -0.0042
     21  CE1      -27.3770   -3.4430  -37.1890 C.ar   11  PHE11      -0.0003
     22  CE2      -26.5370   -1.5790  -38.4120 C.ar   11  PHE11      -0.0003
     23  CZ       -27.5450   -2.1610  -37.6700 C.ar   11  PHE11      -0.0000
     24  N        -28.9300   -2.4270  -41.2460 N.3    13  PRO13      -0.2116
     25  CA       -30.2030   -2.0280  -40.5760 C.3    13  PRO13       0.1372
     26  C        -31.5030   -2.3930  -41.3310 C.2    13  PRO13       0.2244
     27  O        -31.4680   -2.7560  -42.5000 O.2    13  PRO13      -0.2868
     28  CB       -30.0420   -0.5210  -40.3960 C.3    13  PRO13       0.0268
     29  CG       -29.1510   -0.1050  -41.4880 C.3    13  PRO13       0.0207
     30  CD       -28.1860   -1.2610  -41.7320 C.3    13  PRO13       0.0892
     31  N        -34.0420   -0.9120  -42.4730 N.3    15  ASN15      -0.1240
     32  CA       -34.4380   -0.0780  -43.6380 C.3    15  ASN15       0.1653
     33  C        -33.5910   -0.4270  -44.8510 C.2    15  ASN15       0.2266
     34  O        -34.1110   -0.5250  -45.9840 O.2    15  ASN15      -0.2867
     35  CB       -34.3690    1.4210  -43.3060 C.3    15  ASN15       0.1155
     36  CG       -32.9410    1.9100  -43.1450 C.2    15  ASN15       0.2627
     37  OD1      -32.2440    1.5430  -42.1920 O.2    15  ASN15      -0.2716
     38  ND2      -32.4740    2.6900  -44.1070 N.am   15  ASN15      -0.0877
     39  N        -28.5000   -7.3400  -36.5620 N.3    50  PHE50      -0.1241
     40  CA       -28.8220   -7.9650  -35.2760 C.3    50  PHE50       0.1605
     41  C        -30.2430   -8.4820  -35.3230 C.2    50  PHE50       0.2264
     42  O        -31.1210   -7.8170  -35.8600 O.2    50  PHE50      -0.2867
     43  CB       -28.7150   -6.9360  -34.1440 C.3    50  PHE50       0.0534
     44  CG       -27.3150   -6.7530  -33.6150 C.ar   50  PHE50      -0.0203
     45  CD1      -26.6770   -7.7920  -32.9670 C.ar   50  PHE50      -0.0042
     46  CD2      -26.5860   -5.5970  -33.8950 C.ar   50  PHE50      -0.0042
     47  CE1      -25.3850   -7.6380  -32.4980 C.ar   50  PHE50      -0.0003
     48  CE2      -25.3100   -5.4250  -33.3920 C.ar   50  PHE50      -0.0003
     49  CZ       -24.7070   -6.4520  -32.6870 C.ar   50  PHE50      -0.0000
     50  N        -25.8870   -3.6280  -28.3770 N.3    96  TRP96      -0.1227
     51  CA       -26.0790   -2.5840  -27.3550 C.3    96  TRP96       0.1737
     52  C        -27.4880   -1.9740  -27.3970 C.2    96  TRP96       0.2595
     53  O        -28.1610   -1.8330  -26.3660 O.2    96  TRP96      -0.2718
     54  CB       -25.0310   -1.5020  -27.5380 C.3    96  TRP96       0.0564
     55  CG       -25.1900   -0.3410  -26.5450 C.ar   96  TRP96       0.0003
     56  CD1      -25.7870    0.8920  -26.8060 C.ar   96  TRP96       0.0946
     57  CD2      -24.7810   -0.3080  -25.1730 C.ar   96  TRP96       0.0152
     58  NE1      -25.7850    1.6450  -25.6520 N.ar   96  TRP96      -0.2442
     59  CE2      -25.1590    0.9440  -24.6500 C.ar   96  TRP96       0.0810
     60  CE3      -24.1610   -1.2210  -24.3250 C.ar   96  TRP96       0.0012
     61  CZ2      -24.9290    1.3000  -23.2970 C.ar   96  TRP96       0.0191
     62  CZ3      -23.9370   -0.8740  -22.9490 C.ar   96  TRP96       0.0001
     63  CH2      -24.3350    0.3650  -22.4580 C.ar   96  TRP96       0.0015
     64  N        -27.9200   -1.5780  -28.5910 N.am   97  TYR97      -0.1962
     65  CA       -29.1980   -0.8440  -28.7280 C.3    97  TYR97       0.1771
     66  C        -30.3750   -1.6300  -28.1850 C.2    97  TYR97       0.2619
     67  O        -31.1800   -1.1130  -27.3970 O.2    97  TYR97      -0.2715
     68  CB       -29.4290   -0.4570  -30.1900 C.3    97  TYR97       0.0574
     69  CG       -30.7240    0.3160  -30.4160 C.ar   97  TYR97      -0.0198
     70  CD1      -30.8490    1.6530  -30.0290 C.ar   97  TYR97      -0.0009
     71  CD2      -31.8060   -0.2930  -31.0150 C.ar   97  TYR97      -0.0009
     72  CE1      -32.0280    2.3540  -30.2690 C.ar   97  TYR97       0.0417
     73  CE2      -32.9830    0.3810  -31.2430 C.ar   97  TYR97       0.0417
     74  CZ       -33.0950    1.7030  -30.8670 C.ar   97  TYR97       0.1957
     75  OH       -34.3160    2.3160  -31.0600 O.3    97  TYR97      -0.2866
     76  N        -30.4830   -2.9130  -28.5530 N.am   98  TYR98      -0.1974
     77  CA       -31.5690   -3.7100  -28.0140 C.3    98  TYR98       0.1639
     78  C        -31.4420   -4.0810  -26.5530 C.2    98  TYR98       0.2290
     79  O        -32.4450   -4.0990  -25.8250 O.2    98  TYR98      -0.2864
     80  CB       -31.7270   -4.9690  -28.8450 C.3    98  TYR98       0.0560
     81  CG       -32.1540   -4.7710  -30.2420 C.ar   98  TYR98      -0.0198
     82  CD1      -33.1420   -3.8490  -30.5580 C.ar   98  TYR98      -0.0009
     83  CD2      -31.7040   -5.6340  -31.2400 C.ar   98  TYR98      -0.0009
     84  CE1      -33.6060   -3.7170  -31.8610 C.ar   98  TYR98       0.0417
     85  CE2      -32.1390   -5.5230  -32.5290 C.ar   98  TYR98       0.0417
     86  CZ       -33.0870   -4.5430  -32.8430 C.ar   98  TYR98       0.1957
     87  OH       -33.6160   -4.4970  -34.0920 O.3    98  TYR98      -0.2866
     88  N        -25.2700  -11.4440  -27.9740 N.3   141  ASP141     -0.1239
     89  CA       -24.5710  -10.2220  -27.6300 C.3   141  ASP141      0.1674
     90  C        -25.4910   -9.3960  -26.6950 C.2   141  ASP141      0.2266
     91  O        -26.0230   -8.3820  -27.0810 O.2   141  ASP141     -0.2867
     92  CB       -24.2930   -9.4460  -28.8980 C.3   141  ASP141      0.1410
     93  CG       -23.5480   -8.1750  -28.6760 C.2   141  ASP141      0.3668
     94  OD1      -23.0550   -7.9080  -27.5310 O.co2 141  ASP141     -0.2456
     95  OD2      -23.4090   -7.4030  -29.6930 O.co2 141  ASP141     -0.2456
     96  N        -25.6620   -7.0720  -23.7160 N.3   143  GLU143     -0.1231
     97  CA       -24.7310   -6.1850  -23.0200 C.3   143  GLU143      0.1699
     98  C        -25.3620   -5.4620  -21.8170 C.2   143  GLU143      0.2592
     99  O        -25.7570   -4.3030  -21.9330 O.2   143  GLU143     -0.2718
    100  CB       -24.1300   -5.1700  -24.0030 C.3   143  GLU143      0.0402
    101  CG       -23.4610   -5.8710  -25.1800 C.3   143  GLU143      0.1161
    102  CD       -22.8160   -4.9570  -26.2510 C.2   143  GLU143      0.3649
    103  OE1      -22.6870   -3.7100  -26.0570 O.co2 143  GLU143     -0.2457
    104  OE2      -22.4720   -5.5070  -27.3350 O.co2 143  GLU143     -0.2457
    105  N        -25.5430   -6.1200  -20.6810 N.am  144  TYR144     -0.1976
    106  CA       -24.9780   -7.3950  -20.2530 C.3   144  TYR144      0.1639
    107  C        -25.9050   -7.9400  -19.1730 C.2   144  TYR144      0.2290
    108  O        -26.4480   -7.1770  -18.3930 O.2   144  TYR144     -0.2864
    109  CB       -23.5780   -7.2040  -19.6240 C.3   144  TYR144      0.0560
    110  CG       -22.5300   -6.6200  -20.5120 C.ar  144  TYR144     -0.0198
    111  CD1      -21.7590   -7.4150  -21.3330 C.ar  144  TYR144     -0.0009
    112  CD2      -22.3650   -5.2510  -20.5910 C.ar  144  TYR144     -0.0009
    113  CE1      -20.7980   -6.8680  -22.1810 C.ar  144  TYR144      0.0417
    114  CE2      -21.4900   -4.6780  -21.4770 C.ar  144  TYR144      0.0417
    115  CZ       -20.6900   -5.4910  -22.2580 C.ar  144  TYR144      0.1957
    116  OH       -19.7610   -4.9190  -23.0760 O.3   144  TYR144     -0.2866
    117  N        -20.7110  -12.5250  -27.4440 N.3   183  ALA183     -0.1245
    118  CA       -19.8890  -11.3200  -27.3140 C.3   183  ALA183      0.1562
    119  C        -19.7610  -11.0100  -25.8460 C.2   183  ALA183      0.2260
    120  O        -20.7420  -10.7350  -25.1720 O.2   183  ALA183     -0.2867
    121  CB       -20.5470  -10.1550  -28.0450 C.3   183  ALA183      0.0290
    122  N        -15.0970   -8.2530  -26.1590 N.3   211  MET211     -0.1245
    123  CA       -15.2370   -6.8890  -26.7260 C.3   211  MET211      0.1570
    124  C        -14.1700   -6.0150  -26.1170 C.2   211  MET211      0.2261
    125  O        -14.4010   -5.0580  -25.3880 O.2   211  MET211     -0.2867
    126  CB       -16.6310   -6.3760  -26.5010 C.3   211  MET211      0.0387
    127  CG       -17.5830   -7.0350  -27.4440 C.3   211  MET211      0.0595
    128  SD       -19.2970   -6.5490  -27.3040 S.3   211  MET211     -0.1393
    129  CE       -19.8140   -7.1830  -25.7320 C.3   211  MET211      0.0692
    130  N        -12.5100   -3.4780  -26.9140 N.3   213  TYR213     -0.1227
    131  CA       -12.5010   -2.2280  -27.6240 C.3   213  TYR213      0.1736
    132  C        -13.5800   -1.3990  -26.9840 C.2   213  TYR213      0.2595
    133  O        -14.2840   -1.8840  -26.0730 O.2   213  TYR213     -0.2718
    134  CB       -12.7000   -2.4460  -29.1510 C.3   213  TYR213      0.0548
    135  CG       -13.8430   -3.3200  -29.5850 C.ar  213  TYR213     -0.0200
    136  CD1      -15.1460   -2.8640  -29.5630 C.ar  213  TYR213     -0.0009
    137  CD2      -13.6380   -4.6250  -29.9730 C.ar  213  TYR213     -0.0009
    138  CE1      -16.2100   -3.7030  -29.8820 C.ar  213  TYR213      0.0417
    139  CE2      -14.6780   -5.4380  -30.3840 C.ar  213  TYR213      0.0417
    140  CZ       -15.9580   -4.9840  -30.3480 C.ar  213  TYR213      0.1957
    141  OH       -16.9690   -5.7840  -30.7370 O.3   213  TYR213     -0.2866
    142  N        -13.7300   -0.1310  -27.3800 N.am  214  ASP214     -0.1974
    143  CA       -14.6040    0.7540  -26.6150 C.3   214  ASP214      0.1709
    144  C        -14.2200    0.8720  -25.1570 C.2   214  ASP214      0.2293
    145  O        -15.0620    1.0590  -24.2510 O.2   214  ASP214     -0.2864
    146  CB       -16.0690    0.3420  -26.8070 C.3   214  ASP214      0.1436
    147  CG       -16.8270    1.2270  -27.7980 C.2   214  ASP214      0.3671
    148  OD1      -16.2060    1.8180  -28.6980 O.co2 214  ASP214     -0.2456
    149  OD2      -18.0690    1.4080  -27.5890 O.co2 214  ASP214     -0.2456
    150  N        -13.0610    0.6580  -36.2450 N.3   291  TYR291     -0.1241
    151  CA       -13.4810    2.0580  -36.1240 C.3   291  TYR291      0.1605
    152  C        -12.6450    2.7710  -35.0830 C.2   291  TYR291      0.2264
    153  O        -11.9690    2.1570  -34.2440 O.2   291  TYR291     -0.2867
    154  CB       -14.9770    2.1820  -35.7900 C.3   291  TYR291      0.0534
    155  CG       -15.2840    1.6390  -34.4200 C.ar  291  TYR291     -0.0201
    156  CD1      -15.4780    0.2710  -34.2270 C.ar  291  TYR291     -0.0009
    157  CD2      -15.1990    2.4580  -33.3150 C.ar  291  TYR291     -0.0009
    158  CE1      -15.6840   -0.2370  -32.9530 C.ar  291  TYR291      0.0417
    159  CE2      -15.4120    1.9500  -32.0370 C.ar  291  TYR291      0.0417
    160  CZ       -15.6340    0.6060  -31.8720 C.ar  291  TYR291      0.1957
    161  OH       -15.7870    0.1260  -30.5690 O.3   291  TYR291     -0.2866
    162  N        -12.6900    5.9900  -32.2270 N.3   293  ARG293     -0.1245
    163  CA       -13.3960    6.9670  -31.4160 C.3   293  ARG293      0.1563
    164  C        -12.7080    8.3140  -31.3100 C.2   293  ARG293      0.2260
    165  O        -11.4940    8.4050  -30.9700 O.2   293  ARG293     -0.2867
    166  CB       -13.5560    6.4130  -30.0220 C.3   293  ARG293      0.0307
    167  CG       -14.6930    5.4100  -30.0080 C.3   293  ARG293      0.0489
    168  CD       -15.3330    5.3900  -28.6760 C.3   293  ARG293      0.2205
    169  NE       -16.5290    4.6070  -28.6920 N.pl3 293  ARG293     -0.0865
    170  CZ       -17.7730    5.0850  -28.6210 C.cat 293  ARG293      0.5346
    171  NH1      -18.0420    6.3740  -28.6830 N.pl3 293  ARG293      0.1354
    172  NH2      -18.7500    4.2280  -28.5210 N.pl3 293  ARG293      0.1354
    173  N        -26.8820   10.5980  -26.2210 N.3   315  ASP315     -0.1225
    174  CA       -27.4440    9.9360  -27.4130 C.3   315  ASP315      0.1790
    175  C        -28.8750   10.3850  -27.5820 C.2   315  ASP315      0.2439
    176  O        -29.5970   10.4210  -26.6250 O.2   315  ASP315     -0.2733
    177  CB       -27.4010    8.4080  -27.2480 C.3   315  ASP315      0.1423
    178  CG       -25.9600    7.8480  -27.3130 C.2   315  ASP315      0.3668
    179  OD1      -25.1880    8.2540  -28.2050 O.co2 315  ASP315     -0.2456
    180  OD2      -25.5690    7.0530  -26.4360 O.co2 315  ASP315     -0.2456
    181  N        -29.2690   10.8210  -28.7800 N.am  316  PRO316     -0.2729
    182  CA       -28.4640   11.0880  -29.9750 C.3   316  PRO316      0.1401
    183  C        -27.5160   12.2770  -29.7860 C.2   316  PRO316      0.2269
    184  O        -27.6160   13.0300  -28.8190 O.2   316  PRO316     -0.2865
    185  CB       -29.5130   11.4790  -31.0110 C.3   316  PRO316      0.0296
    186  CG       -30.5580   12.1780  -30.1730 C.3   316  PRO316      0.0237
    187  CD       -30.6540   11.3070  -28.9470 C.3   316  PRO316      0.0939
    188  N        -24.0310   10.2000  -40.9200 N.3   333  ASP333     -0.1239
    189  CA       -24.6380    9.5300  -39.7520 C.3   333  ASP333      0.1674
    190  C        -25.0360   10.5360  -38.6460 C.2   333  ASP333      0.2266
    191  O        -25.5470   10.1430  -37.6080 O.2   333  ASP333     -0.2867
    192  CB       -23.6920    8.4610  -39.2030 C.3   333  ASP333      0.1410
    193  CG       -23.4010    7.3540  -40.2290 C.2   333  ASP333      0.3668
    194  OD1      -24.1740    7.2130  -41.1760 O.co2 333  ASP333     -0.2456
    195  OD2      -22.3290    6.7320  -40.1650 O.co2 333  ASP333     -0.2456
    196  N        -23.1180   12.2180  -36.4780 N.3   335  ASP335     -0.1239
    197  CA       -22.4280   11.9220  -35.2470 C.3   335  ASP335      0.1674
    198  C        -20.9490   11.8740  -35.5470 C.2   335  ASP335      0.2266
    199  O        -20.4970   11.0720  -36.3580 O.2   335  ASP335     -0.2867
    200  CB       -22.8760   10.5850  -34.6740 C.3   335  ASP335      0.1410
    201  CG       -22.4530   10.3850  -33.2150 C.2   335  ASP335      0.3668
    202  OD1      -21.3770   10.8830  -32.7900 O.co2 335  ASP335     -0.2456
    203  OD2      -23.1960    9.7060  -32.4790 O.co2 335  ASP335     -0.2456
    204  N        -17.6230    8.5960  -33.8730 N.3   338  ILE338     -0.1245
    205  CA       -17.1380    7.3610  -34.3870 C.3   338  ILE338      0.1561
    206  C        -16.9140    7.4780  -35.9030 C.2   338  ILE338      0.2260
    207  O        -17.7950    7.9580  -36.6400 O.2   338  ILE338     -0.2867
    208  CB       -18.1600    6.2600  -34.1130 C.3   338  ILE338      0.0252
    209  CG1      -18.2000    5.9570  -32.6170 C.3   338  ILE338      0.0019
    210  CG2      -17.8030    5.0170  -34.8720 C.3   338  ILE338      0.0019
    211  CD1      -19.3230    5.0210  -32.2740 C.3   338  ILE338      0.0001
    212  N        -11.9530  -11.4140  -33.3450 N.3   400  MET400     -0.1245
    213  CA       -13.2630  -10.9960  -33.7460 C.3   400  MET400      0.1570
    214  C        -13.1690   -9.4800  -34.0180 C.2   400  MET400      0.2261
    215  O        -12.3160   -8.7850  -33.4640 O.2   400  MET400     -0.2867
    216  CB       -14.3210  -11.3160  -32.6720 C.3   400  MET400      0.0387
    217  CG       -15.7090  -10.7340  -32.9000 C.3   400  MET400      0.0595
    218  SD       -15.9040   -8.9680  -32.3790 S.3   400  MET400     -0.1393
    219  CE       -16.2160   -9.1620  -30.6080 C.3   400  MET400      0.0692
    220  N        -15.5530   -5.7100  -35.0240 N.3   402  TRP402     -0.1241
    221  CA       -16.7480   -4.9630  -35.3420 C.3   402  TRP402      0.1605
    222  C        -16.2350   -3.7690  -36.1740 C.2   402  TRP402      0.2264
    223  O        -15.4720   -2.9460  -35.6590 O.2   402  TRP402     -0.2867
    224  CB       -17.4280   -4.4490  -34.0460 C.3   402  TRP402      0.0550
    225  CG       -18.5090   -3.5020  -34.3170 C.ar  402  TRP402      0.0003
    226  CD1      -18.4030   -2.1500  -34.4130 C.ar  402  TRP402      0.0946
    227  CD2      -19.8870   -3.8130  -34.5950 C.ar  402  TRP402      0.0152
    228  NE1      -19.6110   -1.6110  -34.7800 N.ar  402  TRP402     -0.2442
    229  CE2      -20.5200   -2.6080  -34.9580 C.ar  402  TRP402      0.0810
    230  CE3      -20.6120   -5.0060  -34.6920 C.ar  402  TRP402      0.0012
    231  CZ2      -21.8790   -2.5480  -35.3050 C.ar  402  TRP402      0.0191
    232  CZ3      -21.9370   -4.9630  -35.0950 C.ar  402  TRP402      0.0001
    233  CH2      -22.5770   -3.7470  -35.3570 C.ar  402  TRP402      0.0015
    234  N        -16.5880   -1.4850  -42.0790 N.3   406  GLN406     -0.1245
    235  CA       -15.6980   -0.4130  -41.7000 C.3   406  GLN406      0.1566
    236  C        -14.2880   -0.5880  -42.2250 C.2   406  GLN406      0.2260
    237  O        -13.4550    0.3240  -42.1110 O.2   406  GLN406     -0.2867
    238  CB       -15.6760   -0.2180  -40.1780 C.3   406  GLN406      0.0367
    239  CG       -17.0220    0.2530  -39.7060 C.3   406  GLN406      0.0905
    240  CD       -17.1450    0.2240  -38.2050 C.2   406  GLN406      0.2608
    241  OE1      -16.5330   -0.6320  -37.5000 O.2   406  GLN406     -0.2717
    242  NE2      -17.8830    1.2030  -37.6840 N.am  406  GLN406     -0.0878
@<TRIPOS>BOND
     1    34    33    2
     2    33    32    1
     3    38    36   am
     4    32    35    1
     5    32    31    1
     6    35    36    1
     7    36    37    2
     8    27    26    2
     9   236   237    2
    10   236   235    1
    11   234   235    1
    12    30    29    1
    13    30    24    1
    14   235   238    1
    15    16    15    2
    16    29    28    1
    17    26    25    1
    18    24    25    1
    19   194   193   ar
    20   188   189    1
    21    15    14    1
    22    25    28    1
    23   193   195   ar
    24   193   192    1
    25    13    14    1
    26   238   239    1
    27   189   192    1
    28   189   190    1
    29    14    17    1
    30   239   240    1
    31     4     3    2
    32     3     2    1
    33    20    22   ar
    34    20    18   ar
    35    17    18    1
    36   190   191    2
    37    22    23   ar
    38    18    19   ar
    39   240   242   am
    40   240   241    2
    41     1     2    1
    42     2     5    1
    43    23    21   ar
    44    19    21   ar
    45     5     6    1
    46   207   206    2
    47    39    40    1
    48   196   197    1
    49   199   198    2
    50   150   151    1
    51   222   223    2
    52   222   221    1
    53   151   154    1
    54   151   152    1
    55   206   205    1
    56    42    41    2
    57   154   155    1
    58   198   197    1
    59     6     8   ar
    60     6     7   ar
    61   233   231   ar
    62   233   232   ar
    63   221   220    1
    64   221   224    1
    65    41    40    1
    66   231   229   ar
    67    40    43    1
    68   197   200    1
    69   232   230   ar
    70   152   153    2
    71     8    10   ar
    72   229   228   ar
    73   229   227   ar
    74   210   208    1
    75   228   226   ar
    76   230   227   ar
    77   200   201    1
    78   227   225   ar
    79     7     9   ar
    80   155   156   ar
    81   155   157   ar
    82   226   225   ar
    83   205   208    1
    84   205   204    1
    85   225   224    1
    86   156   158   ar
    87    43    44    1
    88   208   209    1
    89    87    86    1
    90   214   213    1
    91   214   215    2
    92    46    44   ar
    93    46    48   ar
    94    10    11   ar
    95   213   212    1
    96   213   216    1
    97    44    45   ar
    98    48    49   ar
    99     9    11   ar
   100   157   159   ar
   101   201   202   ar
   102   201   203   ar
   103    11    12    1
   104    45    47   ar
   105   158   160   ar
   106   217   216    1
   107   217   218    1
   108    86    85   ar
   109    86    84   ar
   110    49    47   ar
   111   209   211    1
   112    85    83   ar
   113   218   219    1
   114   162   163    1
   115   159   160   ar
   116   160   161    1
   117    84    82   ar
   118   163   164    1
   119   163   166    1
   120   164   165    2
   121    73    71   ar
   122    73    74   ar
   123    83    81   ar
   124    75    74    1
   125    71    69   ar
   126   185   186    1
   127   185   182    1
   128    74    72   ar
   129   141   140    1
   130    82    81   ar
   131    69    68    1
   132    69    70   ar
   133   139   140   ar
   134   139   137   ar
   135   140   138   ar
   136    72    70   ar
   137    81    80    1
   138    68    65    1
   139   186   187    1
   140   166   167    1
   141   167   168    1
   142   182   183    1
   143   182   181    1
   144   137   135   ar
   145   138   136   ar
   146   183   184    2
   147    95    93   ar
   148   135   136   ar
   149   135   134    1
   150   134   131    1
   151   187   181    1
   152    92    93    1
   153    92    89    1
   154    80    77    1
   155   181   175   am
   156    65    64    1
   157    65    66    1
   158   148   147   ar
   159   169   168    1
   160   169   170    2
   161   171   170    1
   162    93    94   ar
   163   170   172    1
   164    64    52   am
   165    76    66   am
   166    76    77    1
   167    50    51    1
   168   179   178   ar
   169    66    67    2
   170   121   118    1
   171    77    78    1
   172    88    89    1
   173   147   149   ar
   174   147   146    1
   175    89    90    1
   176   131   132    1
   177   131   130    1
   178   175   174    1
   179   175   176    2
   180    54    51    1
   181    54    55    1
   182   117   118    1
   183   127   128    1
   184   127   126    1
   185   174   177    1
   186   174   173    1
   187    52    51    1
   188    52    53    2
   189   142   132   am
   190   142   143    1
   191   104   102   ar
   192   118   119    1
   193   178   177    1
   194   178   180   ar
   195   128   129    1
   196    91    90    2
   197   132   133    2
   198   146   143    1
   199    56    55   ar
   200    56    58   ar
   201   123   126    1
   202   123   122    1
   203   123   124    1
   204   143   144    1
   205    78    79    2
   206    55    57   ar
   207   102   103   ar
   208   102   101    1
   209   124   125    2
   210   119   120    2
   211    58    59   ar
   212   101   100    1
   213    57    59   ar
   214    57    60   ar
   215   144   145    2
   216    59    61   ar
   217    60    62   ar
   218   100    97    1
   219    96    97    1
   220    61    63   ar
   221   116   115    1
   222    97    98    1
   223    62    63   ar
   224   115   113   ar
   225   115   114   ar
   226   113   111   ar
   227    99    98    2
   228    98   105   am
   229   114   112   ar
   230   111   110   ar
   231   105   106    1
   232   112   110   ar
   233   110   109    1
   234   106   109    1
   235   106   107    1
   236   107   108    2
