@<TRIPOS>MOLECULE
tmp/4z2jA00.pdb
 262 257 0 0 0
SMALL
GASTEIGER

@<TRIPOS>ATOM
      1  N        -18.2920   -9.2120  -37.9640 N.3     9  TYR9       -0.1241
      2  CA       -19.6830   -8.8170  -37.9480 C.3     9  TYR9        0.1605
      3  C        -20.0690   -8.2100  -39.2820 C.2     9  TYR9        0.2264
      4  O        -19.3740   -7.3610  -39.8110 O.2     9  TYR9       -0.2867
      5  CB       -19.9460   -7.8070  -36.8380 C.3     9  TYR9        0.0534
      6  CG       -20.2500   -8.4430  -35.5320 C.ar    9  TYR9       -0.0201
      7  CD1      -19.2510   -8.7430  -34.6400 C.ar    9  TYR9       -0.0009
      8  CD2      -21.5450   -8.7610  -35.2040 C.ar    9  TYR9       -0.0009
      9  CE1      -19.5360   -9.3650  -33.4340 C.ar    9  TYR9        0.0417
     10  CE2      -21.8530   -9.3440  -33.9970 C.ar    9  TYR9        0.0417
     11  CZ       -20.8570   -9.6600  -33.1140 C.ar    9  TYR9        0.1957
     12  OH       -21.1870  -10.2990  -31.9350 O.3     9  TYR9       -0.2866
     13  N        -23.2660   -6.1310  -40.3060 N.3    11  PHE11      -0.1241
     14  CA       -24.4120   -5.3790  -39.8780 C.3    11  PHE11       0.1605
     15  C        -25.1290   -4.6950  -41.0290 C.2    11  PHE11       0.2264
     16  O        -24.5310   -4.1220  -41.9340 O.2    11  PHE11      -0.2867
     17  CB       -24.0160   -4.3080  -38.8920 C.3    11  PHE11       0.0534
     18  CG       -25.1870   -3.4820  -38.4400 C.ar   11  PHE11      -0.0203
     19  CD1      -26.2440   -4.0790  -37.7870 C.ar   11  PHE11      -0.0042
     20  CD2      -25.2960   -2.1500  -38.7870 C.ar   11  PHE11      -0.0042
     21  CE1      -27.3670   -3.3520  -37.4350 C.ar   11  PHE11      -0.0003
     22  CE2      -26.4310   -1.4310  -38.4640 C.ar   11  PHE11      -0.0003
     23  CZ       -27.4560   -2.0300  -37.7710 C.ar   11  PHE11      -0.0000
     24  N        -28.9300   -2.4410  -41.3530 N.3    13  PRO13      -0.2102
     25  CA       -30.2210   -1.8800  -40.9300 C.3    13  PRO13       0.1504
     26  C        -31.4460   -2.4870  -41.6310 C.2    13  PRO13       0.2576
     27  O        -31.3950   -2.8150  -42.8250 O.2    13  PRO13      -0.2718
     28  CB       -30.1000   -0.4030  -41.3050 C.3    13  PRO13       0.0282
     29  CG       -28.6310   -0.1370  -41.2880 C.3    13  PRO13       0.0208
     30  CD       -28.0040   -1.3890  -41.8060 C.3    13  PRO13       0.0893
     31  N        -32.5440   -2.5990  -40.8840 N.am   14  THR14      -0.1939
     32  CA       -33.8100   -3.0030  -41.4380 C.3    14  THR14       0.2028
     33  C        -34.2230   -2.2590  -42.7350 C.2    14  THR14       0.2642
     34  O        -34.6680   -2.9100  -43.6910 O.2    14  THR14      -0.2714
     35  CB       -34.9170   -2.8360  -40.4150 C.3    14  THR14       0.1808
     36  OG1      -34.5280   -3.4600  -39.1900 O.3    14  THR14      -0.2208
     37  CG2      -36.1790   -3.4760  -40.9270 C.3    14  THR14       0.0379
     38  N        -34.1210   -0.9230  -42.7760 N.am   15  ASN15      -0.1971
     39  CA       -34.4780   -0.2030  -44.0090 C.3    15  ASN15       0.1688
     40  C        -33.5750   -0.6310  -45.1780 C.2    15  ASN15       0.2292
     41  O        -34.0650   -0.8640  -46.2860 O.2    15  ASN15      -0.2864
     42  CB       -34.5790    1.3370  -43.8350 C.3    15  ASN15       0.1181
     43  CG       -33.2330    2.0000  -43.5860 C.2    15  ASN15       0.2629
     44  OD1      -32.6450    2.6070  -44.4840 O.2    15  ASN15      -0.2716
     45  ND2      -32.7520    1.9170  -42.3500 N.am   15  ASN15      -0.0877
     46  N        -28.4820   -7.2550  -36.7420 N.3    50  PHE50      -0.1241
     47  CA       -28.8520   -7.8320  -35.4330 C.3    50  PHE50       0.1605
     48  C        -30.3100   -8.3390  -35.4320 C.2    50  PHE50       0.2264
     49  O        -31.2340   -7.6480  -35.8930 O.2    50  PHE50      -0.2867
     50  CB       -28.7500   -6.7920  -34.3170 C.3    50  PHE50       0.0534
     51  CG       -27.3670   -6.5810  -33.7840 C.ar   50  PHE50      -0.0203
     52  CD1      -26.7780   -7.5190  -32.9630 C.ar   50  PHE50      -0.0042
     53  CD2      -26.6650   -5.4240  -34.0760 C.ar   50  PHE50      -0.0042
     54  CE1      -25.4800   -7.3340  -32.5090 C.ar   50  PHE50      -0.0003
     55  CE2      -25.3930   -5.2240  -33.5970 C.ar   50  PHE50      -0.0003
     56  CZ       -24.7970   -6.1920  -32.8250 C.ar   50  PHE50      -0.0000
     57  N        -29.1590   -9.3600  -30.1830 N.3    94  GLY94      -0.1225
     58  CA       -28.8470   -8.4070  -29.1090 C.3    94  GLY94       0.1811
     59  C        -28.1910   -7.1660  -29.6410 C.2    94  GLY94       0.2280
     60  O        -28.7680   -6.4180  -30.3930 O.2    94  GLY94      -0.2866
     61  N        -25.9610   -3.6770  -28.1290 N.3    96  TRP96      -0.1227
     62  CA       -26.1200   -2.5950  -27.1820 C.3    96  TRP96       0.1737
     63  C        -27.4920   -1.9630  -27.2100 C.2    96  TRP96       0.2595
     64  O        -28.1190   -1.7990  -26.1530 O.2    96  TRP96      -0.2718
     65  CB       -25.0820   -1.5230  -27.4460 C.3    96  TRP96       0.0564
     66  CG       -25.1180   -0.4620  -26.4140 C.ar   96  TRP96       0.0003
     67  CD1      -24.5880   -0.5240  -25.1510 C.ar   96  TRP96       0.0946
     68  CD2      -25.7270    0.8210  -26.5360 C.ar   96  TRP96       0.0152
     69  NE1      -24.8370    0.6440  -24.4860 N.ar   96  TRP96      -0.2442
     70  CE2      -25.5150    1.4990  -25.3190 C.ar   96  TRP96       0.0810
     71  CE3      -26.3920    1.4900  -27.5810 C.ar   96  TRP96       0.0012
     72  CZ2      -25.9620    2.8190  -25.1040 C.ar   96  TRP96       0.0191
     73  CZ3      -26.8400    2.8160  -27.3730 C.ar   96  TRP96       0.0001
     74  CH2      -26.6360    3.4500  -26.1340 C.ar   96  TRP96       0.0015
     75  N        -27.9650   -1.6010  -28.4010 N.am   97  TYR97      -0.1962
     76  CA       -29.1980   -0.7970  -28.4930 C.3    97  TYR97       0.1771
     77  C        -30.4210   -1.5470  -27.9660 C.2    97  TYR97       0.2619
     78  O        -31.1670   -1.0150  -27.1540 O.2    97  TYR97      -0.2715
     79  CB       -29.4220   -0.3100  -29.9250 C.3    97  TYR97       0.0574
     80  CG       -30.6610    0.5420  -30.0950 C.ar   97  TYR97      -0.0198
     81  CD1      -30.7170    1.8750  -29.6130 C.ar   97  TYR97      -0.0009
     82  CD2      -31.7860    0.0290  -30.7600 C.ar   97  TYR97      -0.0009
     83  CE1      -31.8700    2.6470  -29.7750 C.ar   97  TYR97       0.0417
     84  CE2      -32.9190    0.7960  -30.9500 C.ar   97  TYR97       0.0417
     85  CZ       -32.9690    2.0900  -30.4460 C.ar   97  TYR97       0.1957
     86  OH       -34.1440    2.7690  -30.6020 O.3    97  TYR97      -0.2866
     87  N        -30.5880   -2.8020  -28.3980 N.am   98  TYR98      -0.1974
     88  CA       -31.6530   -3.6880  -27.9130 C.3    98  TYR98       0.1639
     89  C        -31.4990   -4.1100  -26.4260 C.2    98  TYR98       0.2290
     90  O        -32.4980   -4.2130  -25.6900 O.2    98  TYR98      -0.2864
     91  CB       -31.6940   -4.9380  -28.7830 C.3    98  TYR98       0.0560
     92  CG       -32.0870   -4.7020  -30.2060 C.ar   98  TYR98      -0.0198
     93  CD1      -32.8660   -3.6200  -30.5580 C.ar   98  TYR98      -0.0009
     94  CD2      -31.7550   -5.6120  -31.2020 C.ar   98  TYR98      -0.0009
     95  CE1      -33.2530   -3.4030  -31.8680 C.ar   98  TYR98       0.0417
     96  CE2      -32.1280   -5.4010  -32.5120 C.ar   98  TYR98       0.0417
     97  CZ       -32.8860   -4.2860  -32.8240 C.ar   98  TYR98       0.1957
     98  OH       -33.2820   -4.0410  -34.0940 O.3    98  TYR98      -0.2866
     99  N        -25.5320  -11.4880  -28.0330 N.3   141  ASP141     -0.1239
    100  CA       -24.8380  -10.2650  -27.6780 C.3   141  ASP141      0.1674
    101  C        -25.6820   -9.4540  -26.6830 C.2   141  ASP141      0.2266
    102  O        -26.1780   -8.3760  -27.0010 O.2   141  ASP141     -0.2867
    103  CB       -24.5570   -9.4740  -28.9360 C.3   141  ASP141      0.1410
    104  CG       -23.7840   -8.2000  -28.6870 C.2   141  ASP141      0.3668
    105  OD1      -23.3610   -7.8630  -27.5520 O.co2 141  ASP141     -0.2456
    106  OD2      -23.5660   -7.5020  -29.6730 O.co2 141  ASP141     -0.2456
    107  N        -25.6170   -7.2070  -23.6050 N.3   143  GLU143     -0.1245
    108  CA       -24.7040   -6.2980  -22.9190 C.3   143  GLU143      0.1567
    109  C        -25.3730   -5.5570  -21.7620 C.2   143  GLU143      0.2260
    110  O        -25.6500   -4.3980  -21.9280 O.2   143  GLU143     -0.2867
    111  CB       -24.1780   -5.2770  -23.9460 C.3   143  GLU143      0.0388
    112  CG       -23.4680   -5.9940  -25.1010 C.3   143  GLU143      0.1160
    113  CD       -22.9320   -5.0820  -26.1950 C.2   143  GLU143      0.3649
    114  OE1      -22.8120   -3.8700  -25.9740 O.co2 143  GLU143     -0.2457
    115  OE2      -22.6210   -5.5950  -27.2940 O.co2 143  GLU143     -0.2457
    116  N        -20.8020  -12.5320  -27.4480 N.3   183  ALA183     -0.1245
    117  CA       -19.9670  -11.3420  -27.3430 C.3   183  ALA183      0.1562
    118  C        -19.8480  -11.0440  -25.8580 C.2   183  ALA183      0.2260
    119  O        -20.8200  -10.8140  -25.2070 O.2   183  ALA183     -0.2867
    120  CB       -20.6250  -10.2100  -28.0750 C.3   183  ALA183      0.0290
    121  N        -15.1350   -8.2780  -26.2160 N.3   211  MET211     -0.1245
    122  CA       -15.2870   -6.9690  -26.8020 C.3   211  MET211      0.1570
    123  C        -14.2180   -6.0710  -26.2110 C.2   211  MET211      0.2261
    124  O        -14.4820   -5.1540  -25.4380 O.2   211  MET211     -0.2867
    125  CB       -16.6790   -6.4330  -26.5660 C.3   211  MET211      0.0387
    126  CG       -17.7030   -7.1000  -27.4340 C.3   211  MET211      0.0595
    127  SD       -19.3650   -6.3880  -27.3430 S.3   211  MET211     -0.1393
    128  CE       -19.7560   -6.9030  -25.6760 C.3   211  MET211      0.0692
    129  N        -12.4820   -3.5430  -26.9440 N.3   213  TYR213     -0.1227
    130  CA       -12.4280   -2.2840  -27.6450 C.3   213  TYR213      0.1736
    131  C        -13.5590   -1.4500  -27.0470 C.2   213  TYR213      0.2595
    132  O        -14.3300   -1.9540  -26.2230 O.2   213  TYR213     -0.2718
    133  CB       -12.6400   -2.4750  -29.1490 C.3   213  TYR213      0.0548
    134  CG       -13.8240   -3.3480  -29.5780 C.ar  213  TYR213     -0.0200
    135  CD1      -15.1040   -2.9050  -29.4700 C.ar  213  TYR213     -0.0009
    136  CD2      -13.6320   -4.5890  -30.1190 C.ar  213  TYR213     -0.0009
    137  CE1      -16.1780   -3.6880  -29.8500 C.ar  213  TYR213      0.0417
    138  CE2      -14.6950   -5.4000  -30.4750 C.ar  213  TYR213      0.0417
    139  CZ       -15.9690   -4.9320  -30.3780 C.ar  213  TYR213      0.1957
    140  OH       -17.0520   -5.6900  -30.7900 O.3   213  TYR213     -0.2866
    141  N        -13.6720   -0.1870  -27.4620 N.am  214  ASP214     -0.1974
    142  CA       -14.5450    0.7810  -26.7780 C.3   214  ASP214      0.1709
    143  C        -14.2090    0.8900  -25.3180 C.2   214  ASP214      0.2293
    144  O        -15.0650    1.1770  -24.5050 O.2   214  ASP214     -0.2864
    145  CB       -16.0360    0.4150  -26.9350 C.3   214  ASP214      0.1436
    146  CG       -16.7660    1.3550  -27.8420 C.2   214  ASP214      0.3671
    147  OD1      -16.1240    1.8460  -28.7800 O.co2 214  ASP214     -0.2456
    148  OD2      -17.9660    1.6310  -27.6380 O.co2 214  ASP214     -0.2456
    149  N        -13.0310    0.6250  -36.4060 N.3   291  TYR291     -0.1241
    150  CA       -13.5400    1.9820  -36.2830 C.3   291  TYR291      0.1605
    151  C        -12.7220    2.7050  -35.2310 C.2   291  TYR291      0.2264
    152  O        -12.1370    2.0750  -34.3520 O.2   291  TYR291     -0.2867
    153  CB       -15.0300    1.9950  -35.8810 C.3   291  TYR291      0.0534
    154  CG       -15.2660    1.5610  -34.4730 C.ar  291  TYR291     -0.0201
    155  CD1      -15.5010    0.2290  -34.1880 C.ar  291  TYR291     -0.0009
    156  CD2      -15.1610    2.4520  -33.4190 C.ar  291  TYR291     -0.0009
    157  CE1      -15.6570   -0.2170  -32.8940 C.ar  291  TYR291      0.0417
    158  CE2      -15.2660    2.0150  -32.1080 C.ar  291  TYR291      0.0417
    159  CZ       -15.5210    0.6650  -31.8600 C.ar  291  TYR291      0.1957
    160  OH       -15.6600    0.1690  -30.6000 O.3   291  TYR291     -0.2866
    161  N        -12.5760    5.9710  -32.3700 N.3   293  ARG293     -0.1245
    162  CA       -13.3210    6.9790  -31.5910 C.3   293  ARG293      0.1563
    163  C        -12.6250    8.3300  -31.4970 C.2   293  ARG293      0.2260
    164  O        -11.4040    8.4150  -31.1700 O.2   293  ARG293     -0.2867
    165  CB       -13.5220    6.4740  -30.1910 C.3   293  ARG293      0.0307
    166  CG       -14.6390    5.4800  -30.1250 C.3   293  ARG293      0.0489
    167  CD       -15.1230    5.4110  -28.7250 C.3   293  ARG293      0.2205
    168  NE       -16.3340    4.6180  -28.6550 N.pl3 293  ARG293     -0.0865
    169  CZ       -17.5540    5.0960  -28.7640 C.cat 293  ARG293      0.5346
    170  NH1      -17.7520    6.3760  -29.0050 N.pl3 293  ARG293      0.1354
    171  NH2      -18.5600    4.2710  -28.5770 N.pl3 293  ARG293      0.1354
    172  N        -26.6790   10.5050  -26.5130 N.3   315  ASP315     -0.1225
    173  CA       -27.1980    9.8670  -27.7620 C.3   315  ASP315      0.1790
    174  C        -28.6670   10.2030  -27.8970 C.2   315  ASP315      0.2440
    175  O        -29.3860   10.1100  -26.9330 O.2   315  ASP315     -0.2733
    176  CB       -27.0840    8.3380  -27.7110 C.3   315  ASP315      0.1423
    177  CG       -25.6340    7.8420  -27.5310 C.2   315  ASP315      0.3668
    178  OD1      -24.8690    7.8590  -28.5220 O.co2 315  ASP315     -0.2456
    179  OD2      -25.2780    7.3560  -26.4250 O.co2 315  ASP315     -0.2456
    180  N        -29.1210   10.6190  -29.0810 N.am  316  PRO316     -0.2718
    181  CA       -28.3070   10.8700  -30.2740 C.3   316  PRO316      0.1535
    182  C        -27.3850   12.0930  -30.0840 C.2   316  PRO316      0.2598
    183  O        -27.5840   12.9250  -29.1790 O.2   316  PRO316     -0.2715
    184  CB       -29.3630   11.2180  -31.3360 C.3   316  PRO316      0.0310
    185  CG       -30.4340   11.9520  -30.5450 C.3   316  PRO316      0.0237
    186  CD       -30.4280   11.3180  -29.1510 C.3   316  PRO316      0.0939
    187  N        -26.4370   12.2290  -30.9950 N.am  317  TYR317     -0.1974
    188  CA       -25.5900   13.3910  -31.0240 C.3   317  TYR317      0.1639
    189  C        -26.4560   14.6290  -30.9530 C.2   317  TYR317      0.2290
    190  O        -27.3950   14.7710  -31.7060 O.2   317  TYR317     -0.2864
    191  CB       -24.7050   13.4250  -32.2940 C.3   317  TYR317      0.0560
    192  CG       -23.5860   14.4150  -32.1510 C.ar  317  TYR317     -0.0198
    193  CD1      -22.5660   14.2210  -31.2130 C.ar  317  TYR317     -0.0009
    194  CD2      -23.5740   15.5690  -32.8880 C.ar  317  TYR317     -0.0009
    195  CE1      -21.6010   15.1920  -30.9910 C.ar  317  TYR317      0.0417
    196  CE2      -22.6020   16.5410  -32.6740 C.ar  317  TYR317      0.0417
    197  CZ       -21.6420   16.3520  -31.7150 C.ar  317  TYR317      0.1957
    198  OH       -20.6770   17.2950  -31.5850 O.3   317  TYR317     -0.2866
    199  N        -23.9900   10.1770  -41.1570 N.3   333  ASP333     -0.1225
    200  CA       -24.4870    9.4970  -39.9610 C.3   333  ASP333      0.1805
    201  C        -24.7850   10.4470  -38.8080 C.2   333  ASP333      0.2598
    202  O        -25.1980    9.9910  -37.7520 O.2   333  ASP333     -0.2718
    203  CB       -23.5080    8.4320  -39.4750 C.3   333  ASP333      0.1424
    204  CG       -23.3460    7.2910  -40.4500 C.2   333  ASP333      0.3668
    205  OD1      -24.2080    7.1140  -41.3410 O.co2 333  ASP333     -0.2456
    206  OD2      -22.3350    6.5750  -40.3120 O.co2 333  ASP333     -0.2456
    207  N        -24.5540   11.7470  -38.9880 N.am  334  LYS334     -0.1966
    208  CA       -24.9510   12.7360  -37.9780 C.3   334  LYS334      0.1728
    209  C        -24.2460   12.5290  -36.6330 C.2   334  LYS334      0.2616
    210  O        -24.8350   12.7110  -35.5980 O.2   334  LYS334     -0.2715
    211  CB       -26.4460   12.6460  -37.7310 C.3   334  LYS334      0.0311
    212  CG       -27.3610   13.1390  -38.8500 C.3   334  LYS334      0.0038
    213  CD       -28.7410   13.4190  -38.2340 C.3   334  LYS334      0.0206
    214  CE       -29.8580   13.4610  -39.2610 C.3   334  LYS334      0.1093
    215  NZ       -29.2950   14.0160  -40.5120 N.3   334  LYS334     -0.1314
    216  N        -23.0020   12.0870  -36.6450 N.am  335  ASP335     -0.1971
    217  CA       -22.3050   11.8240  -35.4310 C.3   335  ASP335      0.1709
    218  C        -20.8060   11.8280  -35.7270 C.2   335  ASP335      0.2293
    219  O        -20.2940   11.0160  -36.4640 O.2   335  ASP335     -0.2864
    220  CB       -22.7460   10.4760  -34.8710 C.3   335  ASP335      0.1436
    221  CG       -22.3800   10.2770  -33.4020 C.2   335  ASP335      0.3671
    222  OD1      -21.3720   10.8690  -32.9230 O.co2 335  ASP335     -0.2456
    223  OD2      -23.0750    9.4470  -32.7550 O.co2 335  ASP335     -0.2456
    224  N        -17.5340    8.6710  -34.1640 N.3   338  ILE338     -0.1245
    225  CA       -17.2030    7.3390  -34.6620 C.3   338  ILE338      0.1561
    226  C        -16.9020    7.5050  -36.1480 C.2   338  ILE338      0.2260
    227  O        -17.7600    7.9620  -36.8900 O.2   338  ILE338     -0.2867
    228  CB       -18.4220    6.3960  -34.6060 C.3   338  ILE338      0.0252
    229  CG1      -19.0180    6.3050  -33.2080 C.3   338  ILE338      0.0019
    230  CG2      -18.0670    5.0250  -35.1500 C.3   338  ILE338      0.0019
    231  CD1      -18.0850    5.6390  -32.2450 C.3   338  ILE338      0.0001
    232  N        -12.0290  -11.4070  -33.4300 N.3   400  MET400     -0.1245
    233  CA       -13.3570  -10.9550  -33.8420 C.3   400  MET400      0.1570
    234  C        -13.2780   -9.4550  -34.0600 C.2   400  MET400      0.2261
    235  O        -12.4380   -8.7990  -33.4760 O.2   400  MET400     -0.2867
    236  CB       -14.3870  -11.2700  -32.7520 C.3   400  MET400      0.0387
    237  CG       -15.7670  -10.6680  -32.9370 C.3   400  MET400      0.0595
    238  SD       -15.9950   -8.9430  -32.4170 S.3   400  MET400     -0.1393
    239  CE       -16.2530   -9.1040  -30.6370 C.3   400  MET400      0.0692
    240  N        -15.6990   -5.7400  -35.0470 N.3   402  TRP402     -0.1241
    241  CA       -16.8190   -4.9330  -35.4550 C.3   402  TRP402      0.1605
    242  C        -16.3060   -3.7430  -36.2440 C.2   402  TRP402      0.2264
    243  O        -15.6020   -2.8820  -35.6760 O.2   402  TRP402     -0.2867
    244  CB       -17.5180   -4.3940  -34.1950 C.3   402  TRP402      0.0550
    245  CG       -18.5970   -3.4540  -34.4820 C.ar  402  TRP402      0.0003
    246  CD1      -18.5000   -2.1150  -34.5700 C.ar  402  TRP402      0.0946
    247  CD2      -19.9520   -3.7860  -34.7560 C.ar  402  TRP402      0.0152
    248  NE1      -19.7360   -1.5690  -34.8350 N.ar  402  TRP402     -0.2442
    249  CE2      -20.6390   -2.5800  -34.9780 C.ar  402  TRP402      0.0810
    250  CE3      -20.6580   -4.9930  -34.8280 C.ar  402  TRP402      0.0012
    251  CZ2      -21.9870   -2.5360  -35.3000 C.ar  402  TRP402      0.0191
    252  CZ3      -22.0330   -4.9510  -35.1240 C.ar  402  TRP402      0.0001
    253  CH2      -22.6760   -3.7330  -35.3370 C.ar  402  TRP402      0.0015
    254  N        -16.5920   -1.5820  -42.1880 N.3   406  GLN406     -0.1245
    255  CA       -15.7420   -0.4770  -41.8820 C.3   406  GLN406      0.1566
    256  C        -14.3020   -0.6810  -42.3450 C.2   406  GLN406      0.2260
    257  O        -13.5020    0.2340  -42.2710 O.2   406  GLN406     -0.2867
    258  CB       -15.8380   -0.1660  -40.3880 C.3   406  GLN406      0.0367
    259  CG       -17.2440    0.1970  -39.8930 C.3   406  GLN406      0.0905
    260  CD       -17.3100    0.2250  -38.3610 C.2   406  GLN406      0.2608
    261  OE1      -16.8130   -0.6900  -37.6790 O.2   406  GLN406     -0.2717
    262  NE2      -17.8490    1.2890  -37.8190 N.am  406  GLN406     -0.0878
@<TRIPOS>BOND
     1    41    40    2
     2    40    39    1
     3    44    43    2
     4    39    42    1
     5    39    38    1
     6    42    43    1
     7    34    33    2
     8    43    45   am
     9    27    26    2
    10    38    33   am
    11    33    32    1
    12   256   257    2
    13   256   255    1
    14   254   255    1
    15    16    15    2
    16   255   258    1
    17    30    24    1
    18    30    29    1
    19    26    25    1
    20    26    31   am
    21    32    31    1
    22    32    35    1
    23    24    25    1
    24   205   204   ar
    25    28    29    1
    26    28    25    1
    27   199   200    1
    28    15    14    1
    29    37    35    1
    30   215   214    1
    31   204   206   ar
    32   204   203    1
    33    35    36    1
    34   258   259    1
    35    13    14    1
    36   200   203    1
    37   200   201    1
    38   259   260    1
    39    14    17    1
    40     4     3    2
    41     3     2    1
    42   214   213    1
    43   207   201   am
    44   207   208    1
    45    17    18    1
    46   212   213    1
    47   212   211    1
    48   201   202    2
    49    20    22   ar
    50    20    18   ar
    51    22    23   ar
    52    18    19   ar
    53   260   262   am
    54   260   261    2
    55   208   211    1
    56   208   209    1
    57     1     2    1
    58     2     5    1
    59    19    21   ar
    60    23    21   ar
    61   227   226    2
    62     5     6    1
    63    46    47    1
    64   216   209   am
    65   216   217    1
    66   209   210    2
    67   219   218    2
    68   149   150    1
    69   150   153    1
    70   150   151    1
    71   242   243    2
    72   242   241    1
    73   226   225    1
    74    49    48    2
    75   153   154    1
    76   218   217    1
    77     6     8   ar
    78     6     7   ar
    79   241   240    1
    80   241   244    1
    81    47    48    1
    82    47    50    1
    83   217   220    1
    84   253   251   ar
    85   253   252   ar
    86   251   249   ar
    87   151   152    2
    88     8    10   ar
    89   230   228    1
    90   252   250   ar
    91   249   248   ar
    92   249   247   ar
    93   220   221    1
    94   248   246   ar
    95   250   247   ar
    96   247   245   ar
    97   225   228    1
    98   225   224    1
    99     7     9   ar
   100   228   229    1
   101   246   245   ar
   102   245   244    1
   103   154   155   ar
   104   154   156   ar
   105    50    51    1
   106   155   157   ar
   107    98    97    1
   108    53    51   ar
   109    53    55   ar
   110   234   233    1
   111   234   235    2
   112    10    11   ar
   113   233   232    1
   114   233   236    1
   115    51    52   ar
   116    55    56   ar
   117     9    11   ar
   118   156   158   ar
   119   221   222   ar
   120   221   223   ar
   121   229   231    1
   122    11    12    1
   123    52    54   ar
   124   237   236    1
   125   237   238    1
   126   157   159   ar
   127   194   196   ar
   128   194   192   ar
   129    56    54   ar
   130    97    96   ar
   131    97    95   ar
   132   196   197   ar
   133    96    94   ar
   134   238   239    1
   135   161   162    1
   136   191   192    1
   137   191   188    1
   138   192   193   ar
   139   158   159   ar
   140    95    93   ar
   141   159   160    1
   142   197   198    1
   143   197   195   ar
   144   190   189    2
   145   162   163    1
   146   162   165    1
   147   163   164    2
   148   184   185    1
   149   184   181    1
   150   193   195   ar
   151    94    92   ar
   152   188   187    1
   153   188   189    1
   154   187   182   am
   155    84    82   ar
   156    84    85   ar
   157   140   139    1
   158    82    80   ar
   159    86    85    1
   160    93    92   ar
   161   185   186    1
   162   138   139   ar
   163   138   136   ar
   164    85    83   ar
   165    60    59    2
   166   139   137   ar
   167   181   182    1
   168   181   180    1
   169    92    91    1
   170   165   166    1
   171    57    58    1
   172   166   167    1
   173   136   134   ar
   174    80    79    1
   175    80    81   ar
   176   182   183    2
   177    79    76    1
   178   137   135   ar
   179    83    81   ar
   180   106   104   ar
   181    59    58    1
   182   134   135   ar
   183   134   133    1
   184   186   180    1
   185   133   130    1
   186   180   174   am
   187   170   169    1
   188   103   104    1
   189   103   100    1
   190    91    88    1
   191   147   146   ar
   192   169   168    2
   193   169   171    1
   194   167   168    1
   195   104   105   ar
   196   178   177   ar
   197    76    75    1
   198    76    77    1
   199    75    63   am
   200    87    77   am
   201    87    88    1
   202    61    62    1
   203   120   117    1
   204    99   100    1
   205    77    78    2
   206    88    89    1
   207   174   173    1
   208   174   175    2
   209   146   148   ar
   210   146   145    1
   211   173   176    1
   212   173   172    1
   213   176   177    1
   214   100   101    1
   215   130   131    1
   216   130   129    1
   217    71    73   ar
   218    71    68   ar
   219   177   179   ar
   220   141   131   am
   221   141   142    1
   222   116   117    1
   223    65    62    1
   224    65    66    1
   225   126   127    1
   226   126   125    1
   227    73    74   ar
   228   127   128    1
   229   117   118    1
   230   115   113   ar
   231    63    62    1
   232    63    64    2
   233   131   132    2
   234   102   101    2
   235   145   142    1
   236   122   125    1
   237   122   121    1
   238   122   123    1
   239   142   143    1
   240    68    66   ar
   241    68    70   ar
   242    89    90    2
   243    66    67   ar
   244   123   124    2
   245   113   114   ar
   246   113   112    1
   247    74    72   ar
   248   118   119    2
   249    70    72   ar
   250    70    69   ar
   251   143   144    2
   252    67    69   ar
   253   112   111    1
   254   111   108    1
   255   107   108    1
   256   108   109    1
   257   110   109    2
