@<TRIPOS>MOLECULE
tmp/4z2jA01.pdb
 159 155 0 0 0
SMALL
GASTEIGER

@<TRIPOS>ATOM
      1  N        -25.9610   -3.6770  -28.1290 N.3    96  TRP96      -0.1241
      2  CA       -26.1200   -2.5950  -27.1820 C.3    96  TRP96       0.1605
      3  C        -27.4920   -1.9630  -27.2100 C.2    96  TRP96       0.2264
      4  O        -28.1190   -1.7990  -26.1530 O.2    96  TRP96      -0.2867
      5  CB       -25.0820   -1.5230  -27.4460 C.3    96  TRP96       0.0550
      6  CG       -25.1180   -0.4620  -26.4140 C.ar   96  TRP96       0.0003
      7  CD1      -24.5880   -0.5240  -25.1510 C.ar   96  TRP96       0.0946
      8  CD2      -25.7270    0.8210  -26.5360 C.ar   96  TRP96       0.0152
      9  NE1      -24.8370    0.6440  -24.4860 N.ar   96  TRP96      -0.2442
     10  CE2      -25.5150    1.4990  -25.3190 C.ar   96  TRP96       0.0810
     11  CE3      -26.3920    1.4900  -27.5810 C.ar   96  TRP96       0.0012
     12  CZ2      -25.9620    2.8190  -25.1040 C.ar   96  TRP96       0.0191
     13  CZ3      -26.8400    2.8160  -27.3730 C.ar   96  TRP96       0.0001
     14  CH2      -26.6360    3.4500  -26.1340 C.ar   96  TRP96       0.0015
     15  N        -28.8180   -3.2330  -23.7340 N.3   100  ASN100     -0.1225
     16  CA       -28.2440   -2.5610  -22.5550 C.3   100  ASN100      0.1785
     17  C        -29.2600   -2.3720  -21.4770 C.2   100  ASN100      0.2597
     18  O        -30.4380   -2.5900  -21.6990 O.2   100  ASN100     -0.2718
     19  CB       -27.5850   -1.2170  -22.8810 C.3   100  ASN100      0.1169
     20  CG       -28.5880   -0.1040  -23.1190 C.2   100  ASN100      0.2627
     21  OD1      -28.9580    0.6340  -22.2030 O.2   100  ASN100     -0.2716
     22  ND2      -28.9790    0.0620  -24.3780 N.am  100  ASN100     -0.0877
     23  N        -28.8080   -2.0130  -20.2820 N.am  101  ASP101     -0.1960
     24  CA       -29.7220   -1.8660  -19.1120 C.3   101  ASP101      0.1840
     25  C        -30.9400   -0.9850  -19.3550 C.2   101  ASP101      0.2621
     26  O        -31.9520   -1.2030  -18.7440 O.2   101  ASP101     -0.2715
     27  CB       -28.9720   -1.3580  -17.8610 C.3   101  ASP101      0.1450
     28  CG       -27.9540   -2.3870  -17.3270 C.2   101  ASP101      0.3671
     29  OD1      -27.9000   -3.5160  -17.8760 O.co2 101  ASP101     -0.2456
     30  OD2      -27.1600   -2.0550  -16.4130 O.co2 101  ASP101     -0.2456
     31  N        -30.8060    0.0380  -20.2050 N.am  102  LEU102     -0.1977
     32  CA       -31.9220    0.9100  -20.5940 C.3   102  LEU102      0.1596
     33  C        -32.3030    0.7720  -22.0440 C.2   102  LEU102      0.2287
     34  O        -32.8240    1.7010  -22.6190 O.2   102  LEU102     -0.2864
     35  CB       -31.5480    2.3860  -20.3420 C.3   102  LEU102      0.0297
     36  CG       -31.1140    2.6750  -18.8900 C.3   102  LEU102      0.0022
     37  CD1      -30.6740    4.1180  -18.7470 C.3   102  LEU102      0.0001
     38  CD2      -32.2420    2.3540  -17.9200 C.3   102  LEU102      0.0001
     39  N        -25.6170   -7.2070  -23.6050 N.3   143  GLU143     -0.1245
     40  CA       -24.7040   -6.2980  -22.9190 C.3   143  GLU143      0.1567
     41  C        -25.3730   -5.5570  -21.7620 C.2   143  GLU143      0.2260
     42  O        -25.6500   -4.3980  -21.9280 O.2   143  GLU143     -0.2867
     43  CB       -24.1780   -5.2770  -23.9460 C.3   143  GLU143      0.0388
     44  CG       -23.4680   -5.9940  -25.1010 C.3   143  GLU143      0.1160
     45  CD       -22.9320   -5.0820  -26.1950 C.2   143  GLU143      0.3649
     46  OE1      -22.8120   -3.8700  -25.9740 O.co2 143  GLU143     -0.2457
     47  OE2      -22.6210   -5.5950  -27.2940 O.co2 143  GLU143     -0.2457
     48  N        -13.9030   -5.4020  -20.5370 N.3   187  GLY187     -0.1225
     49  CA       -13.3380   -4.6780  -19.4260 C.3   187  GLY187      0.1811
     50  C        -14.0630   -5.0650  -18.1290 C.2   187  GLY187      0.2280
     51  O        -15.2430   -5.5390  -18.1300 O.2   187  GLY187     -0.2866
     52  N        -15.3900   -3.7000  -15.4310 N.3   189  PHE189     -0.1227
     53  CA       -16.6580   -3.2240  -14.8150 C.3   189  PHE189      0.1736
     54  C        -17.8330   -4.0700  -15.2150 C.2   189  PHE189      0.2595
     55  O        -18.4730   -4.6500  -14.3460 O.2   189  PHE189     -0.2718
     56  CB       -16.9360   -1.7510  -15.0340 C.3   189  PHE189      0.0547
     57  CG       -15.8850   -0.8840  -14.4530 C.ar  189  PHE189     -0.0202
     58  CD1      -15.8810   -0.6260  -13.1100 C.ar  189  PHE189     -0.0042
     59  CD2      -14.7890   -0.4970  -15.2200 C.ar  189  PHE189     -0.0042
     60  CE1      -14.8660    0.1070  -12.5330 C.ar  189  PHE189     -0.0003
     61  CE2      -13.7530    0.2330  -14.6650 C.ar  189  PHE189     -0.0003
     62  CZ       -13.7850    0.5200  -13.3040 C.ar  189  PHE189     -0.0000
     63  N        -18.0020   -4.3010  -16.5170 N.am  190  PHE190     -0.1976
     64  CA       -19.1100   -5.1610  -16.9970 C.3   190  PHE190      0.1639
     65  C        -18.8550   -6.6360  -16.8100 C.2   190  PHE190      0.2290
     66  O        -19.7850   -7.4080  -16.5150 O.2   190  PHE190     -0.2864
     67  CB       -19.3990   -4.9190  -18.4590 C.3   190  PHE190      0.0560
     68  CG       -19.9460   -3.5580  -18.7560 C.ar  190  PHE190     -0.0200
     69  CD1      -21.1220   -3.1220  -18.1460 C.ar  190  PHE190     -0.0042
     70  CD2      -19.3230   -2.7440  -19.6870 C.ar  190  PHE190     -0.0042
     71  CE1      -21.6450   -1.8780  -18.4510 C.ar  190  PHE190     -0.0003
     72  CE2      -19.8720   -1.5250  -20.0410 C.ar  190  PHE190     -0.0003
     73  CZ       -21.0290   -1.0860  -19.4180 C.ar  190  PHE190     -0.0000
     74  N        -20.0820   -8.5380  -13.6400 N.3   193  ARG193     -0.1245
     75  CA       -21.4780   -8.9720  -13.4660 C.3   193  ARG193      0.1563
     76  C        -21.6010  -10.4990  -13.5080 C.2   193  ARG193      0.2260
     77  O        -22.4710  -11.0640  -12.8620 O.2   193  ARG193     -0.2867
     78  CB       -22.3600   -8.3860  -14.5510 C.3   193  ARG193      0.0307
     79  CG       -22.4070   -6.8750  -14.5950 C.3   193  ARG193      0.0489
     80  CD       -23.3090   -6.4070  -15.7360 C.3   193  ARG193      0.2205
     81  NE       -23.6490   -4.9840  -15.5900 N.pl3 193  ARG193     -0.0865
     82  CZ       -24.6980   -4.3880  -16.1530 C.cat 193  ARG193      0.5346
     83  NH1      -25.5550   -5.0450  -16.9360 N.pl3 193  ARG193      0.1354
     84  NH2      -24.9100   -3.1210  -15.9280 N.pl3 193  ARG193      0.1354
     85  N        -13.6720   -0.1870  -27.4620 N.3   214  ASP214     -0.1225
     86  CA       -14.5450    0.7810  -26.7780 C.3   214  ASP214      0.1805
     87  C        -14.2090    0.8900  -25.3180 C.2   214  ASP214      0.2597
     88  O        -15.0650    1.1770  -24.5050 O.2   214  ASP214     -0.2718
     89  CB       -16.0360    0.4150  -26.9350 C.3   214  ASP214      0.1424
     90  CG       -16.7660    1.3550  -27.8420 C.2   214  ASP214      0.3668
     91  OD1      -16.1240    1.8460  -28.7800 O.co2 214  ASP214     -0.2456
     92  OD2      -17.9660    1.6310  -27.6380 O.co2 214  ASP214     -0.2456
     93  N        -12.9640    0.6160  -24.9780 N.am  215  LEU215     -0.1979
     94  CA       -12.5020    0.7400  -23.6110 C.3   215  LEU215      0.1596
     95  C        -12.2330    2.1960  -23.2320 C.2   215  LEU215      0.2287
     96  O        -11.8040    2.5090  -22.1170 O.2   215  LEU215     -0.2864
     97  CB       -11.2280   -0.0940  -23.4590 C.3   215  LEU215      0.0297
     98  CG       -11.4120   -1.6240  -23.6750 C.3   215  LEU215      0.0022
     99  CD1      -10.1330   -2.3720  -23.3530 C.3   215  LEU215      0.0001
    100  CD2      -12.5510   -2.1980  -22.8250 C.3   215  LEU215      0.0001
    101  N        -17.7680    9.2570  -22.6350 N.3   219  TRP219     -0.1227
    102  CA       -18.1330    9.1100  -21.2390 C.3   219  TRP219      0.1737
    103  C        -16.9420    9.1540  -20.2580 C.2   219  TRP219      0.2595
    104  O        -17.1660    9.1700  -19.0800 O.2   219  TRP219     -0.2718
    105  CB       -18.9100    7.7890  -21.0570 C.3   219  TRP219      0.0564
    106  CG       -18.0980    6.5660  -21.5060 C.ar  219  TRP219      0.0003
    107  CD1      -17.0450    5.9970  -20.8480 C.ar  219  TRP219      0.0946
    108  CD2      -18.1600    5.9290  -22.7740 C.ar  219  TRP219      0.0152
    109  NE1      -16.4730    5.0230  -21.6140 N.ar  219  TRP219     -0.2442
    110  CE2      -17.1470    4.9540  -22.8010 C.ar  219  TRP219      0.0810
    111  CE3      -18.9950    6.0740  -23.8890 C.ar  219  TRP219      0.0012
    112  CZ2      -16.9630    4.1070  -23.8740 C.ar  219  TRP219      0.0191
    113  CZ3      -18.8390    5.2120  -24.9410 C.ar  219  TRP219      0.0001
    114  CH2      -17.8430    4.2210  -24.9210 C.ar  219  TRP219      0.0015
    115  N        -15.6890    9.1750  -20.7220 N.am  220  GLU220     -0.1965
    116  CA       -14.5250    9.2840  -19.8110 C.3   220  GLU220      0.1733
    117  C        -14.0830   10.7230  -19.5390 C.2   220  GLU220      0.2616
    118  O        -14.3420   11.5690  -20.3310 O.2   220  GLU220     -0.2715
    119  CB       -13.3450    8.5430  -20.3880 C.3   220  GLU220      0.0429
    120  CG       -13.5420    7.0540  -20.5630 C.3   220  GLU220      0.1163
    121  CD       -13.6130    6.3150  -19.2510 C.2   220  GLU220      0.3649
    122  OE1      -13.4750    6.9400  -18.1670 O.co2 220  GLU220     -0.2457
    123  OE2      -13.7950    5.0860  -19.3230 O.co2 220  GLU220     -0.2457
    124  N        -13.3810   10.9840  -18.4400 N.am  221  LYS221     -0.1977
    125  CA       -12.9180   12.3280  -18.1040 C.3   221  LYS221      0.1596
    126  C        -11.8150   12.7210  -19.0920 C.2   221  LYS221      0.2287
    127  O        -11.7200   13.8810  -19.5130 O.2   221  LYS221     -0.2864
    128  CB       -12.3160   12.4180  -16.6750 C.3   221  LYS221      0.0298
    129  CG       -13.0700   11.7250  -15.5390 C.3   221  LYS221      0.0038
    130  CD       -12.1720   11.4930  -14.3080 C.3   221  LYS221      0.0206
    131  CE       -12.5100   10.2070  -13.5320 C.3   221  LYS221      0.1093
    132  NZ       -12.4370   10.3440  -12.0410 N.3   221  LYS221     -0.1314
    133  N         -7.6860    2.3270  -13.6220 N.3   238  PHE238     -0.1241
    134  CA        -8.9920    2.1760  -13.0330 C.3   238  PHE238      0.1605
    135  C         -9.0800    1.1790  -11.8590 C.2   238  PHE238      0.2264
    136  O         -8.3450    0.1920  -11.7560 O.2   238  PHE238     -0.2867
    137  CB        -9.9530    1.7120  -14.1270 C.3   238  PHE238      0.0534
    138  CG       -10.0120    2.6250  -15.3080 C.ar  238  PHE238     -0.0203
    139  CD1       -9.0610    2.5440  -16.3140 C.ar  238  PHE238     -0.0042
    140  CD2      -11.0170    3.5550  -15.4230 C.ar  238  PHE238     -0.0042
    141  CE1       -9.0860    3.4070  -17.3960 C.ar  238  PHE238     -0.0003
    142  CE2      -11.0520    4.4200  -16.5020 C.ar  238  PHE238     -0.0003
    143  CZ       -10.0970    4.3370  -17.4970 C.ar  238  PHE238     -0.0000
    144  N         -6.5370   -0.5800  -18.2150 N.3   264  LEU264     -0.1245
    145  CA        -7.6620   -1.1950  -18.9080 C.3   264  LEU264      0.1561
    146  C         -7.3680   -1.5090  -20.3860 C.2   264  LEU264      0.2260
    147  O         -7.5450   -0.6780  -21.2760 O.2   264  LEU264     -0.2867
    148  CB        -8.8640   -0.2760  -18.7760 C.3   264  LEU264      0.0270
    149  CG       -10.2500   -0.8230  -19.1320 C.3   264  LEU264      0.0019
    150  CD1      -10.6960   -1.9290  -18.2100 C.3   264  LEU264      0.0001
    151  CD2      -11.2570    0.3150  -19.0680 C.3   264  LEU264      0.0001
    152  N        -26.6790   10.5050  -26.5130 N.3   315  ASP315     -0.1239
    153  CA       -27.1980    9.8670  -27.7620 C.3   315  ASP315      0.1674
    154  C        -28.6670   10.2030  -27.8970 C.2   315  ASP315      0.2266
    155  O        -29.3860   10.1100  -26.9330 O.2   315  ASP315     -0.2867
    156  CB       -27.0840    8.3380  -27.7110 C.3   315  ASP315      0.1410
    157  CG       -25.6340    7.8420  -27.5310 C.2   315  ASP315      0.3668
    158  OD1      -24.8690    7.8590  -28.5220 O.co2 315  ASP315     -0.2456
    159  OD2      -25.2780    7.3560  -26.4250 O.co2 315  ASP315     -0.2456
@<TRIPOS>BOND
     1    91    90   ar
     2   158   157   ar
     3     1     2    1
     4   154   153    1
     5   154   155    2
     6    90    92   ar
     7    90    89    1
     8   153   156    1
     9   153   152    1
    10   156   157    1
    11    11    13   ar
    12    11     8   ar
    13   157   159   ar
    14    85    86    1
    15     5     2    1
    16     5     6    1
    17    13    14   ar
    18    47    45   ar
    19     3     2    1
    20     3     4    2
    21    89    86    1
    22    86    87    1
    23     8     6   ar
    24     8    10   ar
    25     6     7   ar
    26    45    46   ar
    27    45    44    1
    28    14    12   ar
    29    10    12   ar
    30    10     9   ar
    31    87    93   am
    32    87    88    2
    33     7     9   ar
    34    44    43    1
    35    93    94    1
    36   113   114   ar
    37   113   111   ar
    38   114   112   ar
    39    22    20   am
    40    43    40    1
    41   111   108   ar
    42   112   110   ar
    43    15    16    1
    44    98    97    1
    45    98    99    1
    46    98   100    1
    47    94    97    1
    48    94    95    1
    49    39    40    1
    50    95    96    2
    51    20    19    1
    52    20    21    2
    53    40    41    1
    54    19    16    1
    55   110   108   ar
    56   110   109   ar
    57   108   106   ar
    58   101   102    1
    59    34    33    2
    60    16    17    1
    61    33    32    1
    62    42    41    2
    63    18    17    2
    64   109   107   ar
    65   106   105    1
    66   106   107   ar
    67    17    23   am
    68   147   146    2
    69   102   105    1
    70   102   103    1
    71   115   103   am
    72   115   116    1
    73    32    35    1
    74    32    31    1
    75   120   119    1
    76   120   121    1
    77    48    49    1
    78   119   116    1
    79   146   145    1
    80    35    36    1
    81   118   117    2
    82    23    24    1
    83   103   104    2
    84    31    25   am
    85    72    70   ar
    86    72    73   ar
    87   116   117    1
    88    70    68   ar
    89   117   124   am
    90   127   126    2
    91    49    50    1
    92    73    71   ar
    93    25    24    1
    94    25    26    2
    95   123   121   ar
    96   121   122   ar
    97   149   151    1
    98   149   148    1
    99   149   150    1
   100    24    27    1
   101   126   125    1
   102   145   148    1
   103   145   144    1
   104    36    37    1
   105    36    38    1
   106    68    67    1
   107    68    69   ar
   108    67    64    1
   109    71    69   ar
   110   124   125    1
   111    51    50    2
   112   125   128    1
   113    29    28   ar
   114    27    28    1
   115   143   141   ar
   116   143   142   ar
   117   141   139   ar
   118    28    30   ar
   119    64    65    1
   120    64    63    1
   121    83    82    1
   122    65    66    2
   123   128   129    1
   124    63    54   am
   125   142   140   ar
   126   139   138   ar
   127    82    84    1
   128    82    81    2
   129    80    81    1
   130    80    79    1
   131   129   130    1
   132    52    53    1
   133   140   138   ar
   134   138   137    1
   135    59    61   ar
   136    59    57   ar
   137    54    53    1
   138    54    55    2
   139    56    53    1
   140    56    57    1
   141    61    62   ar
   142    79    78    1
   143    78    75    1
   144    57    58   ar
   145   130   131    1
   146   137   134    1
   147    74    75    1
   148   133   134    1
   149   131   132    1
   150    76    75    1
   151    76    77    2
   152    62    60   ar
   153    58    60   ar
   154   134   135    1
   155   135   136    2
