@<TRIPOS>MOLECULE
tmp/4z2kA00.pdb
 216 212 0 0 0
SMALL
GASTEIGER

@<TRIPOS>ATOM
      1  N        -18.2920   -9.3250  -37.8900 N.3     9  TYR9       -0.1241
      2  CA       -19.6850   -8.9110  -37.8720 C.3     9  TYR9        0.1605
      3  C        -20.0620   -8.2590  -39.1970 C.2     9  TYR9        0.2264
      4  O        -19.3120   -7.4540  -39.7490 O.2     9  TYR9       -0.2867
      5  CB       -20.0040   -7.9440  -36.7200 C.3     9  TYR9        0.0534
      6  CG       -20.2560   -8.5990  -35.3860 C.ar    9  TYR9       -0.0201
      7  CD1      -19.2100   -8.9340  -34.5490 C.ar    9  TYR9       -0.0009
      8  CD2      -21.5550   -8.8920  -34.9670 C.ar    9  TYR9       -0.0009
      9  CE1      -19.4470   -9.5430  -33.3250 C.ar    9  TYR9        0.0417
     10  CE2      -21.8030   -9.4950  -33.7520 C.ar    9  TYR9        0.0417
     11  CZ       -20.7530   -9.7950  -32.9180 C.ar    9  TYR9        0.1957
     12  OH       -21.0010  -10.3810  -31.6960 O.3     9  TYR9       -0.2866
     13  N        -28.5040   -7.3890  -36.4720 N.3    50  PHE50      -0.1241
     14  CA       -28.8370   -8.0350  -35.2000 C.3    50  PHE50       0.1605
     15  C        -30.2850   -8.5150  -35.2590 C.2    50  PHE50       0.2264
     16  O        -31.1620   -7.7410  -35.6310 O.2    50  PHE50      -0.2867
     17  CB       -28.7300   -7.0630  -33.9940 C.3    50  PHE50       0.0534
     18  CG       -27.3150   -6.7760  -33.5420 C.ar   50  PHE50      -0.0203
     19  CD1      -26.6020   -7.7120  -32.8100 C.ar   50  PHE50      -0.0042
     20  CD2      -26.7090   -5.5650  -33.8420 C.ar   50  PHE50      -0.0042
     21  CE1      -25.2890   -7.4780  -32.4380 C.ar   50  PHE50      -0.0003
     22  CE2      -25.4000   -5.3100  -33.4400 C.ar   50  PHE50      -0.0003
     23  CZ       -24.6940   -6.2650  -32.7210 C.ar   50  PHE50      -0.0000
     24  N        -26.1420   -3.5640  -28.3620 N.3    96  TRP96      -0.1241
     25  CA       -26.2700   -2.5280  -27.3230 C.3    96  TRP96       0.1605
     26  C        -27.6760   -1.9280  -27.3530 C.2    96  TRP96       0.2264
     27  O        -28.3650   -1.9120  -26.3510 O.2    96  TRP96      -0.2867
     28  CB       -25.2210   -1.4260  -27.5160 C.3    96  TRP96       0.0550
     29  CG       -25.3680   -0.3140  -26.5280 C.ar   96  TRP96       0.0003
     30  CD1      -26.0280    0.8620  -26.7230 C.ar   96  TRP96       0.0946
     31  CD2      -24.9350   -0.3100  -25.1650 C.ar   96  TRP96       0.0152
     32  NE1      -26.0680    1.5690  -25.5590 N.ar   96  TRP96      -0.2442
     33  CE2      -25.3740    0.8910  -24.5960 C.ar   96  TRP96       0.0810
     34  CE3      -24.2020   -1.2030  -24.3740 C.ar   96  TRP96       0.0012
     35  CZ2      -25.1270    1.2240  -23.2690 C.ar   96  TRP96       0.0191
     36  CZ3      -23.9720   -0.8880  -23.0340 C.ar   96  TRP96       0.0001
     37  CH2      -24.4330    0.3160  -22.4960 C.ar   96  TRP96       0.0015
     38  N        -29.0960   -3.3380  -23.8530 N.3   100  ASN100     -0.1240
     39  CA       -28.4320   -2.6540  -22.7300 C.3   100  ASN100      0.1653
     40  C        -29.4570   -2.4440  -21.6550 C.2   100  ASN100      0.2266
     41  O        -30.6560   -2.5930  -21.9050 O.2   100  ASN100     -0.2867
     42  CB       -27.7350   -1.3460  -23.1430 C.3   100  ASN100      0.1155
     43  CG       -28.7110   -0.1760  -23.2990 C.2   100  ASN100      0.2627
     44  OD1      -29.1470    0.3940  -22.3180 O.2   100  ASN100     -0.2716
     45  ND2      -29.1560    0.0720  -24.5230 N.am  100  ASN100     -0.0877
     46  N        -30.9480   -0.1450  -20.3690 N.3   102  LEU102     -0.1245
     47  CA       -32.0700    0.7350  -20.7130 C.3   102  LEU102      0.1561
     48  C        -32.4900    0.5740  -22.1460 C.2   102  LEU102      0.2260
     49  O        -33.1060    1.4560  -22.7080 O.2   102  LEU102     -0.2867
     50  CB       -31.6840    2.2100  -20.4760 C.3   102  LEU102      0.0270
     51  CG       -31.2880    2.4590  -19.0180 C.3   102  LEU102      0.0019
     52  CD1      -30.6860    3.8460  -18.8410 C.3   102  LEU102      0.0001
     53  CD2      -32.4940    2.2640  -18.1070 C.3   102  LEU102      0.0001
     54  N        -25.4950  -11.5960  -27.9000 N.3   141  ASP141     -0.1239
     55  CA       -24.8020  -10.3470  -27.6230 C.3   141  ASP141      0.1674
     56  C        -25.6640   -9.5150  -26.6850 C.2   141  ASP141      0.2266
     57  O        -26.1340   -8.4340  -27.0240 O.2   141  ASP141     -0.2867
     58  CB       -24.5160   -9.6130  -28.9150 C.3   141  ASP141      0.1410
     59  CG       -23.7090   -8.3240  -28.7000 C.2   141  ASP141      0.3668
     60  OD1      -23.1810   -8.1000  -27.5660 O.co2 141  ASP141     -0.2456
     61  OD2      -23.6160   -7.5260  -29.6790 O.co2 141  ASP141     -0.2456
     62  N        -25.8140   -7.2880  -23.6230 N.3   143  GLU143     -0.1231
     63  CA       -24.8890   -6.4110  -22.9170 C.3   143  GLU143      0.1699
     64  C        -25.5560   -5.6830  -21.7460 C.2   143  GLU143      0.2592
     65  O        -25.9160   -4.5500  -21.9230 O.2   143  GLU143     -0.2718
     66  CB       -24.3030   -5.4000  -23.9340 C.3   143  GLU143      0.0402
     67  CG       -23.4540   -6.0480  -25.0340 C.3   143  GLU143      0.1161
     68  CD       -23.0340   -5.1020  -26.1550 C.2   143  GLU143      0.3649
     69  OE1      -22.9510   -3.8820  -25.9130 O.co2 143  GLU143     -0.2457
     70  OE2      -22.7690   -5.5930  -27.2870 O.co2 143  GLU143     -0.2457
     71  N        -25.7160   -6.2810  -20.5570 N.am  144  TYR144     -0.1976
     72  CA       -25.1800   -7.5930  -20.1440 C.3   144  TYR144      0.1639
     73  C        -26.1060   -8.1540  -19.0870 C.2   144  TYR144      0.2290
     74  O        -26.6620   -7.4000  -18.3110 O.2   144  TYR144     -0.2864
     75  CB       -23.7960   -7.4640  -19.4840 C.3   144  TYR144      0.0560
     76  CG       -22.7260   -6.9100  -20.3890 C.ar  144  TYR144     -0.0198
     77  CD1      -21.9380   -7.7480  -21.1410 C.ar  144  TYR144     -0.0009
     78  CD2      -22.5860   -5.5410  -20.5600 C.ar  144  TYR144     -0.0009
     79  CE1      -21.0150   -7.2420  -22.0350 C.ar  144  TYR144      0.0417
     80  CE2      -21.6430   -5.0090  -21.4300 C.ar  144  TYR144      0.0417
     81  CZ       -20.8530   -5.8670  -22.1470 C.ar  144  TYR144      0.1957
     82  OH       -19.9490   -5.3660  -23.0390 O.3   144  TYR144     -0.2866
     83  N        -20.7970  -12.6720  -27.3410 N.3   183  ALA183     -0.1245
     84  CA       -19.9300  -11.4890  -27.2840 C.3   183  ALA183      0.1562
     85  C        -19.7950  -11.1920  -25.7990 C.2   183  ALA183      0.2260
     86  O        -20.7680  -10.9340  -25.1390 O.2   183  ALA183     -0.2867
     87  CB       -20.5610  -10.3090  -28.0070 C.3   183  ALA183      0.0290
     88  N        -18.1110   -4.3360  -16.5910 N.3   190  PHE190     -0.1241
     89  CA       -19.2030   -5.2190  -17.0090 C.3   190  PHE190      0.1605
     90  C        -18.9190   -6.6960  -16.7890 C.2   190  PHE190      0.2264
     91  O        -19.8370   -7.4870  -16.5070 O.2   190  PHE190     -0.2867
     92  CB       -19.5750   -4.9810  -18.4620 C.3   190  PHE190      0.0534
     93  CG       -20.1740   -3.6410  -18.7040 C.ar  190  PHE190     -0.0203
     94  CD1      -21.3290   -3.2630  -18.0440 C.ar  190  PHE190     -0.0042
     95  CD2      -19.5890   -2.7630  -19.5840 C.ar  190  PHE190     -0.0042
     96  CE1      -21.8970   -2.0360  -18.2680 C.ar  190  PHE190     -0.0003
     97  CE2      -20.1840   -1.5500  -19.8500 C.ar  190  PHE190     -0.0003
     98  CZ       -21.3270   -1.1770  -19.1740 C.ar  190  PHE190     -0.0000
     99  N        -15.1790   -8.4160  -26.2930 N.3   211  MET211     -0.1245
    100  CA       -15.2990   -7.0550  -26.8020 C.3   211  MET211      0.1570
    101  C        -14.2000   -6.2020  -26.2330 C.2   211  MET211      0.2261
    102  O        -14.4110   -5.3120  -25.4150 O.2   211  MET211     -0.2867
    103  CB       -16.6780   -6.5070  -26.5050 C.3   211  MET211      0.0387
    104  CG       -17.6820   -7.1020  -27.4470 C.3   211  MET211      0.0595
    105  SD       -19.4050   -6.5480  -27.3380 S.3   211  MET211     -0.1393
    106  CE       -19.8650   -7.3370  -25.8130 C.3   211  MET211      0.0692
    107  N        -12.4900   -3.6600  -27.0070 N.3   213  TYR213     -0.1227
    108  CA       -12.4570   -2.3970  -27.6780 C.3   213  TYR213      0.1736
    109  C        -13.5330   -1.5380  -26.9950 C.2   213  TYR213      0.2595
    110  O        -14.1560   -1.9960  -26.0600 O.2   213  TYR213     -0.2718
    111  CB       -12.7320   -2.5990  -29.1690 C.3   213  TYR213      0.0548
    112  CG       -13.9040   -3.4920  -29.5470 C.ar  213  TYR213     -0.0200
    113  CD1      -15.2030   -3.0340  -29.4700 C.ar  213  TYR213     -0.0009
    114  CD2      -13.6980   -4.7210  -30.1510 C.ar  213  TYR213     -0.0009
    115  CE1      -16.2670   -3.8370  -29.8560 C.ar  213  TYR213      0.0417
    116  CE2      -14.7440   -5.5390  -30.5470 C.ar  213  TYR213      0.0417
    117  CZ       -16.0260   -5.0950  -30.4130 C.ar  213  TYR213      0.1957
    118  OH       -17.0780   -5.8690  -30.8190 O.3   213  TYR213     -0.2866
    119  N        -13.6840   -0.2630  -27.3580 N.am  214  ASP214     -0.1974
    120  CA       -14.5280    0.6290  -26.5660 C.3   214  ASP214      0.1709
    121  C        -14.0690    0.6620  -25.1160 C.2   214  ASP214      0.2293
    122  O        -14.8340    0.9490  -24.2140 O.2   214  ASP214     -0.2864
    123  CB       -15.9980    0.2020  -26.6200 C.3   214  ASP214      0.1436
    124  CG       -16.6450    0.4550  -27.9880 C.2   214  ASP214      0.3671
    125  OD1      -16.0260    1.1160  -28.8510 O.co2 214  ASP214     -0.2456
    126  OD2      -17.7810   -0.0270  -28.1950 O.co2 214  ASP214     -0.2456
    127  N        -16.3100    8.7670  -24.9300 N.3   218  PRO218     -0.2102
    128  CA       -16.6420   10.1150  -24.4720 C.3   218  PRO218      0.1504
    129  C        -17.2470   10.1240  -23.0770 C.2   218  PRO218      0.2575
    130  O        -17.1900   11.1380  -22.3900 O.2   218  PRO218     -0.2718
    131  CB       -17.6570   10.6030  -25.5040 C.3   218  PRO218      0.0282
    132  CG       -18.2160    9.3680  -26.0690 C.3   218  PRO218      0.0208
    133  CD       -17.0590    8.4240  -26.1390 C.3   218  PRO218      0.0893
    134  N        -17.6780    8.9600  -22.6280 N.am  219  TRP219     -0.1977
    135  CA       -18.1220    8.8000  -21.2540 C.3   219  TRP219      0.1640
    136  C        -16.9900    8.8300  -20.2420 C.2   219  TRP219      0.2290
    137  O        -17.2680    8.8790  -19.0710 O.2   219  TRP219     -0.2864
    138  CB       -18.9240    7.4840  -21.1060 C.3   219  TRP219      0.0576
    139  CG       -18.1530    6.2460  -21.5140 C.ar  219  TRP219      0.0006
    140  CD1      -17.2500    5.5740  -20.7540 C.ar  219  TRP219      0.0946
    141  CD2      -18.1130    5.6460  -22.8100 C.ar  219  TRP219      0.0152
    142  NE1      -16.6340    4.6190  -21.4970 N.ar  219  TRP219     -0.2442
    143  CE2      -17.1710    4.6020  -22.7490 C.ar  219  TRP219      0.0810
    144  CE3      -18.7950    5.8750  -24.0080 C.ar  219  TRP219      0.0012
    145  CZ2      -16.9020    3.7660  -23.8210 C.ar  219  TRP219      0.0191
    146  CZ3      -18.5450    5.0280  -25.0860 C.ar  219  TRP219      0.0001
    147  CH2      -17.5870    3.9940  -24.9910 C.ar  219  TRP219      0.0015
    148  N        -12.7900    0.5040  -36.3900 N.3   291  TYR291     -0.1241
    149  CA       -13.2250    1.9080  -36.4010 C.3   291  TYR291      0.1605
    150  C        -12.4110    2.6320  -35.3430 C.2   291  TYR291      0.2264
    151  O        -11.8510    1.9970  -34.4660 O.2   291  TYR291     -0.2867
    152  CB       -14.7120    2.0200  -36.0610 C.3   291  TYR291      0.0534
    153  CG       -15.0380    1.4560  -34.6830 C.ar  291  TYR291     -0.0201
    154  CD1      -15.3450    0.1250  -34.5290 C.ar  291  TYR291     -0.0009
    155  CD2      -14.9640    2.2360  -33.5370 C.ar  291  TYR291     -0.0009
    156  CE1      -15.5880   -0.4290  -33.2780 C.ar  291  TYR291      0.0417
    157  CE2      -15.2320    1.7040  -32.2700 C.ar  291  TYR291      0.0417
    158  CZ       -15.5480    0.3610  -32.1520 C.ar  291  TYR291      0.1957
    159  OH       -15.7660   -0.2350  -30.9130 O.3   291  TYR291     -0.2866
    160  N        -12.4160    5.8500  -32.3940 N.3   293  ARG293     -0.1245
    161  CA       -13.2000    6.7880  -31.5670 C.3   293  ARG293      0.1563
    162  C        -12.5070    8.1420  -31.4700 C.2   293  ARG293      0.2260
    163  O        -11.2990    8.2050  -31.1450 O.2   293  ARG293     -0.2867
    164  CB       -13.3680    6.2110  -30.1610 C.3   293  ARG293      0.0307
    165  CG       -14.4340    5.1240  -30.1160 C.3   293  ARG293      0.0489
    166  CD       -14.8070    4.7800  -28.6850 C.3   293  ARG293      0.2205
    167  NE       -15.9960    3.9420  -28.6340 N.pl3 293  ARG293     -0.0865
    168  CZ       -17.2410    4.4200  -28.7030 C.cat 293  ARG293      0.5346
    169  NH1      -17.4730    5.7170  -28.7740 N.pl3 293  ARG293      0.1354
    170  NH2      -18.2490    3.6000  -28.6320 N.pl3 293  ARG293      0.1354
    171  N        -21.2800   12.7520  -24.7800 N.3   313  GLY313     -0.1210
    172  CA       -21.6490   11.3380  -24.6650 C.3   313  GLY313      0.1956
    173  C        -23.1010   10.9870  -24.9700 C.2   313  GLY313      0.2612
    174  O        -23.4570    9.8310  -25.0560 O.2   313  GLY313     -0.2717
    175  N        -23.9460   11.9680  -25.2220 N.am  314  GLU314     -0.1965
    176  CA       -25.3610   11.6560  -25.4630 C.3   314  GLU314      0.1733
    177  C        -25.5260   10.8650  -26.7760 C.2   314  GLU314      0.2616
    178  O        -24.7150   10.9520  -27.7160 O.2   314  GLU314     -0.2715
    179  CB       -26.2290   12.9560  -25.4310 C.3   314  GLU314      0.0429
    180  CG       -26.0980   13.7860  -24.1190 C.3   314  GLU314      0.1163
    181  CD       -24.8550   14.6960  -24.0240 C.2   314  GLU314      0.3649
    182  OE1      -24.2700   15.0360  -25.0640 O.co2 314  GLU314     -0.2457
    183  OE2      -24.4190   15.0750  -22.9080 O.co2 314  GLU314     -0.2457
    184  N        -26.6050   10.1000  -26.8210 N.am  315  ASP315     -0.1971
    185  CA       -27.0320    9.3320  -27.9940 C.3   315  ASP315      0.1709
    186  C        -28.5070    9.6120  -28.1990 C.2   315  ASP315      0.2293
    187  O        -29.2300    9.6700  -27.2260 O.2   315  ASP315     -0.2864
    188  CB       -26.9030    7.8620  -27.6900 C.3   315  ASP315      0.1436
    189  CG       -26.2860    7.1230  -28.8000 C.2   315  ASP315      0.3671
    190  OD1      -27.0270    6.4130  -29.5060 O.co2 315  ASP315     -0.2456
    191  OD2      -25.0660    7.2940  -28.9910 O.co2 315  ASP315     -0.2456
    192  N        -18.2250   11.0610  -33.6960 N.3   337  ARG337     -0.1245
    193  CA       -17.4490   10.3530  -32.6920 C.3   337  ARG337      0.1563
    194  C        -16.8480    9.0030  -33.0830 C.2   337  ARG337      0.2260
    195  O        -16.0200    8.4570  -32.3510 O.2   337  ARG337     -0.2867
    196  CB       -18.3080   10.1820  -31.4500 C.3   337  ARG337      0.0307
    197  CG       -18.6470   11.5270  -30.8350 C.3   337  ARG337      0.0489
    198  CD       -19.6600   11.3460  -29.7200 C.3   337  ARG337      0.2205
    199  NE       -20.8950   10.8340  -30.2750 N.pl3 337  ARG337     -0.0865
    200  CZ       -21.9990   10.6600  -29.5680 C.cat 337  ARG337      0.5346
    201  NH1      -22.0560   11.0160  -28.2820 N.pl3 337  ARG337      0.1354
    202  NH2      -23.0560   10.1930  -30.1750 N.pl3 337  ARG337      0.1354
    203  N        -15.5660   -5.8490  -35.1750 N.3   402  TRP402     -0.1241
    204  CA       -16.7560   -5.0500  -35.5120 C.3   402  TRP402      0.1605
    205  C        -16.2510   -3.8580  -36.3110 C.2   402  TRP402      0.2264
    206  O        -15.4360   -3.0960  -35.7960 O.2   402  TRP402     -0.2867
    207  CB       -17.4490   -4.5490  -34.2150 C.3   402  TRP402      0.0550
    208  CG       -18.5450   -3.6130  -34.4580 C.ar  402  TRP402      0.0003
    209  CD1      -18.4300   -2.2560  -34.6340 C.ar  402  TRP402      0.0946
    210  CD2      -19.9410   -3.9280  -34.6830 C.ar  402  TRP402      0.0152
    211  NE1      -19.6680   -1.7200  -34.9030 N.ar  402  TRP402     -0.2442
    212  CE2      -20.6050   -2.7050  -34.9650 C.ar  402  TRP402      0.0810
    213  CE3      -20.6830   -5.1040  -34.6700 C.ar  402  TRP402      0.0012
    214  CZ2      -21.9890   -2.6260  -35.2330 C.ar  402  TRP402      0.0191
    215  CZ3      -22.0770   -5.0410  -34.9440 C.ar  402  TRP402      0.0001
    216  CH2      -22.7060   -3.8120  -35.2210 C.ar  402  TRP402      0.0015
@<TRIPOS>BOND
     1     4     3    2
     2     3     2    1
     3     1     2    1
     4     2     5    1
     5     5     6    1
     6    13    14    1
     7   149   148    1
     8   149   152    1
     9   149   150    1
    10   205   206    2
    11   205   204    1
    12   152   153    1
    13    16    15    2
    14   204   203    1
    15   204   207    1
    16     6     8   ar
    17     6     7   ar
    18   150   151    2
    19    15    14    1
    20   214   216   ar
    21   214   212   ar
    22   216   215   ar
    23    14    17    1
    24     8    10   ar
    25   212   211   ar
    26   212   210   ar
    27   215   213   ar
    28   211   209   ar
    29   153   154   ar
    30   153   155   ar
    31   210   213   ar
    32   210   208   ar
    33   209   208   ar
    34     7     9   ar
    35   154   156   ar
    36   208   207    1
    37    17    18    1
    38    20    18   ar
    39    20    22   ar
    40    10    11   ar
    41   192   193    1
    42    18    19   ar
    43   155   157   ar
    44    22    23   ar
    45     9    11   ar
    46   156   158   ar
    47   194   193    1
    48   194   195    2
    49    11    12    1
    50    19    21   ar
    51    23    21   ar
    52   193   196    1
    53   160   161    1
    54   157   158   ar
    55   158   159    1
    56   161   162    1
    57   161   164    1
    58   162   163    2
    59   196   197    1
    60   197   198    1
    61   118   117    1
    62   116   117   ar
    63   116   114   ar
    64   117   115   ar
    65   199   198    1
    66   199   200    2
    67   202   200    1
    68   164   165    1
    69   114   112   ar
    70   165   166    1
    71   115   113   ar
    72    61    59   ar
    73   200   201    1
    74   112   113   ar
    75   112   111    1
    76   190   189   ar
    77   111   108    1
    78   191   189   ar
    79    58    59    1
    80    58    55    1
    81   125   124   ar
    82   189   188    1
    83   169   168    1
    84   168   167    2
    85   168   170    1
    86    59    60   ar
    87   166   167    1
    88    24    25    1
    89   186   185    1
    90   186   187    2
    91   126   124   ar
    92    87    84    1
    93   185   188    1
    94   185   184    1
    95   124   123    1
    96    54    55    1
    97   178   177    2
    98   108   107    1
    99   108   109    1
   100    55    56    1
   101    28    25    1
   102    28    29    1
   103   104   105    1
   104   104   103    1
   105   119   109   am
   106   119   120    1
   107    26    25    1
   108    26    27    2
   109    83    84    1
   110   105   106    1
   111    70    68   ar
   112    84    85    1
   113    57    56    2
   114   109   110    2
   115   184   177   am
   116   100   103    1
   117   100    99    1
   118   100   101    1
   119   177   176    1
   120    30    29   ar
   121    30    32   ar
   122   123   120    1
   123   120   121    1
   124    29    31   ar
   125   101   102    2
   126    68    69   ar
   127    68    67    1
   128   133   132    1
   129   133   127    1
   130   132   131    1
   131    85    86    2
   132    32    33   ar
   133   131   128    1
   134   176   179    1
   135   176   175    1
   136   179   180    1
   137   175   173   am
   138    31    33   ar
   139    31    34   ar
   140   121   122    2
   141   146   147   ar
   142   146   144   ar
   143   182   181   ar
   144   174   173    2
   145    67    66    1
   146   147   145   ar
   147   173   172    1
   148   127   128    1
   149   171   172    1
   150    33    35   ar
   151    45    43   am
   152   128   129    1
   153    34    36   ar
   154   180   181    1
   155   181   183   ar
   156   144   141   ar
   157    66    63    1
   158    38    39    1
   159   145   143   ar
   160    62    63    1
   161    43    42    1
   162    43    44    2
   163    35    37   ar
   164    42    39    1
   165   129   134   am
   166   129   130    2
   167    82    81    1
   168    36    37   ar
   169    63    64    1
   170   141   143   ar
   171   141   139   ar
   172   143   142   ar
   173    39    40    1
   174    49    48    2
   175   134   135    1
   176    81    79   ar
   177    81    80   ar
   178    48    47    1
   179    79    77   ar
   180    65    64    2
   181    41    40    2
   182    64    71   am
   183   139   138    1
   184   139   140   ar
   185   142   140   ar
   186    80    78   ar
   187   135   138    1
   188   135   136    1
   189    77    76   ar
   190    47    50    1
   191    47    46    1
   192    78    76   ar
   193    71    72    1
   194    50    51    1
   195    76    75    1
   196   136   137    2
   197    72    75    1
   198    72    73    1
   199    97    95   ar
   200    97    98   ar
   201    95    93   ar
   202    98    96   ar
   203    73    74    2
   204    51    52    1
   205    51    53    1
   206    93    92    1
   207    93    94   ar
   208    92    89    1
   209    96    94   ar
   210    89    90    1
   211    89    88    1
   212    90    91    2
