@<TRIPOS>MOLECULE
tmp/4z2lA00.pdb
 228 225 0 0 0
SMALL
GASTEIGER

@<TRIPOS>ATOM
      1  N        -18.1940   -9.3090  -37.8120 N.3     9  TYR9       -0.1241
      2  CA       -19.5890   -8.9030  -37.8040 C.3     9  TYR9        0.1605
      3  C        -19.9760   -8.2730  -39.1330 C.2     9  TYR9        0.2264
      4  O        -19.2430   -7.4390  -39.6630 O.2     9  TYR9       -0.2867
      5  CB       -19.8820   -7.9260  -36.6620 C.3     9  TYR9        0.0534
      6  CG       -20.1520   -8.5920  -35.3570 C.ar    9  TYR9       -0.0201
      7  CD1      -19.1120   -8.9230  -34.5030 C.ar    9  TYR9       -0.0009
      8  CD2      -21.4490   -8.9170  -34.9730 C.ar    9  TYR9       -0.0009
      9  CE1      -19.3560   -9.5960  -33.3150 C.ar    9  TYR9        0.0417
     10  CE2      -21.6980   -9.5800  -33.7910 C.ar    9  TYR9        0.0417
     11  CZ       -20.6470   -9.9040  -32.9540 C.ar    9  TYR9        0.1957
     12  OH       -20.8860  -10.5140  -31.7350 O.3     9  TYR9       -0.2866
     13  N        -23.1960   -6.1090  -40.0680 N.3    11  PHE11      -0.1241
     14  CA       -24.3890   -5.3970  -39.6240 C.3    11  PHE11       0.1605
     15  C        -25.1040   -4.7460  -40.8000 C.2    11  PHE11       0.2264
     16  O        -24.4840   -4.0970  -41.6220 O.2    11  PHE11      -0.2867
     17  CB       -24.0250   -4.2940  -38.6440 C.3    11  PHE11       0.0534
     18  CG       -25.2150   -3.5280  -38.1550 C.ar   11  PHE11      -0.0203
     19  CD1      -26.2190   -4.1740  -37.4380 C.ar   11  PHE11      -0.0042
     20  CD2      -25.4580   -2.2520  -38.6170 C.ar   11  PHE11      -0.0042
     21  CE1      -27.3950   -3.5270  -37.1180 C.ar   11  PHE11      -0.0003
     22  CE2      -26.6150   -1.5890  -38.2700 C.ar   11  PHE11      -0.0003
     23  CZ       -27.5630   -2.2070  -37.4760 C.ar   11  PHE11      -0.0000
     24  N        -28.9480   -2.5630  -41.2080 N.3    13  PRO13      -0.2116
     25  CA       -30.1620   -2.1840  -40.4610 C.3    13  PRO13       0.1372
     26  C        -31.4570   -2.4600  -41.2270 C.2    13  PRO13       0.2244
     27  O        -31.4220   -2.7660  -42.4000 O.2    13  PRO13      -0.2868
     28  CB       -29.9860   -0.6740  -40.2480 C.3    13  PRO13       0.0268
     29  CG       -29.1260   -0.2420  -41.3990 C.3    13  PRO13       0.0207
     30  CD       -28.1680   -1.3880  -41.6200 C.3    13  PRO13       0.0892
     31  N        -28.3360   -7.3440  -36.5550 N.3    50  PHE50      -0.1241
     32  CA       -28.6860   -8.0450  -35.3180 C.3    50  PHE50       0.1605
     33  C        -30.1290   -8.5810  -35.4050 C.2    50  PHE50       0.2264
     34  O        -31.0490   -7.8490  -35.7830 O.2    50  PHE50      -0.2867
     35  CB       -28.5980   -7.0790  -34.1270 C.3    50  PHE50       0.0534
     36  CG       -27.1950   -6.8270  -33.6320 C.ar   50  PHE50      -0.0203
     37  CD1      -26.5150   -7.7940  -32.8990 C.ar   50  PHE50      -0.0042
     38  CD2      -26.5680   -5.6160  -33.8830 C.ar   50  PHE50      -0.0042
     39  CE1      -25.1950   -7.5940  -32.5200 C.ar   50  PHE50      -0.0003
     40  CE2      -25.2610   -5.4110  -33.4960 C.ar   50  PHE50      -0.0003
     41  CZ       -24.5850   -6.3890  -32.7830 C.ar   50  PHE50      -0.0000
     42  N        -25.9500   -3.5460  -28.5540 N.3    96  TRP96      -0.1227
     43  CA       -26.1290   -2.4800  -27.5660 C.3    96  TRP96       0.1737
     44  C        -27.5270   -1.8690  -27.6140 C.2    96  TRP96       0.2595
     45  O        -28.1830   -1.7240  -26.5790 O.2    96  TRP96      -0.2718
     46  CB       -25.1120   -1.3710  -27.7750 C.3    96  TRP96       0.0564
     47  CG       -25.1100   -0.3860  -26.6490 C.ar   96  TRP96       0.0003
     48  CD1      -24.5970   -0.5780  -25.3900 C.ar   96  TRP96       0.0946
     49  CD2      -25.7880    0.8670  -26.6210 C.ar   96  TRP96       0.0152
     50  NE1      -24.8270    0.5280  -24.6250 N.ar   96  TRP96      -0.2442
     51  CE2      -25.5770    1.4230  -25.3440 C.ar   96  TRP96       0.0810
     52  CE3      -26.6730    1.5060  -27.4930 C.ar   96  TRP96       0.0012
     53  CZ2      -26.1570    2.6360  -24.9480 C.ar   96  TRP96       0.0191
     54  CZ3      -27.2550    2.7150  -27.1000 C.ar   96  TRP96       0.0001
     55  CH2      -26.9780    3.2740  -25.8440 C.ar   96  TRP96       0.0015
     56  N        -28.0140   -1.5910  -28.8200 N.am   97  TYR97      -0.1962
     57  CA       -29.2790   -0.8850  -28.9830 C.3    97  TYR97       0.1771
     58  C        -30.4480   -1.6850  -28.4170 C.2    97  TYR97       0.2619
     59  O        -31.2260   -1.1620  -27.6270 O.2    97  TYR97      -0.2715
     60  CB       -29.5220   -0.5290  -30.4450 C.3    97  TYR97       0.0574
     61  CG       -30.8220    0.2220  -30.6720 C.ar   97  TYR97      -0.0198
     62  CD1      -31.0370    1.4790  -30.1060 C.ar   97  TYR97      -0.0009
     63  CD2      -31.8650   -0.3660  -31.3740 C.ar   97  TYR97      -0.0009
     64  CE1      -32.2350    2.1490  -30.2960 C.ar   97  TYR97       0.0417
     65  CE2      -33.0660    0.2800  -31.5540 C.ar   97  TYR97       0.0417
     66  CZ       -33.2320    1.5470  -31.0470 C.ar   97  TYR97       0.1957
     67  OH       -34.4470    2.1390  -31.1830 O.3    97  TYR97      -0.2866
     68  N        -30.5010   -2.9780  -28.7290 N.am   98  TYR98      -0.1974
     69  CA       -31.5470   -3.8430  -28.2020 C.3    98  TYR98       0.1639
     70  C        -31.3920   -4.2020  -26.7240 C.2    98  TYR98       0.2290
     71  O        -32.3790   -4.1480  -25.9820 O.2    98  TYR98      -0.2864
     72  CB       -31.6180   -5.1200  -29.0180 C.3    98  TYR98       0.0560
     73  CG       -32.1320   -4.9430  -30.4180 C.ar   98  TYR98      -0.0198
     74  CD1      -33.0900   -3.9930  -30.7240 C.ar   98  TYR98      -0.0009
     75  CD2      -31.7550   -5.8330  -31.4180 C.ar   98  TYR98      -0.0009
     76  CE1      -33.6410   -3.9130  -32.0120 C.ar   98  TYR98       0.0417
     77  CE2      -32.2940   -5.7680  -32.6880 C.ar   98  TYR98       0.0417
     78  CZ       -33.1880   -4.7730  -33.0090 C.ar   98  TYR98       0.1957
     79  OH       -33.7350   -4.7670  -34.2870 O.3    98  TYR98      -0.2866
     80  N        -25.1970  -11.4290  -28.0310 N.3   141  ASP141     -0.1239
     81  CA       -24.5370  -10.1940  -27.6940 C.3   141  ASP141      0.1674
     82  C        -25.4460   -9.3660  -26.7800 C.2   141  ASP141      0.2266
     83  O        -25.9820   -8.3430  -27.1730 O.2   141  ASP141     -0.2867
     84  CB       -24.2070   -9.4240  -28.9690 C.3   141  ASP141      0.1410
     85  CG       -23.4490   -8.1360  -28.6980 C.2   141  ASP141      0.3668
     86  OD1      -22.9650   -7.9340  -27.5530 O.co2 141  ASP141     -0.2456
     87  OD2      -23.3250   -7.3340  -29.6510 O.co2 141  ASP141     -0.2456
     88  N        -25.6020   -7.0560  -23.7470 N.3   143  GLU143     -0.1245
     89  CA       -24.6670   -6.1760  -23.0660 C.3   143  GLU143      0.1567
     90  C        -25.3320   -5.4030  -21.9090 C.2   143  GLU143      0.2260
     91  O        -25.6650   -4.2350  -22.0920 O.2   143  GLU143     -0.2867
     92  CB       -24.0660   -5.1800  -24.0960 C.3   143  GLU143      0.0388
     93  CG       -23.2290   -5.8600  -25.1800 C.3   143  GLU143      0.1160
     94  CD       -22.7600   -4.9410  -26.3000 C.2   143  GLU143      0.3649
     95  OE1      -22.5850   -3.7350  -26.0580 O.co2 143  GLU143     -0.2457
     96  OE2      -22.4550   -5.4580  -27.4040 O.co2 143  GLU143     -0.2457
     97  N        -20.6090  -12.5190  -27.4160 N.3   183  ALA183     -0.1245
     98  CA       -19.7770  -11.3300  -27.3160 C.3   183  ALA183      0.1562
     99  C        -19.6810  -10.9760  -25.8470 C.2   183  ALA183      0.2260
    100  O        -20.6990  -10.7740  -25.2030 O.2   183  ALA183     -0.2867
    101  CB       -20.4000  -10.1920  -28.1030 C.3   183  ALA183      0.0290
    102  N        -14.9510   -8.3080  -26.1700 N.3   211  MET211     -0.1245
    103  CA       -15.0840   -6.9880  -26.7480 C.3   211  MET211      0.1570
    104  C        -14.0350   -6.0730  -26.1890 C.2   211  MET211      0.2261
    105  O        -14.3050   -5.1870  -25.3800 O.2   211  MET211     -0.2867
    106  CB       -16.4830   -6.4460  -26.5350 C.3   211  MET211      0.0387
    107  CG       -17.4960   -7.1580  -27.3900 C.3   211  MET211      0.0595
    108  SD       -19.1470   -6.4560  -27.3520 S.3   211  MET211     -0.1393
    109  CE       -19.6630   -7.0320  -25.7480 C.3   211  MET211      0.0692
    110  N        -12.4200   -3.6130  -26.9490 N.3   213  TYR213     -0.1227
    111  CA       -12.3300   -2.3320  -27.5950 C.3   213  TYR213      0.1736
    112  C        -13.4310   -1.4990  -26.9630 C.2   213  TYR213      0.2595
    113  O        -14.1600   -1.9930  -26.1040 O.2   213  TYR213     -0.2718
    114  CB       -12.5080   -2.4920  -29.1210 C.3   213  TYR213      0.0548
    115  CG       -13.6640   -3.3890  -29.5600 C.ar  213  TYR213     -0.0200
    116  CD1      -14.9700   -2.9230  -29.5720 C.ar  213  TYR213     -0.0009
    117  CD2      -13.4440   -4.6880  -30.0030 C.ar  213  TYR213     -0.0009
    118  CE1      -16.0280   -3.7390  -29.9600 C.ar  213  TYR213      0.0417
    119  CE2      -14.4950   -5.5100  -30.3940 C.ar  213  TYR213      0.0417
    120  CZ       -15.7880   -5.0280  -30.3770 C.ar  213  TYR213      0.1957
    121  OH       -16.8470   -5.8380  -30.7500 O.3   213  TYR213     -0.2866
    122  N        -13.5870   -0.2570  -27.4040 N.am  214  ASP214     -0.1974
    123  CA       -14.4360    0.6840  -26.7080 C.3   214  ASP214      0.1709
    124  C        -14.0800    0.7580  -25.2300 C.2   214  ASP214      0.2293
    125  O        -14.9220    1.1080  -24.3900 O.2   214  ASP214     -0.2864
    126  CB       -15.9090    0.3270  -26.9000 C.3   214  ASP214      0.1436
    127  CG       -16.6030    1.2340  -27.9050 C.2   214  ASP214      0.3671
    128  OD1      -15.9110    1.8200  -28.7540 O.co2 214  ASP214     -0.2456
    129  OD2      -17.8220    1.4590  -27.7760 O.co2 214  ASP214     -0.2456
    130  N        -12.9180    0.5260  -36.2560 N.3   291  TYR291     -0.1241
    131  CA       -13.3080    1.9310  -36.2190 C.3   291  TYR291      0.1605
    132  C        -12.4580    2.6910  -35.2090 C.2   291  TYR291      0.2264
    133  O        -11.8210    2.0950  -34.3360 O.2   291  TYR291     -0.2867
    134  CB       -14.7800    2.0670  -35.8230 C.3   291  TYR291      0.0534
    135  CG       -15.0840    1.5620  -34.4280 C.ar  291  TYR291     -0.0201
    136  CD1      -15.4310    0.2460  -34.2150 C.ar  291  TYR291     -0.0009
    137  CD2      -15.1170    2.4240  -33.3440 C.ar  291  TYR291     -0.0009
    138  CE1      -15.5970   -0.2440  -32.9460 C.ar  291  TYR291      0.0417
    139  CE2      -15.2230    1.9410  -32.0480 C.ar  291  TYR291      0.0417
    140  CZ       -15.4990    0.6150  -31.8600 C.ar  291  TYR291      0.1957
    141  OH       -15.7670    0.1410  -30.6060 O.3   291  TYR291     -0.2866
    142  N        -12.5550    5.9040  -32.2150 N.3   293  ARG293     -0.1245
    143  CA       -13.3010    6.8510  -31.3840 C.3   293  ARG293      0.1563
    144  C        -12.6660    8.2340  -31.3720 C.2   293  ARG293      0.2260
    145  O        -11.4880    8.3830  -31.0300 O.2   293  ARG293     -0.2867
    146  CB       -13.3730    6.3340  -29.9620 C.3   293  ARG293      0.0307
    147  CG       -14.3390    5.1820  -29.8030 C.3   293  ARG293      0.0489
    148  CD       -15.3270    5.5080  -28.7210 C.3   293  ARG293      0.2205
    149  NE       -16.4410    4.5850  -28.7210 N.pl3 293  ARG293     -0.0865
    150  CZ       -17.7130    4.9620  -28.7200 C.cat 293  ARG293      0.5346
    151  NH1      -18.0230    6.2390  -28.8030 N.pl3 293  ARG293      0.1354
    152  NH2      -18.6740    4.0570  -28.5950 N.pl3 293  ARG293      0.1354
    153  N        -26.9510   10.6690  -26.1790 N.3   315  ASP315     -0.1225
    154  CA       -27.5260    9.9640  -27.3090 C.3   315  ASP315      0.1790
    155  C        -28.9740   10.3970  -27.4080 C.2   315  ASP315      0.2440
    156  O        -29.6720   10.3880  -26.4150 O.2   315  ASP315     -0.2733
    157  CB       -27.4190    8.4550  -27.0730 C.3   315  ASP315      0.1423
    158  CG       -28.5210    7.6730  -27.7470 C.2   315  ASP315      0.3668
    159  OD1      -29.1360    8.2100  -28.6890 O.co2 315  ASP315     -0.2456
    160  OD2      -28.6680    6.4670  -27.4250 O.co2 315  ASP315     -0.2456
    161  N        -29.3730   10.9750  -28.5470 N.am  316  PRO316     -0.2718
    162  CA       -28.6170   11.1210  -29.7910 C.3   316  PRO316      0.1535
    163  C        -27.5820   12.2560  -29.7290 C.2   316  PRO316      0.2598
    164  O        -27.5900   13.0530  -28.8000 O.2   316  PRO316     -0.2715
    165  CB       -29.7070   11.4710  -30.8020 C.3   316  PRO316      0.0310
    166  CG       -30.7290   12.2250  -29.9990 C.3   316  PRO316      0.0237
    167  CD       -30.6410   11.7340  -28.5810 C.3   316  PRO316      0.0939
    168  N        -26.6570   12.2880  -30.6820 N.am  317  TYR317     -0.1974
    169  CA       -25.7020   13.3880  -30.7400 C.3   317  TYR317      0.1639
    170  C        -26.4770   14.7080  -30.6980 C.2   317  TYR317      0.2290
    171  O        -27.4470   14.8660  -31.4110 O.2   317  TYR317     -0.2864
    172  CB       -24.8600   13.3030  -32.0180 C.3   317  TYR317      0.0560
    173  CG       -23.7170   14.2870  -32.0280 C.ar  317  TYR317     -0.0198
    174  CD1      -22.6300   14.1350  -31.1670 C.ar  317  TYR317     -0.0009
    175  CD2      -23.8060   15.4470  -32.7680 C.ar  317  TYR317     -0.0009
    176  CE1      -21.6850   15.1400  -31.0310 C.ar  317  TYR317      0.0417
    177  CE2      -22.8660   16.4510  -32.6480 C.ar  317  TYR317      0.0417
    178  CZ       -21.8030   16.2820  -31.8000 C.ar  317  TYR317      0.1957
    179  OH       -20.8890   17.2750  -31.7300 O.3   317  TYR317     -0.2866
    180  N        -23.0760   11.9340  -36.6810 N.3   335  ASP335     -0.1239
    181  CA       -22.3620   11.7050  -35.4410 C.3   335  ASP335      0.1674
    182  C        -20.8900   11.7130  -35.7440 C.2   335  ASP335      0.2266
    183  O        -20.4250   10.9760  -36.5920 O.2   335  ASP335     -0.2867
    184  CB       -22.7770   10.3600  -34.8150 C.3   335  ASP335      0.1410
    185  CG       -22.4570   10.2780  -33.3320 C.2   335  ASP335      0.3668
    186  OD1      -21.4300   10.8350  -32.9070 O.co2 335  ASP335     -0.2456
    187  OD2      -23.2160    9.6350  -32.5850 O.co2 335  ASP335     -0.2456
    188  N        -18.4810   11.0610  -33.5570 N.3   337  ARG337     -0.1231
    189  CA       -17.7360   10.4170  -32.4910 C.3   337  ARG337      0.1694
    190  C        -17.1290    9.0820  -32.8680 C.2   337  ARG337      0.2591
    191  O        -16.3240    8.5460  -32.1190 O.2   337  ARG337     -0.2718
    192  CB       -18.6270   10.2470  -31.2780 C.3   337  ARG337      0.0321
    193  CG       -19.0310   11.5830  -30.6860 C.3   337  ARG337      0.0489
    194  CD       -20.0490   11.3920  -29.5790 C.3   337  ARG337      0.2205
    195  NE       -21.3280   10.9380  -30.1010 N.pl3 337  ARG337     -0.0865
    196  CZ       -22.4400   10.8600  -29.3770 C.cat 337  ARG337      0.5346
    197  NH1      -22.4740   11.3770  -28.1460 N.pl3 337  ARG337      0.1354
    198  NH2      -23.5570   10.4090  -29.9400 N.pl3 337  ARG337      0.1354
    199  N        -17.6120    8.5030  -33.9600 N.am  338  ILE338     -0.1980
    200  CA       -17.1130    7.2390  -34.4680 C.3   338  ILE338      0.1595
    201  C        -16.7440    7.4010  -35.9280 C.2   338  ILE338      0.2287
    202  O        -17.5660    7.8120  -36.7240 O.2   338  ILE338     -0.2864
    203  CB       -18.1760    6.1580  -34.3980 C.3   338  ILE338      0.0276
    204  CG1      -18.6860    5.9970  -32.9690 C.3   338  ILE338      0.0022
    205  CG2      -17.6530    4.8490  -34.9630 C.3   338  ILE338      0.0022
    206  CD1      -18.0790    4.8510  -32.2510 C.3   338  ILE338      0.0001
    207  N        -11.7980  -11.4280  -33.3420 N.3   400  MET400     -0.1245
    208  CA       -13.1300  -11.0110  -33.7520 C.3   400  MET400      0.1570
    209  C        -13.0800   -9.5030  -34.0210 C.2   400  MET400      0.2261
    210  O        -12.2120   -8.8000  -33.5060 O.2   400  MET400     -0.2867
    211  CB       -14.1420  -11.3080  -32.6380 C.3   400  MET400      0.0387
    212  CG       -15.5480  -10.7700  -32.8820 C.3   400  MET400      0.0595
    213  SD       -15.7720   -9.0390  -32.4020 S.3   400  MET400     -0.1393
    214  CE       -16.0940   -9.1960  -30.6420 C.3   400  MET400      0.0692
    215  N        -15.5230   -5.7840  -35.0390 N.3   402  TRP402     -0.1241
    216  CA       -16.6780   -4.9890  -35.4080 C.3   402  TRP402      0.1605
    217  C        -16.1410   -3.7940  -36.1870 C.2   402  TRP402      0.2264
    218  O        -15.4420   -2.9590  -35.6050 O.2   402  TRP402     -0.2867
    219  CB       -17.3810   -4.5040  -34.1160 C.3   402  TRP402      0.0550
    220  CG       -18.4820   -3.5340  -34.3360 C.ar  402  TRP402      0.0003
    221  CD1      -18.3710   -2.1890  -34.4430 C.ar  402  TRP402      0.0946
    222  CD2      -19.8420   -3.8540  -34.6610 C.ar  402  TRP402      0.0152
    223  NE1      -19.6000   -1.6270  -34.7410 N.ar  402  TRP402     -0.2442
    224  CE2      -20.5180   -2.6330  -34.8800 C.ar  402  TRP402      0.0810
    225  CE3      -20.5780   -5.0460  -34.6840 C.ar  402  TRP402      0.0012
    226  CZ2      -21.8920   -2.5710  -35.1230 C.ar  402  TRP402      0.0191
    227  CZ3      -21.9300   -4.9870  -35.0240 C.ar  402  TRP402      0.0001
    228  CH2      -22.5720   -3.7540  -35.2280 C.ar  402  TRP402      0.0015
@<TRIPOS>BOND
     1    27    26    2
     2    16    15    2
     3    30    29    1
     4    30    24    1
     5    29    28    1
     6    26    25    1
     7    24    25    1
     8    15    14    1
     9    25    28    1
    10    13    14    1
    11     4     3    2
    12    14    17    1
    13     3     2    1
    14    17    18    1
    15    20    22   ar
    16    20    18   ar
    17    22    23   ar
    18    18    19   ar
    19     1     2    1
    20     2     5    1
    21    23    21   ar
    22    19    21   ar
    23   202   201    2
    24   180   181    1
    25     5     6    1
    26   183   182    2
    27    31    32    1
    28   130   131    1
    29   131   134    1
    30   131   132    1
    31   217   218    2
    32   217   216    1
    33   201   200    1
    34   134   135    1
    35    34    33    2
    36   182   181    1
    37   181   184    1
    38   216   215    1
    39   216   219    1
    40    33    32    1
    41     6     8   ar
    42     6     7   ar
    43    32    35    1
    44   228   226   ar
    45   228   227   ar
    46   132   133    2
    47   226   224   ar
    48   227   225   ar
    49     8    10   ar
    50   205   203    1
    51   224   223   ar
    52   224   222   ar
    53   184   185    1
    54   223   221   ar
    55   225   222   ar
    56   222   220   ar
    57     7     9   ar
    58   200   203    1
    59   200   199    1
    60   221   220   ar
    61   135   136   ar
    62   135   137   ar
    63   203   204    1
    64   220   219    1
    65    79    78    1
    66   136   138   ar
    67    35    36    1
    68   209   208    1
    69   209   210    2
    70   199   190   am
    71    38    36   ar
    72    38    40   ar
    73    10    11   ar
    74   208   207    1
    75   208   211    1
    76    36    37   ar
    77   188   189    1
    78    40    41   ar
    79   137   139   ar
    80   185   186   ar
    81   185   187   ar
    82     9    11   ar
    83    78    77   ar
    84    78    76   ar
    85   204   206    1
    86    11    12    1
    87   138   140   ar
    88    37    39   ar
    89   212   211    1
    90   212   213    1
    91   190   189    1
    92   190   191    2
    93    41    39   ar
    94   175   177   ar
    95   175   173   ar
    96    77    75   ar
    97   177   178   ar
    98   189   192    1
    99   213   214    1
   100   142   143    1
   101   139   140   ar
   102   173   172    1
   103   173   174   ar
   104   172   169    1
   105    76    74   ar
   106   140   141    1
   107   178   179    1
   108   178   176   ar
   109    65    63   ar
   110    65    66   ar
   111    75    73   ar
   112   171   170    2
   113   143   144    1
   114   143   146    1
   115    63    61   ar
   116   144   145    2
   117   192   193    1
   118    67    66    1
   119   174   176   ar
   120    66    64   ar
   121   165   166    1
   122   165   162    1
   123   121   120    1
   124   169   170    1
   125   169   168    1
   126    74    73   ar
   127   193   194    1
   128   168   163   am
   129    61    60    1
   130    61    62   ar
   131    60    57    1
   132    73    72    1
   133   119   120   ar
   134   119   117   ar
   135   120   118   ar
   136    64    62   ar
   137   195   194    1
   138   195   196    2
   139   117   115   ar
   140   166   167    1
   141   146   147    1
   142   118   116   ar
   143   198   196    1
   144   147   148    1
   145   162   163    1
   146   162   161    1
   147   163   164    2
   148    87    85   ar
   149   116   115   ar
   150   115   114    1
   151   196   197    1
   152   114   111    1
   153    72    69    1
   154    57    56    1
   155    57    58    1
   156    84    85    1
   157    84    81    1
   158    56    44   am
   159   151   150    1
   160   128   127   ar
   161    68    58   am
   162    68    69    1
   163   149   148    1
   164   149   150    2
   165   150   152    1
   166    85    86   ar
   167   159   158   ar
   168   167   161    1
   169    42    43    1
   170   161   155   am
   171    58    59    2
   172    69    70    1
   173   101    98    1
   174    80    81    1
   175   127   129   ar
   176   127   126    1
   177    46    43    1
   178    46    47    1
   179   158   160   ar
   180   158   157    1
   181    81    82    1
   182    44    43    1
   183    44    45    2
   184   111   112    1
   185   111   110    1
   186    52    54   ar
   187    52    49   ar
   188    97    98    1
   189   155   154    1
   190   155   156    2
   191   122   112   am
   192   122   123    1
   193    96    94   ar
   194   107   108    1
   195   107   106    1
   196   108   109    1
   197    98    99    1
   198   154   157    1
   199   154   153    1
   200    83    82    2
   201    54    55   ar
   202   112   113    2
   203   126   123    1
   204   103   106    1
   205   103   104    1
   206   103   102    1
   207    70    71    2
   208   123   124    1
   209    47    49   ar
   210    47    48   ar
   211    49    51   ar
   212    94    95   ar
   213    94    93    1
   214   104   105    2
   215    99   100    2
   216    55    53   ar
   217    48    50   ar
   218    51    53   ar
   219    51    50   ar
   220   124   125    2
   221    93    92    1
   222    92    89    1
   223    88    89    1
   224    89    90    1
   225    91    90    2
