@<TRIPOS>MOLECULE
tmp/4z2pA00.pdb
 184 181 0 0 0
SMALL
GASTEIGER

@<TRIPOS>ATOM
      1  N          9.4500   26.2310   -7.5900 N.3    41  TYR41      -0.1241
      2  CA         8.1780   26.2200   -6.9220 C.3    41  TYR41       0.1605
      3  C          8.1000   25.0460   -5.9580 C.2    41  TYR41       0.2264
      4  O          8.4400   23.9080   -6.3250 O.2    41  TYR41      -0.2867
      5  CB         7.0740   26.1430   -7.9480 C.3    41  TYR41       0.0534
      6  CG         5.6660   26.3300   -7.4190 C.ar   41  TYR41      -0.0201
      7  CD1        4.9850   25.2830   -6.8290 C.ar   41  TYR41      -0.0009
      8  CD2        5.0200   27.5610   -7.4920 C.ar   41  TYR41      -0.0009
      9  CE1        3.6920   25.4260   -6.3750 C.ar   41  TYR41       0.0417
     10  CE2        3.7090   27.7110   -7.0370 C.ar   41  TYR41       0.0417
     11  CZ         3.0480   26.6330   -6.4820 C.ar   41  TYR41       0.1957
     12  OH         1.7520   26.8030   -6.0160 O.3    41  TYR41      -0.2866
     13  N          5.3680   23.1230   -3.6580 N.3    43  ASN43      -0.1240
     14  CA         3.9620   22.8770   -3.4320 C.3    43  ASN43       0.1653
     15  C          3.6940   22.4000   -2.0080 C.2    43  ASN43       0.2266
     16  O          4.2000   21.3530   -1.6110 O.2    43  ASN43      -0.2867
     17  CB         3.4810   21.8200   -4.4160 C.3    43  ASN43       0.1155
     18  CG         2.0620   21.4000   -4.1610 C.2    43  ASN43       0.2627
     19  OD1        1.1690   22.2280   -3.8010 O.2    43  ASN43      -0.2716
     20  ND2        1.8170   20.0990   -4.3480 N.am   43  ASN43      -0.0877
     21  N          0.2480   22.5280   -0.9270 N.3    45  ALA45      -0.1245
     22  CA        -1.2100   22.4630   -0.9480 C.3    45  ALA45       0.1562
     23  C         -1.7510   21.1420   -0.4060 C.2    45  ALA45       0.2260
     24  O         -1.3220   20.0610   -0.7990 O.2    45  ALA45      -0.2867
     25  CB        -1.7230   22.6770   -2.3660 C.3    45  ALA45       0.0290
     26  N         -3.9650   17.8870    0.1100 N.3    47  GLY47      -0.1210
     27  CA        -4.6800   16.9240   -0.7450 C.3    47  GLY47       0.1956
     28  C         -4.0250   16.6550   -2.0900 C.2    47  GLY47       0.2613
     29  O         -4.5730   15.9610   -2.9270 O.2    47  GLY47      -0.2717
     30  N         -2.8450   17.2130   -2.2960 N.am   48  THR48      -0.1938
     31  CA        -2.1740   17.1470   -3.5940 C.3    48  THR48       0.2028
     32  C         -0.9280   16.2840   -3.5300 C.2    48  THR48       0.2643
     33  O         -0.4110   16.0110   -2.4460 O.2    48  THR48      -0.2714
     34  CB        -1.7740   18.5500   -4.1070 C.3    48  THR48       0.1808
     35  OG1       -0.7400   19.1050   -3.2880 O.3    48  THR48      -0.2208
     36  CG2       -2.9840   19.4670   -4.1270 C.3    48  THR48       0.0379
     37  N         -0.4690   15.8630   -4.7110 N.am   49  GLY49      -0.1939
     38  CA         0.7830   15.1400   -4.8650 C.3    49  GLY49       0.2014
     39  C          1.9340   16.1120   -5.0370 C.2    49  GLY49       0.2639
     40  O          1.7040   17.3160   -5.1460 O.2    49  GLY49      -0.2714
     41  N          3.1660   15.5850   -5.0660 N.am   50  CYS50      -0.1967
     42  CA         4.3630   16.3540   -5.4010 C.3    50  CYS50       0.1712
     43  C          4.5520   17.5270   -4.4500 C.2    50  CYS50       0.2296
     44  O          4.7690   18.6430   -4.8830 O.2    50  CYS50      -0.2864
     45  CB         4.3010   16.8360   -6.8800 C.3    50  CYS50       0.0983
     46  SG         4.5270   15.4700   -8.0380 S.3    50  CYS50      -0.0798
     47  N          5.4650   18.8200  -13.3340 N.3    74  TRP74      -0.1241
     48  CA         5.5850   18.1970  -12.0100 C.3    74  TRP74       0.1605
     49  C          6.4210   16.9030  -12.0560 C.2    74  TRP74       0.2264
     50  O          5.9300   15.8290  -11.6860 O.2    74  TRP74      -0.2867
     51  CB         4.1990   17.9550  -11.4190 C.3    74  TRP74       0.0550
     52  CG         3.4600   19.2260  -11.1860 C.ar   74  TRP74       0.0003
     53  CD1        2.4850   19.7510  -11.9720 C.ar   74  TRP74       0.0946
     54  CD2        3.7080   20.2060  -10.1640 C.ar   74  TRP74       0.0152
     55  NE1        2.0670   20.9650  -11.4880 N.ar   74  TRP74      -0.2442
     56  CE2        2.8000   21.2740  -10.3770 C.ar   74  TRP74       0.0810
     57  CE3        4.5740   20.2740   -9.0830 C.ar   74  TRP74       0.0012
     58  CZ2        2.7780   22.4060   -9.5810 C.ar   74  TRP74       0.0191
     59  CZ3        4.5300   21.3900   -8.2700 C.ar   74  TRP74       0.0001
     60  CH2        3.6440   22.4320   -8.5120 C.ar   74  TRP74       0.0015
     61  N         10.3470   15.7310  -10.8490 N.3    76  ASN76      -0.1225
     62  CA        11.7020   15.9380  -10.3570 C.3    76  ASN76       0.1785
     63  C         12.2390   14.6540   -9.7730 C.2    76  ASN76       0.2597
     64  O         11.6300   13.5740   -9.9220 O.2    76  ASN76      -0.2718
     65  CB        11.7830   17.1690   -9.3950 C.3    76  ASN76       0.1169
     66  CG        11.1050   16.9200   -8.0410 C.2    76  ASN76       0.2627
     67  OD1       10.7100   15.8000   -7.7420 O.2    76  ASN76      -0.2716
     68  ND2       10.9810   17.9660   -7.2280 N.am   76  ASN76      -0.0877
     69  N         13.3790   14.7490   -9.1060 N.am   77  ALA77      -0.1966
     70  CA        14.0190   13.5520   -8.5160 C.3    77  ALA77       0.1728
     71  C         13.1740   12.8750   -7.4300 C.2    77  ALA77       0.2617
     72  O         13.2920   11.6680   -7.1920 O.2    77  ALA77      -0.2715
     73  CB        15.3850   13.9320   -7.9650 C.3    77  ALA77       0.0334
     74  N         12.2920   13.6490   -6.8040 N.am   78  SER78      -0.1936
     75  CA        11.5310   13.1870   -5.6370 C.3    78  SER78       0.2055
     76  C         10.1950   12.5650   -6.0060 C.2    78  SER78       0.2643
     77  O          9.7640   11.5970   -5.3910 O.2    78  SER78      -0.2714
     78  CB        11.3000   14.3680   -4.6890 C.3    78  SER78       0.2130
     79  OG        12.5320   14.7590   -4.1400 O.3    78  SER78      -0.2179
     80  N          9.5130   13.1440   -6.9840 N.am   79  ALA79      -0.1963
     81  CA         8.1380   12.7350   -7.2900 C.3    79  ALA79       0.1728
     82  C          7.7660   13.2250   -8.6680 C.2    79  ALA79       0.2616
     83  O          8.1800   14.3190   -9.0930 O.2    79  ALA79      -0.2715
     84  CB         7.1320   13.2950   -6.2690 C.3    79  ALA79       0.0334
     85  N          6.9290   12.4450   -9.3170 N.am   80  ASN80      -0.1958
     86  CA         6.4120   12.7600  -10.6480 C.3    80  ASN80       0.1819
     87  C          4.8820   12.6350  -10.6050 C.2    80  ASN80       0.2621
     88  O          4.3430   11.5250  -10.3960 O.2    80  ASN80      -0.2715
     89  CB         6.9720   11.7440  -11.6290 C.3    80  ASN80       0.1195
     90  CG         6.5160   11.9700  -13.0530 C.2    80  ASN80       0.2630
     91  OD1        5.8380   12.9210  -13.3610 O.2    80  ASN80      -0.2716
     92  ND2        6.9450   11.0870  -13.9440 N.am   80  ASN80      -0.0877
     93  N          4.1850   13.7570  -10.7940 N.am   81  CYS81      -0.1954
     94  CA         2.7220   13.7640  -10.8220 C.3    81  CYS81       0.1843
     95  C          2.1830   13.8540  -12.2500 C.2    81  CYS81       0.2625
     96  O          0.9920   14.0650  -12.4440 O.2    81  CYS81      -0.2714
     97  CB         2.1600   14.8750   -9.9390 C.3    81  CYS81       0.0997
     98  SG         2.5480   14.6780   -8.1820 S.3    81  CYS81      -0.0797
     99  N          3.0520   13.6600  -13.2430 N.am   82  GLN82      -0.1963
    100  CA         2.5970   13.4510  -14.6280 C.3    82  GLN82       0.1733
    101  C          1.6230   14.5230  -15.0930 C.2    82  GLN82       0.2617
    102  O          0.5560   14.2420  -15.6570 O.2    82  GLN82      -0.2715
    103  CB         1.9710   12.0460  -14.7870 C.3    82  GLN82       0.0408
    104  CG         2.7730   10.9090  -14.1950 C.3    82  GLN82       0.0908
    105  CD         2.1640    9.5510  -14.5020 C.2    82  GLN82       0.2608
    106  OE1        1.3980    8.9870  -13.7150 O.2    82  GLN82      -0.2717
    107  NE2        2.4950    9.0240  -15.6450 N.am   82  GLN82      -0.0878
    108  N          2.0230   15.7740  -14.9080 N.am   83  SER83      -0.1950
    109  CA         1.1030   16.8890  -15.0710 C.3    83  SER83       0.1924
    110  C          1.9060   18.1760  -15.1940 C.2    83  SER83       0.2314
    111  O          3.1380   18.1740  -15.0150 O.2    83  SER83      -0.2863
    112  CB         0.1210   16.9480  -13.8920 C.3    83  SER83       0.2116
    113  OG         0.8480   16.9940  -12.7000 O.3    83  SER83      -0.2180
    114  N          1.3430   22.7450  -14.6540 N.3    85  THR85      -0.1218
    115  CA         0.5800   23.8770  -14.2960 C.3    85  THR85       0.1862
    116  C          1.1530   25.1350  -14.9230 C.2    85  THR85       0.2287
    117  O          2.3560   25.3430  -14.9260 O.2    85  THR85      -0.2866
    118  CB         0.5520   24.0410  -12.7660 C.3    85  THR85       0.1770
    119  OG1        0.0220   22.8530  -12.1890 O.3    85  THR85      -0.2211
    120  CG2       -0.2540   25.2660  -12.3260 C.3    85  THR85       0.0375
    121  N         -4.5550   30.0530  -12.8490 N.3   104  TRP104     -0.1241
    122  CA        -3.7720   28.8970  -13.2470 C.3   104  TRP104      0.1605
    123  C         -4.6220   27.8260  -13.9140 C.2   104  TRP104      0.2264
    124  O         -5.8440   27.7270  -13.6800 O.2   104  TRP104     -0.2867
    125  CB        -2.9250   28.2900  -12.0990 C.3   104  TRP104      0.0550
    126  CG        -3.6510   27.9210  -10.8590 C.ar  104  TRP104      0.0003
    127  CD1       -3.6620   28.6370   -9.6830 C.ar  104  TRP104      0.0946
    128  CD2       -4.4180   26.7180  -10.6060 C.ar  104  TRP104      0.0152
    129  NE1       -4.4030   27.9510   -8.7210 N.ar  104  TRP104     -0.2442
    130  CE2       -4.8780   26.7830   -9.2690 C.ar  104  TRP104      0.0810
    131  CE3       -4.7440   25.5900  -11.3780 C.ar  104  TRP104      0.0012
    132  CZ2       -5.6610   25.7570   -8.6920 C.ar  104  TRP104      0.0191
    133  CZ3       -5.5500   24.6070  -10.8240 C.ar  104  TRP104      0.0001
    134  CH2       -5.9820   24.6830   -9.4750 C.ar  104  TRP104      0.0015
    135  N         -4.2000   23.5370  -14.6250 N.3   106  LEU106     -0.1245
    136  CA        -3.4920   22.3030  -14.3440 C.3   106  LEU106      0.1561
    137  C         -3.9800   21.2460  -15.3110 C.2   106  LEU106      0.2260
    138  O         -5.1570   20.9370  -15.3230 O.2   106  LEU106     -0.2867
    139  CB        -3.7210   21.8540  -12.8820 C.3   106  LEU106      0.0270
    140  CG        -3.3970   20.3950  -12.5420 C.3   106  LEU106      0.0019
    141  CD1       -1.8860   20.2090  -12.5320 C.3   106  LEU106      0.0001
    142  CD2       -3.9940   20.0460  -11.1890 C.3   106  LEU106      0.0001
    143  N         -3.6850   17.3520  -16.6260 N.3   108  PHE108     -0.1227
    144  CA        -3.3940   16.0630  -16.0090 C.3   108  PHE108      0.1736
    145  C         -4.3120   14.9860  -16.5660 C.2   108  PHE108      0.2595
    146  O         -5.2390   15.3010  -17.2940 O.2   108  PHE108     -0.2718
    147  CB        -3.6020   16.1890  -14.4810 C.3   108  PHE108      0.0547
    148  CG        -5.0530   16.3070  -14.0560 C.ar  108  PHE108     -0.0202
    149  CD1       -5.7180   17.5110  -14.1380 C.ar  108  PHE108     -0.0042
    150  CD2       -5.7310   15.1950  -13.5070 C.ar  108  PHE108     -0.0042
    151  CE1       -7.0430   17.6050  -13.7600 C.ar  108  PHE108     -0.0003
    152  CE2       -7.0480   15.2920  -13.0940 C.ar  108  PHE108     -0.0003
    153  CZ        -7.7040   16.5020  -13.2190 C.ar  108  PHE108     -0.0000
    154  N         -4.0310   13.7250  -16.2260 N.am  109  TYR109     -0.1962
    155  CA        -4.8630   12.5820  -16.6080 C.3   109  TYR109      0.1771
    156  C         -5.4910   11.9060  -15.3890 C.2   109  TYR109      0.2620
    157  O         -4.8840   11.8260  -14.3040 O.2   109  TYR109     -0.2715
    158  CB        -4.0270   11.5540  -17.3760 C.3   109  TYR109      0.0574
    159  CG        -3.9500   11.8240  -18.8570 C.ar  109  TYR109     -0.0198
    160  CD1       -3.0280   12.6960  -19.3720 C.ar  109  TYR109     -0.0009
    161  CD2       -4.7980   11.1680  -19.7270 C.ar  109  TYR109     -0.0009
    162  CE1       -2.9670   12.9290  -20.7270 C.ar  109  TYR109      0.0417
    163  CE2       -4.7550   11.3960  -21.0760 C.ar  109  TYR109      0.0417
    164  CZ        -3.8490   12.2760  -21.5710 C.ar  109  TYR109      0.1957
    165  OH        -3.8400   12.4730  -22.9240 O.3   109  TYR109     -0.2866
    166  N         -6.7350   11.4940  -15.5490 N.am  110  SER110     -0.1936
    167  CA        -7.3890   10.6590  -14.5990 C.3   110  SER110      0.2055
    168  C         -7.7090    9.3850  -15.3690 C.2   110  SER110      0.2643
    169  O         -8.6270    9.3530  -16.1900 O.2   110  SER110     -0.2714
    170  CB        -8.6350   11.3500  -14.0730 C.3   110  SER110      0.2130
    171  OG        -9.4180   10.4420  -13.3300 O.3   110  SER110     -0.2179
    172  N         -6.9200    8.3460  -15.1130 N.am  111  GLY111     -0.1954
    173  CA        -6.9700    7.1280  -15.9100 C.3   111  GLY111      0.1869
    174  C         -6.5220    7.5070  -17.3010 C.2   111  GLY111      0.2309
    175  O         -5.4930    8.1600  -17.4720 O.2   111  GLY111     -0.2863
    176  N         -7.8800   21.6390  -15.2130 N.3   117  GLN117     -0.1245
    177  CA        -8.5730   22.2380  -14.0720 C.3   117  GLN117      0.1566
    178  C         -8.0720   23.6700  -13.8760 C.2   117  GLN117      0.2260
    179  O         -6.8800   23.9550  -14.0990 O.2   117  GLN117     -0.2867
    180  CB        -8.2760   21.4130  -12.8300 C.3   117  GLN117      0.0367
    181  CG        -8.9560   21.9020  -11.5670 C.3   117  GLN117      0.0905
    182  CD        -8.5590   21.0610  -10.3820 C.2   117  GLN117      0.2608
    183  OE1       -9.2510   20.1140  -10.0330 O.2   117  GLN117     -0.2717
    184  NE2       -7.4110   21.3730   -9.7900 N.am  117  GLN117     -0.0878
@<TRIPOS>BOND
     1   165   164    1
     2   164   163   ar
     3   164   162   ar
     4   163   161   ar
     5   162   160   ar
     6   161   159   ar
     7   160   159   ar
     8   159   158    1
     9   175   174    2
    10   158   155    1
    11   174   173    1
    12   146   145    2
    13   143   144    1
    14   155   154    1
    15   155   156    1
    16   145   154   am
    17   145   144    1
    18   169   168    2
    19   144   147    1
    20   173   172    1
    21   102   101    2
    22   107   105   am
    23   166   156   am
    24   166   167    1
    25   156   157    2
    26   168   172   am
    27   168   167    1
    28   138   137    2
    29   137   136    1
    30   176   177    1
    31   110   109    1
    32   110   111    2
    33   101   108   am
    34   101   100    1
    35   109   108    1
    36   109   112    1
    37   117   116    2
    38   116   115    1
    39   103   100    1
    40   103   104    1
    41   114   115    1
    42   100    99    1
    43   135   136    1
    44   167   170    1
    45   105   104    1
    46   105   106    2
    47   147   148    1
    48   136   139    1
    49   115   118    1
    50   149   148   ar
    51   149   151   ar
    52   179   178    2
    53   170   171    1
    54   177   178    1
    55   177   180    1
    56   148   150   ar
    57    92    90   am
    58   123   124    2
    59   123   122    1
    60   112   113    1
    61   151   153   ar
    62   150   152   ar
    63    91    90    2
    64    47    48    1
    65   122   121    1
    66   122   125    1
    67    99    95   am
    68   153   152   ar
    69    90    89    1
    70   139   140    1
    71   180   181    1
    72   118   120    1
    73   118   119    1
    74   140   141    1
    75   140   142    1
    76    96    95    2
    77    95    94    1
    78   125   126    1
    79    49    48    1
    80    49    50    2
    81    48    51    1
    82    53    55   ar
    83    53    52   ar
    84    89    86    1
    85   181   182    1
    86    55    56   ar
    87    51    52    1
    88   131   133   ar
    89   131   128   ar
    90    52    54   ar
    91   126   128   ar
    92   126   127   ar
    93    61    62    1
    94   133   134   ar
    95    94    93    1
    96    94    97    1
    97    93    87   am
    98    86    87    1
    99    86    85    1
   100   128   130   ar
   101    87    88    2
   102   182   183    2
   103   182   184   am
   104    56    54   ar
   105    56    58   ar
   106    62    63    1
   107    62    65    1
   108    54    57   ar
   109    97    98    1
   110    64    63    2
   111    63    69   am
   112   127   129   ar
   113    58    60   ar
   114   134   132   ar
   115    65    66    1
   116    85    82   am
   117   130   129   ar
   118   130   132   ar
   119    69    70    1
   120    83    82    2
   121    57    59   ar
   122    82    81    1
   123    70    73    1
   124    70    71    1
   125    60    59   ar
   126    98    46    1
   127    66    67    2
   128    66    68   am
   129    46    45    1
   130     5     6    1
   131     5     2    1
   132     1     2    1
   133     8     6   ar
   134     8    10   ar
   135    71    72    2
   136    71    74   am
   137     6     7   ar
   138    81    80    1
   139    81    84    1
   140    10    11   ar
   141    80    76   am
   142     2     3    1
   143    45    42    1
   144     7     9   ar
   145    74    75    1
   146    11     9   ar
   147    11    12    1
   148     4     3    2
   149    76    75    1
   150    76    77    2
   151    75    78    1
   152    42    41    1
   153    42    43    1
   154    40    39    2
   155    41    39   am
   156    39    38    1
   157    44    43    2
   158    38    37    1
   159    37    32   am
   160    78    79    1
   161    17    18    1
   162    17    14    1
   163    20    18   am
   164    18    19    2
   165    36    34    1
   166    34    31    1
   167    34    35    1
   168    13    14    1
   169    31    32    1
   170    31    30    1
   171    32    33    2
   172    14    15    1
   173    29    28    2
   174    25    22    1
   175    30    28   am
   176    28    27    1
   177    15    16    2
   178    22    21    1
   179    22    23    1
   180    24    23    2
   181    27    26    1
