@<TRIPOS>MOLECULE
tmp/4z2pC00.pdb
 172 169 0 0 0
SMALL
GASTEIGER

@<TRIPOS>ATOM
      1  N          0.3150   35.2330  -33.9890 N.3    43  ASN43      -0.1240
      2  CA        -1.0960   35.4750  -33.6390 C.3    43  ASN43       0.1653
      3  C         -1.9490   35.9410  -34.8240 C.2    43  ASN43       0.2266
      4  O         -1.5580   36.8210  -35.5840 O.2    43  ASN43      -0.2867
      5  CB        -1.1310   36.5020  -32.5150 C.3    43  ASN43       0.1155
      6  CG        -2.5240   36.9250  -32.0990 C.2    43  ASN43       0.2627
      7  OD1       -3.3840   36.1120  -31.8380 O.2    43  ASN43      -0.2716
      8  ND2       -2.7350   38.2410  -31.9980 N.am   43  ASN43      -0.0877
      9  N         -5.6820   35.9790  -33.8160 N.3    45  ALA45      -0.1245
     10  CA        -6.9530   35.9940  -33.1560 C.3    45  ALA45       0.1562
     11  C         -7.7670   37.2400  -33.5030 C.2    45  ALA45       0.2260
     12  O         -7.2760   38.3800  -33.4760 O.2    45  ALA45      -0.2867
     13  CB        -6.7720   35.8040  -31.6450 C.3    45  ALA45       0.0290
     14  N         -9.7720   40.4380  -33.7680 N.3    47  GLY47      -0.1210
     15  CA        -9.9110   41.6230  -32.9480 C.3    47  GLY47       0.1956
     16  C         -8.7660   41.9660  -32.0240 C.2    47  GLY47       0.2613
     17  O         -8.8430   42.9460  -31.2640 O.2    47  GLY47      -0.2717
     18  N         -7.7020   41.1750  -32.0830 N.am   48  THR48      -0.1938
     19  CA        -6.5570   41.3720  -31.2020 C.3    48  THR48       0.2028
     20  C         -5.4220   42.1470  -31.8730 C.2    48  THR48       0.2643
     21  O         -5.3230   42.2140  -33.0870 O.2    48  THR48      -0.2714
     22  CB        -6.0380   40.0450  -30.6160 C.3    48  THR48       0.1808
     23  OG1       -5.4410   39.2300  -31.6290 O.3    48  THR48      -0.2208
     24  CG2       -7.1670   39.2750  -29.9590 C.3    48  THR48       0.0379
     25  N         -4.5490   42.6930  -31.0370 N.am   49  GLY49      -0.1939
     26  CA        -3.3450   43.3330  -31.4880 C.3    49  GLY49       0.2014
     27  C         -2.2540   42.3000  -31.6850 C.2    49  GLY49       0.2639
     28  O         -2.4740   41.0860  -31.5160 O.2    49  GLY49      -0.2714
     29  N         -1.0880   42.7750  -32.1080 N.am   50  CYS50      -0.1967
     30  CA         0.0910   41.9290  -32.2370 C.3    50  CYS50       0.1712
     31  C         -0.1430   40.7120  -33.1370 C.2    50  CYS50       0.2296
     32  O          0.2870   39.5880  -32.8520 O.2    50  CYS50      -0.2864
     33  CB         0.5770   41.5190  -30.8370 C.3    50  CYS50       0.0983
     34  SG         1.2250   42.9370  -29.8980 S.3    50  CYS50      -0.0798
     35  N          3.8250   39.6290  -25.2490 N.3    74  TRP74      -0.1241
     36  CA         3.4960   40.3050  -26.5310 C.3    74  TRP74       0.1605
     37  C          4.3410   41.5570  -26.7940 C.2    74  TRP74       0.2264
     38  O          3.8020   42.6460  -26.9750 O.2    74  TRP74      -0.2867
     39  CB         1.9850   40.5990  -26.5740 C.3    74  TRP74       0.0550
     40  CG         1.1510   39.3380  -26.4790 C.ar   74  TRP74       0.0003
     41  CD1        0.4430   38.9010  -25.3900 C.ar   74  TRP74       0.0946
     42  CD2        1.0100   38.3140  -27.4910 C.ar   74  TRP74       0.0152
     43  NE1       -0.1460   37.6850  -25.6700 N.ar   74  TRP74      -0.2442
     44  CE2        0.2160   37.2900  -26.9390 C.ar   74  TRP74       0.0810
     45  CE3        1.5090   38.1570  -28.7880 C.ar   74  TRP74       0.0012
     46  CZ2       -0.1340   36.1390  -27.6480 C.ar   74  TRP74       0.0191
     47  CZ3        1.1740   37.0000  -29.4950 C.ar   74  TRP74       0.0001
     48  CH2        0.3470   36.0200  -28.9390 C.ar   74  TRP74       0.0015
     49  N          7.6800   42.5600  -29.2680 N.3    76  ASN76      -0.1225
     50  CA         8.7490   42.2840  -30.2050 C.3    76  ASN76       0.1785
     51  C          9.0960   43.5630  -30.9650 C.2    76  ASN76       0.2597
     52  O          8.6990   44.6520  -30.5800 O.2    76  ASN76      -0.2718
     53  CB         8.4210   41.0720  -31.0990 C.3    76  ASN76       0.1169
     54  CG         7.3470   41.3550  -32.1450 C.2    76  ASN76       0.2627
     55  OD1        6.8780   42.4950  -32.2990 O.2    76  ASN76      -0.2716
     56  ND2        6.9480   40.3080  -32.8770 N.am   76  ASN76      -0.0877
     57  N          9.8610   43.4260  -32.0360 N.am   77  ALA77      -0.1966
     58  CA        10.3550   44.5740  -32.7790 C.3    77  ALA77       0.1728
     59  C          9.2490   45.2750  -33.5670 C.2    77  ALA77       0.2617
     60  O          9.4050   46.4080  -33.9780 O.2    77  ALA77      -0.2715
     61  CB        11.4630   44.1060  -33.7040 C.3    77  ALA77       0.0334
     62  N          8.1550   44.5560  -33.8000 N.am   78  SER78      -0.1936
     63  CA         7.0480   45.0240  -34.6050 C.3    78  SER78       0.2055
     64  C          5.9530   45.6860  -33.8020 C.2    78  SER78       0.2643
     65  O          5.4460   46.7580  -34.2020 O.2    78  SER78      -0.2714
     66  CB         6.4490   43.8510  -35.4060 C.3    78  SER78       0.2130
     67  OG         7.3350   43.4760  -36.4030 O.3    78  SER78      -0.2179
     68  N          5.5880   45.0820  -32.6780 N.am   79  ALA79      -0.1963
     69  CA         4.4420   45.5650  -31.8940 C.3    79  ALA79       0.1728
     70  C          4.5550   45.1090  -30.4580 C.2    79  ALA79       0.2616
     71  O          5.0220   44.0060  -30.1890 O.2    79  ALA79      -0.2715
     72  CB         3.1100   45.1200  -32.4760 C.3    79  ALA79       0.0334
     73  N          4.1450   46.0030  -29.5620 N.am   80  ASN80      -0.1958
     74  CA         4.0800   45.7200  -28.1440 C.3    80  ASN80       0.1819
     75  C          2.6400   45.9450  -27.6420 C.2    80  ASN80       0.2621
     76  O          2.1380   47.0950  -27.6260 O.2    80  ASN80      -0.2715
     77  CB         5.0710   46.6280  -27.3990 C.3    80  ASN80       0.1195
     78  CG         5.1360   46.3460  -25.9120 C.2    80  ASN80       0.2630
     79  OD1        4.4530   45.4420  -25.4010 O.2    80  ASN80      -0.2716
     80  ND2        5.9260   47.1530  -25.2090 N.am   80  ASN80      -0.0877
     81  N          2.0140   44.8530  -27.2170 N.am   81  CYS81      -0.1954
     82  CA         0.6630   44.8660  -26.7050 C.3    81  CYS81       0.1843
     83  C          0.6500   44.8230  -25.1600 C.2    81  CYS81       0.2625
     84  O         -0.4250   44.7030  -24.5750 O.2    81  CYS81      -0.2714
     85  CB        -0.1580   43.7210  -27.2870 C.3    81  CYS81       0.0997
     86  SG        -0.4650   43.9360  -29.0380 S.3    81  CYS81      -0.0797
     87  N          1.8280   44.9460  -24.5320 N.am   82  GLN82      -0.1963
     88  CA         1.9210   45.1470  -23.0510 C.3    82  GLN82       0.1733
     89  C          1.0830   44.0930  -22.2720 C.2    82  GLN82       0.2617
     90  O          0.2610   44.4190  -21.3890 O.2    82  GLN82      -0.2715
     91  CB         1.5010   46.5790  -22.6870 C.3    82  GLN82       0.0408
     92  CG         2.2500   47.6470  -23.4520 C.3    82  GLN82       0.0908
     93  CD         1.8640   49.0350  -22.9540 C.2    82  GLN82       0.2608
     94  OE1        1.0040   49.7230  -23.5220 O.2    82  GLN82      -0.2717
     95  NE2        2.4460   49.4170  -21.8550 N.am   82  GLN82      -0.0878
     96  N          1.2550   42.8270  -22.6440 N.am   83  SER83      -0.1950
     97  CA         0.3370   41.7680  -22.2250 C.3    83  SER83       0.1924
     98  C          1.1180   40.4460  -22.2610 C.2    83  SER83       0.2314
     99  O          2.2350   40.3980  -22.8250 O.2    83  SER83      -0.2863
    100  CB        -0.8300   41.6850  -23.2250 C.3    83  SER83       0.2116
    101  OG        -1.6490   42.8320  -23.0980 O.3    83  SER83      -0.2180
    102  N          0.2470   35.9230  -22.4460 N.3    85  THR85      -0.1218
    103  CA        -0.6760   34.7960  -22.4830 C.3    85  THR85       0.1862
    104  C          0.0350   33.5170  -22.1020 C.2    85  THR85       0.2287
    105  O          1.2000   33.2790  -22.4760 O.2    85  THR85      -0.2866
    106  CB        -1.2310   34.6410  -23.9090 C.3    85  THR85       0.1770
    107  OG1       -1.8220   35.9000  -24.2600 O.3    85  THR85      -0.2211
    108  CG2       -2.2440   33.5230  -24.0120 C.3    85  THR85       0.0375
    109  N         -6.2280   28.8620  -21.9760 N.3   104  TRP104     -0.1241
    110  CA        -5.3150   29.9690  -21.8220 C.3   104  TRP104      0.1605
    111  C         -5.8390   31.0810  -20.9430 C.2   104  TRP104      0.2264
    112  O         -7.0580   31.2380  -20.7440 O.2   104  TRP104     -0.2867
    113  CB        -4.9200   30.5550  -23.1990 C.3   104  TRP104      0.0550
    114  CG        -6.0640   30.9930  -24.1190 C.ar  104  TRP104      0.0003
    115  CD1       -6.5240   30.3240  -25.2250 C.ar  104  TRP104      0.0946
    116  CD2       -6.7830   32.2320  -24.0830 C.ar  104  TRP104      0.0152
    117  NE1       -7.5140   31.0460  -25.8580 N.ar  104  TRP104     -0.2442
    118  CE2       -7.6760   32.2360  -25.1880 C.ar  104  TRP104      0.0810
    119  CE3       -6.7480   33.3610  -23.2450 C.ar  104  TRP104      0.0012
    120  CZ2       -8.5430   33.3020  -25.4370 C.ar  104  TRP104      0.0191
    121  CZ3       -7.6220   34.4310  -23.5090 C.ar  104  TRP104      0.0001
    122  CH2       -8.5090   34.3820  -24.5840 C.ar  104  TRP104      0.0015
    123  N         -4.9510   35.3520  -20.4910 N.3   106  LEU106     -0.1245
    124  CA        -4.3510   36.5740  -20.9850 C.3   106  LEU106      0.1561
    125  C         -4.4240   37.6430  -19.9040 C.2   106  LEU106      0.2260
    126  O         -5.5110   38.0320  -19.5030 O.2   106  LEU106     -0.2867
    127  CB        -5.1170   37.0790  -22.2260 C.3   106  LEU106      0.0270
    128  CG        -4.8250   38.5120  -22.6930 C.3   106  LEU106      0.0019
    129  CD1       -3.4690   38.5840  -23.3510 C.3   106  LEU106      0.0001
    130  CD2       -5.9120   39.0190  -23.6340 C.3   106  LEU106      0.0001
    131  N         -3.5230   41.5500  -18.8740 N.3   108  PHE108     -0.1227
    132  CA        -3.4300   42.8490  -19.5870 C.3   108  PHE108      0.1736
    133  C         -3.9930   43.9820  -18.7310 C.2   108  PHE108      0.2595
    134  O         -4.6500   43.7280  -17.7170 O.2   108  PHE108     -0.2718
    135  CB        -4.1670   42.7470  -20.9300 C.3   108  PHE108      0.0547
    136  CG        -5.6700   42.6520  -20.7930 C.ar  108  PHE108     -0.0202
    137  CD1       -6.2760   41.4500  -20.4720 C.ar  108  PHE108     -0.0042
    138  CD2       -6.4850   43.7670  -21.0010 C.ar  108  PHE108     -0.0042
    139  CE1       -7.6530   41.3610  -20.3250 C.ar  108  PHE108     -0.0003
    140  CE2       -7.8600   43.6760  -20.8400 C.ar  108  PHE108     -0.0003
    141  CZ        -8.4420   42.4790  -20.5450 C.ar  108  PHE108     -0.0000
    142  N         -3.7170   45.2240  -19.1390 N.am  109  TYR109     -0.1962
    143  CA        -4.3200   46.3960  -18.5210 C.3   109  TYR109      0.1771
    144  C         -5.3370   47.0470  -19.4470 C.2   109  TYR109      0.2620
    145  O         -5.1740   47.0950  -20.6770 O.2   109  TYR109     -0.2715
    146  CB        -3.2530   47.4110  -18.1170 C.3   109  TYR109      0.0574
    147  CG        -2.6530   47.1210  -16.7440 C.ar  109  TYR109     -0.0198
    148  CD1       -1.6460   46.1540  -16.5750 C.ar  109  TYR109     -0.0009
    149  CD2       -3.1240   47.7780  -15.6250 C.ar  109  TYR109     -0.0009
    150  CE1       -1.1010   45.9010  -15.3370 C.ar  109  TYR109      0.0417
    151  CE2       -2.5970   47.5390  -14.3720 C.ar  109  TYR109      0.0417
    152  CZ        -1.6050   46.5830  -14.2210 C.ar  109  TYR109      0.1957
    153  OH        -1.1020   46.3540  -12.9660 O.3   109  TYR109     -0.2866
    154  N         -6.3920   47.5330  -18.8170 N.am  110  SER110     -0.1936
    155  CA        -7.3610   48.4290  -19.4320 C.3   110  SER110      0.2055
    156  C         -7.3810   49.6960  -18.5730 C.2   110  SER110      0.2643
    157  O         -7.8720   49.6910  -17.4250 O.2   110  SER110     -0.2714
    158  CB        -8.7280   47.7590  -19.4900 C.3   110  SER110      0.2130
    159  OG        -9.6920   48.6480  -19.9990 O.3   110  SER110     -0.2179
    160  N         -6.8030   50.7680  -19.1090 N.am  111  GLY111     -0.1954
    161  CA        -6.4750   51.9210  -18.2950 C.3   111  GLY111      0.1869
    162  C         -5.5330   51.4900  -17.1940 C.2   111  GLY111      0.2309
    163  O         -4.5600   50.7650  -17.4200 O.2   111  GLY111     -0.2863
    164  N         -8.0970   37.4540  -18.6200 N.3   117  GLN117     -0.1245
    165  CA        -9.1480   36.8680  -19.4650 C.3   117  GLN117      0.1566
    166  C         -8.8160   35.4010  -19.7700 C.2   117  GLN117      0.2260
    167  O         -7.6600   35.0490  -19.9700 O.2   117  GLN117     -0.2867
    168  CB        -9.2520   37.6310  -20.7900 C.3   117  GLN117      0.0367
    169  CG       -10.2920   37.0300  -21.7460 C.3   117  GLN117      0.0905
    170  CD       -10.4070   37.7760  -23.0670 C.2   117  GLN117      0.2608
    171  OE1      -11.4280   38.3570  -23.3530 O.2   117  GLN117     -0.2717
    172  NE2       -9.3680   37.7410  -23.8680 N.am  117  GLN117     -0.0878
@<TRIPOS>BOND
     1    67    66    1
     2     4     3    2
     3    66    63    1
     4     3     2    1
     5    63    64    1
     6    63    62    1
     7    65    64    2
     8     1     2    1
     9    60    59    2
    10     9    10    1
    11    64    68   am
    12    62    59   am
    13    14    15    1
    14    61    58    1
    15     2     5    1
    16    59    58    1
    17    11    12    2
    18    11    10    1
    19    10    13    1
    20    31    32    2
    21    31    30    1
    22    21    20    2
    23    15    16    1
    24    56    54   am
    25    58    57    1
    26    68    69    1
    27     5     6    1
    28    72    69    1
    29    55    54    2
    30    30    29    1
    31    30    33    1
    32    54    53    1
    33    29    27   am
    34     6     8   am
    35     6     7    2
    36    18    16   am
    37    18    19    1
    38    57    51   am
    39    16    17    2
    40    69    70    1
    41    20    19    1
    42    20    25   am
    43    27    28    2
    44    27    26    1
    45    23    22    1
    46    26    25    1
    47    19    22    1
    48    53    50    1
    49    51    52    2
    50    51    50    1
    51    33    34    1
    52    22    24    1
    53    70    71    2
    54    70    73   am
    55    50    49    1
    56    34    86    1
    57    73    74    1
    58    47    48   ar
    59    47    45   ar
    60    86    85    1
    61    48    46   ar
    62    45    42   ar
    63    74    75    1
    64    74    77    1
    65    46    44   ar
    66    75    76    2
    67    75    81   am
    68    42    44   ar
    69    42    40   ar
    70    77    78    1
    71    85    82    1
    72    81    82    1
    73    38    37    2
    74    44    43   ar
    75    37    36    1
    76    82    83    1
    77    39    36    1
    78    39    40    1
    79    36    35    1
    80    40    41   ar
    81    78    79    2
    82    78    80   am
    83   117   115   ar
    84   117   118   ar
    85    43    41   ar
    86   120   118   ar
    87   120   122   ar
    88   115   114   ar
    89   118   116   ar
    90    83    84    2
    91    83    87   am
    92   122   121   ar
    93    87    88    1
    94   107   106    1
    95   114   116   ar
    96   114   113    1
    97   116   119   ar
    98   108   106    1
    99   106   103    1
   100   172   170   am
   101   130   128    1
   102    94    93    2
   103   121   119   ar
   104    92    93    1
   105    92    91    1
   106   171   170    2
   107   129   128    1
   108   100   101    1
   109   100    97    1
   110   113   110    1
   111   170   169    1
   112    88    91    1
   113    88    89    1
   114    93    95   am
   115    99    98    2
   116   128   127    1
   117    96    89   am
   118    96    97    1
   119   103   102    1
   120   103   104    1
   121   105   104    2
   122    89    90    2
   123    98    97    1
   124   127   124    1
   125   109   110    1
   126   110   111    1
   127   169   168    1
   128   138   140   ar
   129   138   136   ar
   130   124   123    1
   131   124   125    1
   132   111   112    2
   133   135   136    1
   134   135   132    1
   135   140   141   ar
   136   136   137   ar
   137   168   165    1
   138   145   144    2
   139   141   139   ar
   140   137   139   ar
   141   159   158    1
   142   167   166    2
   143   125   126    2
   144   166   165    1
   145   132   131    1
   146   132   133    1
   147   158   155    1
   148   165   164    1
   149   144   154   am
   150   144   143    1
   151   155   154    1
   152   155   156    1
   153   142   133   am
   154   142   143    1
   155   160   156   am
   156   160   161    1
   157   133   134    2
   158   156   157    2
   159   143   146    1
   160   161   162    1
   161   146   147    1
   162   163   162    2
   163   147   148   ar
   164   147   149   ar
   165   148   150   ar
   166   149   151   ar
   167   150   152   ar
   168   151   152   ar
   169   152   153    1
