@<TRIPOS>MOLECULE
tmp/4z2sA02.pdb
 101 96 0 0 0
SMALL
GASTEIGER

@<TRIPOS>ATOM
      1  N         33.5860    0.9470   29.2070 N.3    78  ASP78      -0.1225
      2  CA        35.0270    1.1110   29.2440 C.3    78  ASP78       0.1805
      3  C         35.4120    2.5630   29.5270 C.2    78  ASP78       0.2598
      4  O         34.6470    3.4870   29.2500 O.2    78  ASP78      -0.2718
      5  CB        35.6480    0.6730   27.9190 C.3    78  ASP78       0.1424
      6  CG        37.1580    0.6280   27.9620 C.2    78  ASP78       0.3668
      7  OD1       37.7110    0.1180   28.9520 O.co2  78  ASP78      -0.2456
      8  OD2       37.8060    1.1490   27.0330 O.co2  78  ASP78      -0.2456
      9  N         36.5990    2.7310   30.1130 N.am   79  ILE79      -0.1966
     10  CA        37.1360    4.0360   30.4710 C.3    79  ILE79       0.1727
     11  C         38.5170    4.1170   29.8630 C.2    79  ILE79       0.2616
     12  O         39.3110    3.1750   29.9970 O.2    79  ILE79      -0.2715
     13  CB        37.2460    4.1840   32.0010 C.3    79  ILE79       0.0290
     14  CG1       35.8620    4.0910   32.6530 C.3    79  ILE79       0.0022
     15  CG2       37.9730    5.4870   32.3870 C.3    79  ILE79       0.0023
     16  CD1       35.9090    3.8100   34.1380 C.3    79  ILE79       0.0001
     17  N         38.8140    5.2210   29.1800 N.am   80  VAL80      -0.1963
     18  CA        40.1390    5.4680   28.6640 C.3    80  VAL80       0.1727
     19  C         40.6000    6.7770   29.2910 C.2    80  VAL80       0.2617
     20  O         39.8740    7.7650   29.2280 O.2    80  VAL80      -0.2715
     21  CB        40.1750    5.5930   27.1290 C.3    80  VAL80       0.0290
     22  CG1       41.6080    5.7810   26.6530 C.3    80  VAL80       0.0023
     23  CG2       39.5490    4.3780   26.4820 C.3    80  VAL80       0.0023
     24  N         41.8020    6.7610   29.8740 N.am   81  THR81      -0.1937
     25  CA        42.4190    7.8930   30.5660 C.3    81  THR81       0.2028
     26  C         43.7400    8.2560   29.8510 C.2    81  THR81       0.2642
     27  O         44.1010    7.6290   28.8690 O.2    81  THR81      -0.2714
     28  CB        42.7090    7.5550   32.0570 C.3    81  THR81       0.1808
     29  OG1       43.7690    6.5980   32.1540 O.3    81  THR81      -0.2208
     30  CG2       41.4860    6.9960   32.7660 C.3    81  THR81       0.0379
     31  N         44.4650    9.2390   30.3900 N.am   82  ASN82      -0.1971
     32  CA        45.7790    9.6600   29.8300 C.3    82  ASN82       0.1688
     33  C         45.6660   10.0540   28.3430 C.2    82  ASN82       0.2292
     34  O         46.5410    9.7410   27.5280 O.2    82  ASN82      -0.2864
     35  CB        46.8440    8.5740   30.0300 C.3    82  ASN82       0.1181
     36  CG        46.9570    8.1210   31.4720 C.2    82  ASN82       0.2629
     37  OD1       46.8000    8.9120   32.3890 O.2    82  ASN82      -0.2716
     38  ND2       47.2210    6.8420   31.6730 N.am   82  ASN82      -0.0877
     39  N         42.2050   -3.7100   21.0850 N.3   101  ASN101     -0.1225
     40  CA        42.0640   -3.6810   22.5250 C.3   101  ASN101      0.1785
     41  C         40.7180   -3.0760   22.9610 C.2   101  ASN101      0.2597
     42  O         40.1390   -3.5080   23.9380 O.2   101  ASN101     -0.2718
     43  CB        43.2710   -3.0260   23.2240 C.3   101  ASN101      0.1169
     44  CG        43.3750   -1.5200   23.0000 C.2   101  ASN101      0.2627
     45  OD1       42.9600   -0.9910   21.9780 O.2   101  ASN101     -0.2716
     46  ND2       43.9450   -0.8290   23.9780 N.am  101  ASN101     -0.0877
     47  N         40.2240   -2.0960   22.2030 N.am  102  ARG102     -0.1979
     48  CA        38.9290   -1.4680   22.5020 C.3   102  ARG102      0.1597
     49  C         37.7730   -2.4010   22.1550 C.2   102  ARG102      0.2287
     50  O         36.8100   -2.5330   22.9190 O.2   102  ARG102     -0.2864
     51  CB        38.7990   -0.1350   21.7520 C.3   102  ARG102      0.0334
     52  CG        39.8700    0.8920   22.1030 C.3   102  ARG102      0.0492
     53  CD        39.3140    2.2410   22.5990 C.3   102  ARG102      0.2205
     54  NE        40.3380    3.2510   22.4210 N.pl3 102  ARG102     -0.0865
     55  CZ        41.4530    3.3870   23.1490 C.cat 102  ARG102      0.5346
     56  NH1       41.6940    2.6460   24.2340 N.pl3 102  ARG102      0.1354
     57  NH2       42.3230    4.3330   22.8110 N.pl3 102  ARG102      0.1354
     58  N         37.4710   -4.9490   24.8160 N.3   105  ALA105     -0.1245
     59  CA        36.8290   -4.3890   26.0130 C.3   105  ALA105      0.1562
     60  C         35.3140   -4.3950   25.8620 C.2   105  ALA105      0.2260
     61  O         34.5980   -4.8180   26.7640 O.2   105  ALA105     -0.2867
     62  CB        37.3220   -2.9830   26.2800 C.3   105  ALA105      0.0290
     63  N         33.8090   -7.8620   26.1840 N.3   108  ARG108     -0.1245
     64  CA        33.7590   -8.3780   27.5530 C.3   108  ARG108      0.1563
     65  C         32.4230   -8.1650   28.2400 C.2   108  ARG108      0.2260
     66  O         32.1370   -8.8280   29.2350 O.2   108  ARG108     -0.2867
     67  CB        34.9040   -7.8240   28.4170 C.3   108  ARG108      0.0307
     68  CG        36.1650   -8.6660   28.3210 C.3   108  ARG108      0.0489
     69  CD        37.2400   -8.2140   29.2850 C.3   108  ARG108      0.2205
     70  NE        37.9000   -7.0070   28.7840 N.pl3 108  ARG108     -0.0865
     71  CZ        39.0100   -6.9590   28.0350 C.cat 108  ARG108      0.5346
     72  NH1       39.4600   -5.7700   27.6690 N.pl3 108  ARG108      0.1354
     73  NH2       39.6870   -8.0610   27.6580 N.pl3 108  ARG108      0.1354
     74  N         33.6740   -1.6150   35.5730 N.3   113  TYR113     -0.1241
     75  CA        35.0260   -1.4480   35.1120 C.3   113  TYR113      0.1605
     76  C         35.6470   -0.2870   35.8490 C.2   113  TYR113      0.2264
     77  O         34.9920    0.7310   36.0590 O.2   113  TYR113     -0.2867
     78  CB        35.0900   -1.1950   33.5930 C.3   113  TYR113      0.0534
     79  CG        36.5120   -1.0720   33.1340 C.ar  113  TYR113     -0.0201
     80  CD1       37.3750   -2.1680   33.2000 C.ar  113  TYR113     -0.0009
     81  CD2       37.0390    0.1490   32.7140 C.ar  113  TYR113     -0.0009
     82  CE1       38.7000   -2.0610   32.8110 C.ar  113  TYR113      0.0417
     83  CE2       38.3610    0.2630   32.3490 C.ar  113  TYR113      0.0417
     84  CZ        39.1900   -0.8490   32.3960 C.ar  113  TYR113      0.1957
     85  OH        40.5030   -0.7430   32.0470 O.3   113  TYR113     -0.2866
     86  N         39.7000    1.8560   36.2960 N.3   115  VAL115     -0.1231
     87  CA        41.0710    2.0510   35.8540 C.3   115  VAL115      0.1692
     88  C         41.5910    3.3380   36.4770 C.2   115  VAL115      0.2591
     89  O         40.8030    4.2440   36.7790 O.2   115  VAL115     -0.2718
     90  CB        41.1720    2.0960   34.3050 C.3   115  VAL115      0.0266
     91  CG1       40.6460    3.4200   33.7410 C.3   115  VAL115      0.0020
     92  CG2       42.6040    1.8550   33.8450 C.3   115  VAL115      0.0020
     93  N         42.9010    3.4180   36.6970 N.am  116  LYS116     -0.1980
     94  CA        43.5050    4.6550   37.2010 C.3   116  LYS116      0.1596
     95  C         44.2730    5.3230   36.1020 C.2   116  LYS116      0.2287
     96  O         44.7920    4.6470   35.2050 O.2   116  LYS116     -0.2864
     97  CB        44.4460    4.3780   38.3630 C.3   116  LYS116      0.0298
     98  CG        43.7940    3.7170   39.5540 C.3   116  LYS116      0.0038
     99  CD        44.8080    3.5840   40.6880 C.3   116  LYS116      0.0206
    100  CE        44.3330    2.6540   41.7970 C.3   116  LYS116      0.1093
    101  NZ        42.9680    2.9950   42.2890 N.3   116  LYS116     -0.1314
@<TRIPOS>BOND
     1    39    40    1
     2    51    52    1
     3    51    48    1
     4    45    44    2
     5    52    53    1
     6    49    48    1
     7    49    50    2
     8    47    48    1
     9    47    41   am
    10    54    53    1
    11    54    55    2
    12    40    41    1
    13    40    43    1
    14    57    55    1
    15    41    42    2
    16    44    43    1
    17    44    46   am
    18    55    56    1
    19    58    59    1
    20    60    59    1
    21    60    61    2
    22    59    62    1
    23    63    64    1
    24    23    21    1
    25    22    21    1
    26     8     6   ar
    27    21    18    1
    28    34    33    2
    29    64    65    1
    30    64    67    1
    31    73    71    1
    32    72    71    1
    33     5     6    1
    34     5     2    1
    35     6     7   ar
    36    71    70    2
    37    65    66    2
    38    68    67    1
    39    68    69    1
    40    33    32    1
    41    18    17    1
    42    18    19    1
    43    70    69    1
    44    27    26    2
    45    17    11   am
    46     1     2    1
    47    20    19    2
    48     2     3    1
    49     4     3    2
    50    19    24   am
    51     3     9   am
    52    32    35    1
    53    32    31    1
    54    26    31   am
    55    26    25    1
    56    11    12    2
    57    11    10    1
    58    24    25    1
    59    35    36    1
    60     9    10    1
    61    10    13    1
    62    25    28    1
    63    36    38   am
    64    36    37    2
    65    13    15    1
    66    13    14    1
    67    85    84    1
    68    28    29    1
    69    28    30    1
    70    83    84   ar
    71    83    81   ar
    72    84    82   ar
    73    14    16    1
    74    81    79   ar
    75    82    80   ar
    76    79    80   ar
    77    79    78    1
    78    78    75    1
    79    91    90    1
    80    92    90    1
    81    90    87    1
    82    75    74    1
    83    75    76    1
    84    96    95    2
    85    76    77    2
    86    87    86    1
    87    87    88    1
    88    95    94    1
    89    88    93   am
    90    88    89    2
    91    93    94    1
    92    94    97    1
    93    97    98    1
    94    98    99    1
    95    99   100    1
    96   100   101    1
