@<TRIPOS>MOLECULE
tmp/4z2vA00.pdb
 167 165 0 0 0
SMALL
GASTEIGER

@<TRIPOS>ATOM
      1  N         -5.2680  -23.0150   -3.6380 N.3    43  ASN43      -0.1240
      2  CA        -3.8580  -22.7990   -3.3960 C.3    43  ASN43       0.1653
      3  C         -3.5900  -22.3430   -1.9550 C.2    43  ASN43       0.2266
      4  O         -4.1460  -21.3380   -1.5320 O.2    43  ASN43      -0.2867
      5  CB        -3.3450  -21.7730   -4.3790 C.3    43  ASN43       0.1155
      6  CG        -1.9480  -21.3140   -4.0580 C.2    43  ASN43       0.2627
      7  OD1       -1.0750  -22.1290   -3.6680 O.2    43  ASN43      -0.2716
      8  ND2       -1.7130  -20.0040   -4.2090 N.am   43  ASN43      -0.0877
      9  N          3.8230  -17.7460    0.3750 N.3    47  GLY47      -0.1210
     10  CA         4.5830  -16.8240   -0.4860 C.3    47  GLY47       0.1956
     11  C          3.9800  -16.5600   -1.8560 C.2    47  GLY47       0.2613
     12  O          4.5790  -15.8770   -2.6800 O.2    47  GLY47      -0.2717
     13  N          2.7880  -17.0900   -2.1020 N.am   48  THR48      -0.1938
     14  CA         2.1430  -16.9510   -3.4090 C.3    48  THR48       0.2028
     15  C          0.8760  -16.1040   -3.3140 C.2    48  THR48       0.2643
     16  O          0.3200  -15.8960   -2.2200 O.2    48  THR48      -0.2714
     17  CB         1.7730  -18.3250   -4.0110 C.3    48  THR48       0.1808
     18  OG1        0.7600  -18.9440   -3.2120 O.3    48  THR48      -0.2208
     19  CG2        2.9920  -19.2400   -4.1100 C.3    48  THR48       0.0379
     20  N          0.4110  -15.6300   -4.4700 N.am   49  GLY49      -0.1939
     21  CA        -0.8730  -14.9670   -4.5680 C.3    49  GLY49       0.2014
     22  C         -2.0030  -15.9620   -4.7960 C.2    49  GLY49       0.2639
     23  O         -1.7760  -17.1670   -4.8650 O.2    49  GLY49      -0.2714
     24  N         -3.2250  -15.4620   -4.9020 N.am   50  CYS50      -0.1967
     25  CA        -4.3770  -16.3010   -5.2420 C.3    50  CYS50       0.1712
     26  C         -4.5290  -17.5010   -4.2970 C.2    50  CYS50       0.2296
     27  O         -4.7840  -18.6310   -4.7100 O.2    50  CYS50      -0.2864
     28  CB        -4.2620  -16.7520   -6.7190 C.3    50  CYS50       0.0983
     29  SG        -4.4520  -15.3810   -7.8790 S.3    50  CYS50      -0.0798
     30  N         -5.2940  -18.6700  -13.2580 N.3    74  TRP74      -0.1241
     31  CA        -5.4160  -18.0590  -11.9240 C.3    74  TRP74       0.1605
     32  C         -6.2680  -16.7910  -11.9560 C.2    74  TRP74       0.2264
     33  O         -5.7980  -15.7030  -11.5630 O.2    74  TRP74      -0.2867
     34  CB        -4.0320  -17.8150  -11.3430 C.3    74  TRP74       0.0550
     35  CG        -3.2960  -19.0770  -11.1270 C.ar   74  TRP74       0.0003
     36  CD1       -2.2970  -19.6130  -11.9090 C.ar   74  TRP74       0.0946
     37  CD2       -3.5190  -20.0400  -10.0800 C.ar   74  TRP74       0.0152
     38  NE1       -1.8940  -20.8280  -11.4150 N.ar   74  TRP74      -0.2442
     39  CE2       -2.6240  -21.1130  -10.2910 C.ar   74  TRP74       0.0810
     40  CE3       -4.4040  -20.1120   -9.0080 C.ar   74  TRP74       0.0012
     41  CZ2       -2.5930  -22.2340   -9.4530 C.ar   74  TRP74       0.0191
     42  CZ3       -4.3570  -21.2190   -8.1730 C.ar   74  TRP74       0.0001
     43  CH2       -3.4490  -22.2440   -8.3830 C.ar   74  TRP74       0.0015
     44  N        -10.2400  -15.6060  -10.8470 N.3    76  ASN76      -0.1225
     45  CA       -11.5750  -15.8440  -10.3260 C.3    76  ASN76       0.1785
     46  C        -12.1220  -14.5580   -9.7420 C.2    76  ASN76       0.2597
     47  O        -11.5010  -13.4950   -9.8650 O.2    76  ASN76      -0.2718
     48  CB       -11.6450  -17.0670   -9.3530 C.3    76  ASN76       0.1169
     49  CG       -11.0040  -16.7950   -7.9970 C.2    76  ASN76       0.2627
     50  OD1      -10.6210  -15.6780   -7.7290 O.2    76  ASN76      -0.2716
     51  ND2      -10.8980  -17.8260   -7.1440 N.am   76  ASN76      -0.0877
     52  N        -13.2560  -14.6500   -9.0720 N.am   77  ALA77      -0.1966
     53  CA       -13.9000  -13.4430   -8.5130 C.3    77  ALA77       0.1728
     54  C        -13.1030  -12.7440   -7.4030 C.2    77  ALA77       0.2617
     55  O        -13.2980  -11.5490   -7.1290 O.2    77  ALA77      -0.2715
     56  CB       -15.2850  -13.7910   -8.0030 C.3    77  ALA77       0.0334
     57  N        -12.2480  -13.5160   -6.7440 N.am   78  SER78      -0.1936
     58  CA       -11.5020  -13.0400   -5.5720 C.3    78  SER78       0.2055
     59  C        -10.1370  -12.4340   -5.9430 C.2    78  SER78       0.2643
     60  O         -9.7190  -11.4230   -5.3660 O.2    78  SER78      -0.2714
     61  CB       -11.2730  -14.2310   -4.6180 C.3    78  SER78       0.2130
     62  OG       -12.5010  -14.6850   -4.0740 O.3    78  SER78      -0.2179
     63  N         -9.4200  -13.0630   -6.8710 N.am   79  ALA79      -0.1963
     64  CA        -8.0700  -12.6690   -7.1670 C.3    79  ALA79       0.1728
     65  C         -7.6630  -13.1480   -8.5610 C.2    79  ALA79       0.2616
     66  O         -8.1040  -14.2080   -9.0370 O.2    79  ALA79      -0.2715
     67  CB        -7.1170  -13.2350   -6.1110 C.3    79  ALA79       0.0334
     68  N         -6.8120  -12.3410   -9.1910 N.am   80  ASN80      -0.1958
     69  CA        -6.2730  -12.6290  -10.5150 C.3    80  ASN80       0.1819
     70  C         -4.7570  -12.5110  -10.4600 C.2    80  ASN80       0.2621
     71  O         -4.2040  -11.4150  -10.2350 O.2    80  ASN80      -0.2715
     72  CB        -6.8470  -11.6270  -11.5280 C.3    80  ASN80       0.1195
     73  CG        -6.3490  -11.8450  -12.9380 C.2    80  ASN80       0.2630
     74  OD1       -5.6440  -12.8040  -13.2520 O.2    80  ASN80      -0.2716
     75  ND2       -6.6870  -10.8910  -13.8030 N.am   80  ASN80      -0.0877
     76  N         -4.0720  -13.6370  -10.6530 N.am   81  CYS81      -0.1954
     77  CA        -2.6280  -13.6500  -10.6660 C.3    81  CYS81       0.1843
     78  C         -2.0370  -13.7320  -12.0610 C.2    81  CYS81       0.2625
     79  O         -0.8400  -13.9300  -12.1990 O.2    81  CYS81      -0.2714
     80  CB        -2.0860  -14.7610   -9.7580 C.3    81  CYS81       0.0997
     81  SG        -2.4890  -14.4990   -8.0000 S.3    81  CYS81      -0.0797
     82  N         -2.8860  -13.5430  -13.0810 N.am   82  GLN82      -0.1963
     83  CA        -2.4200  -13.3250  -14.4760 C.3    82  GLN82       0.1733
     84  C         -1.4530  -14.4040  -14.9350 C.2    82  GLN82       0.2617
     85  O         -0.3860  -14.1340  -15.4720 O.2    82  GLN82      -0.2715
     86  CB        -1.7810  -11.9190  -14.6090 C.3    82  GLN82       0.0408
     87  CG        -2.6360  -10.7750  -14.0850 C.3    82  GLN82       0.0908
     88  CD        -1.9500   -9.4340  -14.3120 C.2    82  GLN82       0.2608
     89  OE1       -1.2830   -8.8960  -13.4230 O.2    82  GLN82      -0.2717
     90  NE2       -2.0530   -8.9260  -15.5190 N.am   82  GLN82      -0.0878
     91  N         -1.8250  -15.6580  -14.6800 N.am   83  SER83      -0.1950
     92  CA        -0.9130  -16.7840  -14.9380 C.3    83  SER83       0.1924
     93  C         -1.7080  -18.0690  -15.0870 C.2    83  SER83       0.2314
     94  O         -2.9080  -18.0710  -14.8970 O.2    83  SER83      -0.2863
     95  CB         0.1220  -16.9380  -13.8560 C.3    83  SER83       0.2116
     96  OG        -0.4790  -16.7860  -12.6280 O.3    83  SER83      -0.2180
     97  N         -1.1760  -22.6220  -14.5770 N.3    85  THR85      -0.1218
     98  CA        -0.3660  -23.7840  -14.2340 C.3    85  THR85       0.1862
     99  C         -0.9400  -25.0200  -14.8940 C.2    85  THR85       0.2287
    100  O         -2.1470  -25.1990  -14.9160 O.2    85  THR85      -0.2866
    101  CB        -0.3430  -23.9700  -12.6990 C.3    85  THR85       0.1770
    102  OG1        0.1270  -22.7550  -12.0940 O.3    85  THR85      -0.2211
    103  CG2        0.5150  -25.1700  -12.2600 C.3    85  THR85       0.0375
    104  N          4.7060  -29.9260  -12.7540 N.3   104  TRP104     -0.1241
    105  CA         3.9430  -28.7880  -13.2170 C.3   104  TRP104      0.1605
    106  C          4.8070  -27.7130  -13.8570 C.2   104  TRP104      0.2264
    107  O          6.0130  -27.6200  -13.6290 O.2   104  TRP104     -0.2867
    108  CB         3.1010  -28.1610  -12.1080 C.3   104  TRP104      0.0550
    109  CG         3.8340  -27.7870  -10.8420 C.ar  104  TRP104      0.0003
    110  CD1        3.8040  -28.4820   -9.6530 C.ar  104  TRP104      0.0946
    111  CD2        4.6090  -26.5970  -10.5840 C.ar  104  TRP104      0.0152
    112  NE1        4.5260  -27.8120   -8.6980 N.ar  104  TRP104     -0.2442
    113  CE2        5.0320  -26.6560   -9.2360 C.ar  104  TRP104      0.0810
    114  CE3        4.9650  -25.4730  -11.3620 C.ar  104  TRP104      0.0012
    115  CZ2        5.8300  -25.6670   -8.6660 C.ar  104  TRP104      0.0191
    116  CZ3        5.7550  -24.4960  -10.7950 C.ar  104  TRP104      0.0001
    117  CH2        6.1660  -24.5800   -9.4420 C.ar  104  TRP104      0.0015
    118  N          4.3560  -23.4180  -14.5500 N.3   106  LEU106     -0.1245
    119  CA         3.6550  -22.1520  -14.2840 C.3   106  LEU106      0.1561
    120  C          4.1290  -21.1180  -15.2630 C.2   106  LEU106      0.2260
    121  O          5.3300  -20.8090  -15.2670 O.2   106  LEU106     -0.2867
    122  CB         3.9720  -21.6830  -12.8630 C.3   106  LEU106      0.0270
    123  CG         3.5790  -20.2470  -12.4890 C.3   106  LEU106      0.0019
    124  CD1        2.0660  -20.1310  -12.4330 C.3   106  LEU106      0.0001
    125  CD2        4.1980  -19.7960  -11.1650 C.3   106  LEU106      0.0001
    126  N          3.9110  -17.2080  -16.5120 N.3   108  PHE108     -0.1227
    127  CA         3.6180  -15.9260  -15.8840 C.3   108  PHE108      0.1736
    128  C          4.5150  -14.8450  -16.4720 C.2   108  PHE108      0.2595
    129  O          5.4700  -15.1340  -17.1930 O.2   108  PHE108     -0.2718
    130  CB         3.8020  -16.0480  -14.3550 C.3   108  PHE108      0.0547
    131  CG         5.2440  -16.2340  -13.9180 C.ar  108  PHE108     -0.0202
    132  CD1        5.8970  -17.4530  -14.0390 C.ar  108  PHE108     -0.0042
    133  CD2        5.9590  -15.1640  -13.3770 C.ar  108  PHE108     -0.0042
    134  CE1        7.2170  -17.6100  -13.6500 C.ar  108  PHE108     -0.0003
    135  CE2        7.2810  -15.3010  -12.9590 C.ar  108  PHE108     -0.0003
    136  CZ         7.9140  -16.5310  -13.1330 C.ar  108  PHE108     -0.0000
    137  N          4.2350  -13.6040  -16.0800 N.am  109  TYR109     -0.1962
    138  CA         5.0740  -12.4620  -16.4320 C.3   109  TYR109      0.1771
    139  C          5.7220  -11.8300  -15.1980 C.2   109  TYR109      0.2620
    140  O          5.1270  -11.7560  -14.1280 O.2   109  TYR109     -0.2715
    141  CB         4.2550  -11.3990  -17.2010 C.3   109  TYR109      0.0574
    142  CG         4.1600  -11.6560  -18.6880 C.ar  109  TYR109     -0.0198
    143  CD1        3.1950  -12.4910  -19.2140 C.ar  109  TYR109     -0.0009
    144  CD2        5.0590  -11.0760  -19.5560 C.ar  109  TYR109     -0.0009
    145  CE1        3.1080  -12.7210  -20.5720 C.ar  109  TYR109      0.0417
    146  CE2        4.9990  -11.3020  -20.9140 C.ar  109  TYR109      0.0417
    147  CZ         4.0430  -12.1420  -21.4200 C.ar  109  TYR109      0.1957
    148  OH         4.0000  -12.3560  -22.7900 O.3   109  TYR109     -0.2866
    149  N          6.9430  -11.3640  -15.3830 N.am  110  SER110     -0.1936
    150  CA         7.5920  -10.5140  -14.4220 C.3   110  SER110      0.2055
    151  C          7.9790   -9.2730  -15.1990 C.2   110  SER110      0.2643
    152  O          8.8240   -9.3320  -16.0850 O.2   110  SER110     -0.2714
    153  CB         8.8140  -11.2150  -13.8450 C.3   110  SER110      0.2130
    154  OG         9.5390  -10.3570  -12.9880 O.3   110  SER110     -0.2179
    155  N          7.3220   -8.1610  -14.8870 N.am  111  GLY111     -0.1954
    156  CA         7.3230   -7.0040  -15.7600 C.3   111  GLY111      0.1869
    157  C          6.8300   -7.4330  -17.1280 C.2   111  GLY111      0.2309
    158  O          5.7990   -8.1000  -17.2480 O.2   111  GLY111     -0.2863
    159  N          8.0520  -21.5640  -15.1430 N.3   117  GLN117     -0.1245
    160  CA         8.7340  -22.1690  -14.0020 C.3   117  GLN117      0.1566
    161  C          8.2440  -23.6070  -13.8150 C.2   117  GLN117      0.2260
    162  O          7.0770  -23.8840  -14.0170 O.2   117  GLN117     -0.2867
    163  CB         8.4530  -21.3630  -12.7320 C.3   117  GLN117      0.0367
    164  CG         9.0220  -21.9720  -11.4620 C.3   117  GLN117      0.0905
    165  CD         8.4830  -21.3300  -10.1990 C.2   117  GLN117      0.2608
    166  OE1        7.2850  -21.0760  -10.0710 O.2   117  GLN117     -0.2717
    167  NE2        9.3670  -21.0860   -9.2480 N.am  117  GLN117     -0.0878
@<TRIPOS>BOND
     1   148   147    1
     2   147   146   ar
     3   147   145   ar
     4   146   144   ar
     5   145   143   ar
     6   144   142   ar
     7   143   142   ar
     8   142   141    1
     9   158   157    2
    10   141   138    1
    11   129   128    2
    12   157   156    1
    13   126   127    1
    14   128   137   am
    15   128   127    1
    16   138   137    1
    17   138   139    1
    18   152   151    2
    19   127   130    1
    20   156   155    1
    21    90    88   am
    22    85    84    2
    23   149   139   am
    24   149   150    1
    25   121   120    2
    26   120   119    1
    27   151   155   am
    28   151   150    1
    29   139   140    2
    30   159   160    1
    31    93    92    1
    32    93    94    2
    33    92    91    1
    34    92    95    1
    35    84    91   am
    36    84    83    1
    37   100    99    2
    38    99    98    1
    39    86    83    1
    40    86    87    1
    41    97    98    1
    42   118   119    1
    43    83    82    1
    44   150   153    1
    45   130   131    1
    46    88    87    1
    47    88    89    2
    48   119   122    1
    49    98   101    1
    50   132   131   ar
    51   132   134   ar
    52   162   161    2
    53   160   161    1
    54   160   163    1
    55   131   133   ar
    56   106   107    2
    57   106   105    1
    58    95    96    1
    59   153   154    1
    60    75    73   am
    61   134   136   ar
    62   133   135   ar
    63    30    31    1
    64    74    73    2
    65   105   104    1
    66   105   108    1
    67   136   135   ar
    68    82    78   am
    69    73    72    1
    70   122   123    1
    71   163   164    1
    72   101   103    1
    73   101   102    1
    74   123   124    1
    75   123   125    1
    76    79    78    2
    77   108   109    1
    78    78    77    1
    79    32    31    1
    80    32    33    2
    81    31    34    1
    82    36    38   ar
    83    36    35   ar
    84    72    69    1
    85   164   165    1
    86    38    39   ar
    87   114   116   ar
    88   114   111   ar
    89    34    35    1
    90    35    37   ar
    91    44    45    1
    92   109   111   ar
    93   109   110   ar
    94   116   117   ar
    95    77    76    1
    96    77    80    1
    97    76    70   am
    98   111   113   ar
    99    69    70    1
   100    69    68    1
   101    70    71    2
   102    45    46    1
   103    45    48    1
   104    39    37   ar
   105    39    41   ar
   106   165   166    2
   107   165   167   am
   108    37    40   ar
   109    47    46    2
   110    80    81    1
   111    46    52   am
   112   110   112   ar
   113    41    43   ar
   114   117   115   ar
   115    48    49    1
   116   113   112   ar
   117   113   115   ar
   118    68    65   am
   119    52    53    1
   120    66    65    2
   121    40    42   ar
   122    65    64    1
   123    53    56    1
   124    53    54    1
   125    43    42   ar
   126    81    29    1
   127    49    50    2
   128    49    51   am
   129    29    28    1
   130    54    55    2
   131    54    57   am
   132    64    63    1
   133    64    67    1
   134    63    59   am
   135    57    58    1
   136    28    25    1
   137    59    58    1
   138    59    60    2
   139    58    61    1
   140    25    24    1
   141    25    26    1
   142    24    22   am
   143    23    22    2
   144    22    21    1
   145    27    26    2
   146    61    62    1
   147    21    20    1
   148    20    15   am
   149     5     6    1
   150     5     2    1
   151     8     6   am
   152    19    17    1
   153     6     7    2
   154    17    14    1
   155    17    18    1
   156     1     2    1
   157    14    15    1
   158    14    13    1
   159     2     3    1
   160    15    16    2
   161    12    11    2
   162    13    11   am
   163     3     4    2
   164    11    10    1
   165    10     9    1
