@<TRIPOS>MOLECULE
tmp/4z34A01.pdb
 75 68 0 0 0
SMALL
GASTEIGER

@<TRIPOS>ATOM
      1  N          0.5320  -34.5850   36.3470 N.3    78  PHE78      -0.1241
      2  CA         1.3760  -34.7500   37.5260 C.3    78  PHE78       0.1605
      3  C          0.6330  -34.2040   38.7560 C.2    78  PHE78       0.2264
      4  O          0.7580  -34.7760   39.8440 O.2    78  PHE78      -0.2867
      5  CB         2.7330  -34.0500   37.3180 C.3    78  PHE78       0.0534
      6  CG         3.6480  -34.0680   38.5150 C.ar   78  PHE78      -0.0203
      7  CD1        4.4290  -35.1820   38.7940 C.ar   78  PHE78      -0.0042
      8  CD2        3.7480  -32.9610   39.3510 C.ar   78  PHE78      -0.0042
      9  CE1        5.2780  -35.1960   39.9020 C.ar   78  PHE78      -0.0003
     10  CE2        4.5900  -32.9780   40.4640 C.ar   78  PHE78      -0.0003
     11  CZ         5.3570  -34.0920   40.7270 C.ar   78  PHE78      -0.0000
     12  N          8.5010  -37.1840   56.8950 N.3   100  SER100     -0.1217
     13  CA         8.9500  -37.3990   55.5180 C.3   100  SER100      0.1889
     14  C          7.7830  -37.4610   54.5210 C.2   100  SER100      0.2288
     15  O          7.8720  -36.8360   53.4640 O.2   100  SER100     -0.2866
     16  CB         9.7660  -38.6830   55.4210 C.3   100  SER100      0.2089
     17  OG         9.0110  -39.8170   55.8170 O.3   100  SER100     -0.2183
     18  N          6.0020  -33.9690   53.9280 N.3   103  LEU103     -0.1231
     19  CA         6.8080  -33.1600   53.0090 C.3   103  LEU103      0.1693
     20  C          6.7080  -33.6920   51.5810 C.2   103  LEU103      0.2591
     21  O          6.9110  -32.9250   50.6390 O.2   103  LEU103     -0.2718
     22  CB         8.2800  -33.1250   53.4550 C.3   103  LEU103      0.0284
     23  CG         8.5780  -32.3480   54.7330 C.3   103  LEU103      0.0019
     24  CD1        9.8880  -32.7780   55.3240 C.3   103  LEU103      0.0001
     25  CD2        8.5610  -30.8480   54.4870 C.3   103  LEU103      0.0001
     26  N          6.3860  -34.9920   51.4240 N.am  104  LEU104     -0.1980
     27  CA         6.2160  -35.6360   50.1280 C.3   104  LEU104      0.1596
     28  C          4.9210  -35.1430   49.4680 C.2   104  LEU104      0.2287
     29  O          4.9940  -34.6470   48.3460 O.2   104  LEU104     -0.2864
     30  CB         6.2250  -37.1740   50.2640 C.3   104  LEU104      0.0297
     31  CG         6.1360  -37.9970   48.9670 C.3   104  LEU104      0.0022
     32  CD1        7.4240  -37.9110   48.1550 C.3   104  LEU104      0.0001
     33  CD2        5.8080  -39.4540   49.2640 C.3   104  LEU104      0.0001
     34  N          5.2230  -31.4510   48.8810 N.3   107  GLY107     -0.1210
     35  CA         6.2550  -31.2260   47.8770 C.3   107  GLY107      0.1956
     36  C          5.7790  -31.4490   46.4610 C.2   107  GLY107      0.2611
     37  O          6.1030  -30.6530   45.5780 O.2   107  GLY107     -0.2717
     38  N          4.9920  -32.5260   46.2430 N.am  108  LEU108     -0.1979
     39  CA         4.4370  -32.8910   44.9380 C.3   108  LEU108      0.1596
     40  C          3.4680  -31.8270   44.4110 C.2   108  LEU108      0.2287
     41  O          3.3880  -31.6270   43.1960 O.2   108  LEU108     -0.2864
     42  CB         3.7180  -34.2470   45.0240 C.3   108  LEU108      0.0297
     43  CG         4.5820  -35.5080   45.2030 C.3   108  LEU108      0.0022
     44  CD1        3.7760  -36.6310   45.8320 C.3   108  LEU108      0.0001
     45  CD2        5.2130  -35.9620   43.8850 C.3   108  LEU108      0.0001
     46  N          5.6240  -28.7500   43.4210 N.3   111  THR111     -0.1218
     47  CA         6.3070  -29.1090   42.1750 C.3   111  THR111      0.1862
     48  C          5.3390  -28.9170   40.9980 C.2   111  THR111      0.2287
     49  O          5.7350  -28.3270   39.9960 O.2   111  THR111     -0.2866
     50  CB         6.8480  -30.5580   42.2560 C.3   111  THR111      0.1770
     51  OG1        7.6870  -30.6860   43.4050 O.3   111  THR111     -0.2211
     52  CG2        7.6330  -30.9720   41.0160 C.3   111  THR111      0.0375
     53  N         11.0980  -29.2670   40.0630 N.3   157  ILE157     -0.1245
     54  CA        11.6970  -30.2320   41.0010 C.3   157  ILE157      0.1561
     55  C         12.4500  -29.4570   42.1010 C.2   157  ILE157      0.2260
     56  O         12.2780  -29.7680   43.2790 O.2   157  ILE157     -0.2867
     57  CB        12.6110  -31.2690   40.2610 C.3   157  ILE157      0.0252
     58  CG1       11.7590  -32.1880   39.3540 C.3   157  ILE157      0.0019
     59  CG2       13.4470  -32.1070   41.2450 C.3   157  ILE157      0.0019
     60  CD1       12.5430  -32.9320   38.2320 C.3   157  ILE157      0.0001
     61  N         10.0720  -27.4090   44.3720 N.3   160  GLY160     -0.1210
     62  CA         9.3610  -28.3900   45.1840 C.3   160  GLY160      0.1956
     63  C         10.2720  -29.1480   46.1350 C.2   160  GLY160      0.2611
     64  O          9.8230  -30.0630   46.8300 O.2   160  GLY160     -0.2717
     65  N         11.5650  -28.7770   46.1650 N.am  161  ALA161     -0.1979
     66  CA        12.5760  -29.3800   47.0290 C.3   161  ALA161      0.1597
     67  C         13.1660  -28.3600   48.0110 C.2   161  ALA161      0.2287
     68  O         13.6120  -28.7720   49.0770 O.2   161  ALA161     -0.2864
     69  CB        13.6800  -30.0000   46.1940 C.3   161  ALA161      0.0319
     70  N         12.1480  -28.7640   51.4650 N.3   164  SER164     -0.1217
     71  CA        12.5880  -30.0860   51.9070 C.3   164  SER164      0.1889
     72  C         14.1280  -30.1980   51.9330 C.2   164  SER164      0.2288
     73  O         14.6490  -31.3040   52.1250 O.2   164  SER164     -0.2866
     74  CB        11.9980  -31.1660   51.0120 C.3   164  SER164      0.2089
     75  OG        10.7530  -31.6070   51.5190 O.3   164  SER164     -0.2183
@<TRIPOS>BOND
     1     1     2    1
     2     5     2    1
     3     5     6    1
     4     2     3    1
     5    60    58    1
     6     6     7   ar
     7     6     8   ar
     8     3     4    2
     9     7     9   ar
    10     8    10   ar
    11    58    57    1
    12     9    11   ar
    13    49    48    2
    14    53    54    1
    15    57    54    1
    16    57    59    1
    17    10    11   ar
    18    48    47    1
    19    54    55    1
    20    52    50    1
    21    55    56    2
    22    47    50    1
    23    47    46    1
    24    50    51    1
    25    41    40    2
    26    45    43    1
    27    61    62    1
    28    40    39    1
    29    39    42    1
    30    39    38    1
    31    42    43    1
    32    62    63    1
    33    43    44    1
    34    37    36    2
    35    63    65   am
    36    63    64    2
    37    65    66    1
    38    69    66    1
    39    38    36   am
    40    36    35    1
    41    66    67    1
    42    35    34    1
    43    67    68    2
    44    32    31    1
    45    29    28    2
    46    31    33    1
    47    31    30    1
    48    28    27    1
    49    27    30    1
    50    27    26    1
    51    21    20    2
    52    74    75    1
    53    74    71    1
    54    26    20   am
    55    70    71    1
    56    20    19    1
    57    71    72    1
    58    72    73    2
    59    19    22    1
    60    19    18    1
    61    22    23    1
    62    15    14    2
    63    25    23    1
    64    14    13    1
    65    23    24    1
    66    16    13    1
    67    16    17    1
    68    13    12    1
