@<TRIPOS>MOLECULE
tmp/4z3dB00.pdb
 141 138 0 0 0
SMALL
GASTEIGER

@<TRIPOS>ATOM
      1  N        -18.9750  -21.1190    6.4740 N.3    92  ALA92      -0.1231
      2  CA       -19.1470  -21.2710    7.9130 C.3    92  ALA92       0.1694
      3  C        -17.8520  -20.8530    8.5970 C.2    92  ALA92       0.2592
      4  O        -16.7670  -21.1610    8.1100 O.2    92  ALA92      -0.2718
      5  CB       -19.4820  -22.7120    8.2560 C.3    92  ALA92       0.0304
      6  N        -17.9630  -20.1340    9.7070 N.am   93  PHE93      -0.1962
      7  CA       -16.8000  -19.8630   10.5370 C.3    93  PHE93       0.1771
      8  C        -16.5700  -21.0890   11.4040 C.2    93  PHE93       0.2619
      9  O        -17.5050  -21.8140   11.7000 O.2    93  PHE93      -0.2715
     10  CB       -17.0380  -18.6370   11.4300 C.3    93  PHE93       0.0574
     11  CG       -16.9610  -17.3230   10.7000 C.ar   93  PHE93      -0.0200
     12  CD1      -18.0230  -16.8780    9.9350 C.ar   93  PHE93      -0.0042
     13  CD2      -15.8170  -16.5350   10.7770 C.ar   93  PHE93      -0.0042
     14  CE1      -17.9550  -15.6590    9.2580 C.ar   93  PHE93      -0.0003
     15  CE2      -15.7460  -15.3190   10.1090 C.ar   93  PHE93      -0.0003
     16  CZ       -16.8120  -14.8810    9.3490 C.ar   93  PHE93      -0.0000
     17  N        -15.3320  -21.3270   11.8230 N.am   94  LYS94      -0.1963
     18  CA       -15.0540  -22.4550   12.7190 C.3    94  LYS94       0.1728
     19  C        -15.8150  -22.3250   14.0460 C.2    94  LYS94       0.2616
     20  O        -16.1510  -21.2140   14.4720 O.2    94  LYS94      -0.2715
     21  CB       -13.5540  -22.5630   13.0030 C.3    94  LYS94       0.0311
     22  CG       -12.6420  -22.6110   11.7740 C.3    94  LYS94       0.0038
     23  CD       -12.8490  -23.8530   10.9310 C.3    94  LYS94       0.0206
     24  CE       -11.9300  -23.8500    9.7320 C.3    94  LYS94       0.1093
     25  NZ       -12.1770  -22.6830    8.8400 N.3    94  LYS94      -0.1314
     26  N        -16.0800  -23.4560   14.6960 N.am   95  VAL95      -0.1977
     27  CA       -16.7760  -23.4670   15.9830 C.3    95  VAL95       0.1596
     28  C        -16.0630  -22.5590   16.9870 C.2    95  VAL95       0.2287
     29  O        -16.7020  -21.8420   17.7620 O.2    95  VAL95      -0.2864
     30  CB       -16.8760  -24.8960   16.5440 C.3    95  VAL95       0.0276
     31  CG1      -17.6900  -24.9140   17.8270 C.3    95  VAL95       0.0022
     32  CG2      -17.5050  -25.8150   15.5180 C.3    95  VAL95       0.0022
     33  N        -18.8190  -12.5030   17.2820 N.3   101  PHE101     -0.1241
     34  CA       -20.0040  -13.2430   16.8660 C.3   101  PHE101      0.1605
     35  C        -20.9060  -12.4480   15.9470 C.2   101  PHE101      0.2264
     36  O        -21.4880  -12.9990   15.0080 O.2   101  PHE101     -0.2867
     37  CB       -20.8070  -13.7170   18.0690 C.3   101  PHE101      0.0534
     38  CG       -21.9510  -14.6210   17.7030 C.ar  101  PHE101     -0.0203
     39  CD1      -21.7100  -15.8800   17.1740 C.ar  101  PHE101     -0.0042
     40  CD2      -23.2650  -14.2110   17.8760 C.ar  101  PHE101     -0.0042
     41  CE1      -22.7630  -16.7190   16.8340 C.ar  101  PHE101     -0.0003
     42  CE2      -24.3160  -15.0450   17.5420 C.ar  101  PHE101     -0.0003
     43  CZ       -24.0660  -16.2960   17.0200 C.ar  101  PHE101     -0.0000
     44  N        -19.5140  -12.6820   12.5630 N.3   104  GLN104     -0.1245
     45  CA       -19.8050  -14.0140   12.0330 C.3   104  GLN104      0.1566
     46  C        -21.2400  -14.0620   11.5250 C.2   104  GLN104      0.2260
     47  O        -21.5140  -14.5990   10.4480 O.2   104  GLN104     -0.2867
     48  CB       -19.6300  -15.0850   13.1070 C.3   104  GLN104      0.0367
     49  CG       -18.2040  -15.3410   13.5460 C.3   104  GLN104      0.0905
     50  CD       -18.0940  -16.5980   14.3890 C.2   104  GLN104      0.2608
     51  OE1      -18.7930  -17.5900   14.1480 O.2   104  GLN104     -0.2717
     52  NE2      -17.2380  -16.5560   15.4000 N.am  104  GLN104     -0.0878
     53  N        -21.7760  -14.5670    7.5560 N.3   108  THR108     -0.1218
     54  CA       -22.4040  -15.8380    7.2050 C.3   108  THR108      0.1862
     55  C        -23.7870  -15.6400    6.5740 C.2   108  THR108      0.2287
     56  O        -24.1330  -16.3040    5.5990 O.2   108  THR108     -0.2866
     57  CB       -22.4870  -16.7940    8.4100 C.3   108  THR108      0.1770
     58  OG1      -21.2050  -16.8780    9.0420 O.3   108  THR108     -0.2211
     59  CG2      -22.8940  -18.1910    7.9500 C.3   108  THR108      0.0375
     60  N        -28.8950  -27.5200    5.6270 N.3   138  SER138     -0.1202
     61  CA       -28.1650  -28.3500    6.5730 C.3   138  SER138      0.2020
     62  C        -29.1070  -28.8000    7.6510 C.2   138  SER138      0.2619
     63  O        -30.0290  -28.0720    7.9840 O.2   138  SER138     -0.2717
     64  CB       -27.0480  -27.5600    7.2420 C.3   138  SER138      0.2103
     65  OG       -26.4540  -28.3400    8.2670 O.3   138  SER138     -0.2182
     66  N        -28.8590  -29.9740    8.2270 N.am  139  ILE139     -0.1965
     67  CA       -29.6600  -30.3980    9.3700 C.3   139  ILE139      0.1727
     68  C        -29.4700  -29.4330   10.5340 C.2   139  ILE139      0.2616
     69  O        -30.3140  -29.3590   11.4270 O.2   139  ILE139     -0.2715
     70  CB       -29.3580  -31.8520    9.7990 C.3   139  ILE139      0.0290
     71  CG1      -30.5030  -32.4110   10.6390 C.3   139  ILE139      0.0022
     72  CG2      -28.0350  -31.9410   10.5490 C.3   139  ILE139      0.0023
     73  CD1      -31.7190  -32.7800    9.8200 C.3   139  ILE139      0.0001
     74  N        -28.3760  -28.6750   10.5080 N.am  140  MET140     -0.1977
     75  CA       -28.1740  -27.6040   11.4740 C.3   140  MET140      0.1605
     76  C        -29.3320  -26.6000   11.4640 C.2   140  MET140      0.2287
     77  O        -29.5590  -25.9100   12.4570 O.2   140  MET140     -0.2864
     78  CB       -26.8340  -26.9110   11.2290 C.3   140  MET140      0.0413
     79  CG       -25.6540  -27.8750   11.2610 C.3   140  MET140      0.0598
     80  SD       -25.1810  -28.2260   12.9570 S.3   140  MET140     -0.1393
     81  CE       -23.8480  -27.0380   13.1210 C.3   140  MET140      0.0692
     82  N        -27.6180  -20.2040   19.2750 N.3   189  SER189     -0.1202
     83  CA       -26.2180  -19.8260   19.4230 C.3   189  SER189      0.2020
     84  C        -25.3940  -19.9610   18.1460 C.2   189  SER189      0.2619
     85  O        -24.3040  -19.3990   18.0490 O.2   189  SER189     -0.2717
     86  CB       -25.5750  -20.6640   20.5310 C.3   189  SER189      0.2103
     87  OG       -25.6770  -22.0450   20.2380 O.3   189  SER189     -0.2182
     88  N        -25.8970  -20.7150   17.1770 N.am  190  SER190     -0.1937
     89  CA       -25.1630  -20.9370   15.9280 C.3   190  SER190      0.2055
     90  C        -25.6190  -19.9620   14.8450 C.2   190  SER190      0.2643
     91  O        -26.7530  -20.0480   14.3780 O.2   190  SER190     -0.2714
     92  CB       -25.3660  -22.3790   15.4490 C.3   190  SER190      0.2130
     93  OG       -24.8650  -22.5760   14.1260 O.3   190  SER190     -0.2179
     94  N        -24.7380  -19.0460   14.4440 N.am  191  ALA191     -0.1963
     95  CA       -25.0500  -18.1130   13.3640 C.3   191  ALA191      0.1728
     96  C        -25.2880  -18.9020   12.0860 C.2   191  ALA191      0.2616
     97  O        -26.2550  -18.6660   11.3660 O.2   191  ALA191     -0.2715
     98  CB       -23.9260  -17.1250   13.1620 C.3   191  ALA191      0.0334
     99  N        -24.3900  -19.8360   11.8110 N.am  192  TYR192     -0.1974
    100  CA       -24.5120  -20.6930   10.6350 C.3   192  TYR192      0.1639
    101  C        -25.8840  -21.3570   10.6090 C.2   192  TYR192      0.2290
    102  O        -26.5680  -21.3570    9.5830 O.2   192  TYR192     -0.2864
    103  CB       -23.4050  -21.7400   10.6730 C.3   192  TYR192      0.0560
    104  CG       -23.4950  -22.7910    9.5930 C.ar  192  TYR192     -0.0198
    105  CD1      -23.0760  -22.5220    8.2950 C.ar  192  TYR192     -0.0009
    106  CD2      -23.9730  -24.0630    9.8790 C.ar  192  TYR192     -0.0009
    107  CE1      -23.1440  -23.5080    7.3000 C.ar  192  TYR192      0.0417
    108  CE2      -24.0400  -25.0510    8.9010 C.ar  192  TYR192      0.0417
    109  CZ       -23.6250  -24.7700    7.6190 C.ar  192  TYR192      0.1957
    110  OH       -23.7100  -25.7630    6.6630 O.3   192  TYR192     -0.2866
    111  N        -25.6830  -34.2260    4.6800 N.3   227  GLY227     -0.1210
    112  CA       -25.0890  -34.9830    5.7690 C.3   227  GLY227      0.1956
    113  C        -23.7870  -34.3380    6.2120 C.2   227  GLY227      0.2611
    114  O        -23.4310  -33.2590    5.7380 O.2   227  GLY227     -0.2717
    115  N        -23.0620  -35.0050    7.1000 N.am  228  TRP228     -0.1976
    116  CA       -21.8420  -34.4450    7.6660 C.3   228  TRP228      0.1640
    117  C        -20.6830  -34.9050    6.7930 C.2   228  TRP228      0.2290
    118  O        -20.3370  -36.0910    6.7950 O.2   228  TRP228     -0.2864
    119  CB       -21.6880  -34.9530    9.0960 C.3   228  TRP228      0.0576
    120  CG       -20.5820  -34.3240    9.8830 C.ar  228  TRP228      0.0006
    121  CD1      -20.0360  -33.0920    9.6960 C.ar  228  TRP228      0.0946
    122  CD2      -19.8920  -34.9080   10.9900 C.ar  228  TRP228      0.0152
    123  NE1      -19.0470  -32.8680   10.6190 N.ar  228  TRP228     -0.2442
    124  CE2      -18.9350  -33.9770   11.4340 C.ar  228  TRP228      0.0810
    125  CE3      -19.9870  -36.1370   11.6610 C.ar  228  TRP228      0.0012
    126  CZ2      -18.0740  -34.2220   12.5020 C.ar  228  TRP228      0.0191
    127  CZ3      -19.1400  -36.3850   12.7250 C.ar  228  TRP228      0.0001
    128  CH2      -18.1920  -35.4300   13.1360 C.ar  228  TRP228      0.0015
    129  N        -14.8780  -27.3100    4.8910 N.3   233  MET233     -0.1230
    130  CA       -15.7960  -26.7050    5.8470 C.3   233  MET233      0.1702
    131  C        -15.8410  -27.5150    7.1310 C.2   233  MET233      0.2592
    132  O        -15.7040  -26.9700    8.2200 O.2   233  MET233     -0.2718
    133  CB       -17.2140  -26.5850    5.2680 C.3   233  MET233      0.0401
    134  CG       -18.1960  -25.9970    6.2750 C.3   233  MET233      0.0596
    135  SD       -19.8610  -25.6740    5.6570 S.3   233  MET233     -0.1393
    136  CE       -19.5610  -24.3590    4.4700 C.3   233  MET233      0.0692
    137  N        -16.0230  -28.8280    7.0030 N.am  234  ALA234     -0.1980
    138  CA       -16.2820  -29.6590    8.1820 C.3   234  ALA234      0.1597
    139  C        -15.0520  -30.3390    8.7660 C.2   234  ALA234      0.2287
    140  O        -15.0270  -30.6570    9.9530 O.2   234  ALA234     -0.2864
    141  CB       -17.3540  -30.6840    7.8960 C.3   234  ALA234      0.0319
@<TRIPOS>BOND
     1   136   135    1
     2   111   112    1
     3   129   130    1
     4   133   130    1
     5   133   134    1
     6    56    55    2
     7    60    61    1
     8   135   134    1
     9   114   113    2
    10   112   113    1
    11   130   131    1
    12   113   115   am
    13     1     2    1
    14    61    64    1
    15    61    62    1
    16    55    54    1
    17   110   109    1
    18   117   118    2
    19   117   116    1
    20   137   131   am
    21   137   138    1
    22   115   116    1
    23   131   132    2
    24    54    53    1
    25    54    57    1
    26    64    65    1
    27   107   109   ar
    28   107   105   ar
    29   109   108   ar
    30    62    63    2
    31    62    66   am
    32   116   119    1
    33   141   138    1
    34     2     5    1
    35     2     3    1
    36    59    57    1
    37     4     3    2
    38   138   139    1
    39    66    67    1
    40   105   104   ar
    41    57    58    1
    42     3     6   am
    43   139   140    2
    44    25    24    1
    45   108   106   ar
    46   119   120    1
    47    14    16   ar
    48    14    12   ar
    49    16    15   ar
    50    67    70    1
    51    67    68    1
    52   102   101    2
    53   104   106   ar
    54   104   103    1
    55   121   120   ar
    56   121   123   ar
    57     6     7    1
    58    24    23    1
    59    70    72    1
    60    70    71    1
    61    73    71    1
    62   120   122   ar
    63    12    11   ar
    64    15    13   ar
    65    47    46    2
    66    74    68   am
    67    74    75    1
    68    68    69    2
    69     7     8    1
    70     7    10    1
    71   101   100    1
    72   123   124   ar
    73   100   103    1
    74   100    99    1
    75    11    13   ar
    76    11    10    1
    77    23    22    1
    78   122   124   ar
    79   122   125   ar
    80    78    79    1
    81    78    75    1
    82    79    80    1
    83    97    96    2
    84     8     9    2
    85     8    17   am
    86   124   126   ar
    87    76    75    1
    88    76    77    2
    89    46    45    1
    90   125   127   ar
    91    22    21    1
    92    99    96   am
    93    17    18    1
    94    45    44    1
    95    45    48    1
    96    96    95    1
    97   126   128   ar
    98    18    21    1
    99    18    19    1
   100   127   128   ar
   101    80    81    1
   102    48    49    1
   103    98    95    1
   104    95    94    1
   105    49    50    1
   106    19    20    2
   107    19    26   am
   108    93    92    1
   109    51    50    2
   110    91    90    2
   111    50    52   am
   112    94    90   am
   113    26    27    1
   114    90    89    1
   115    36    35    2
   116    92    89    1
   117    32    30    1
   118    89    88    1
   119    35    34    1
   120    27    30    1
   121    27    28    1
   122    30    31    1
   123    41    43   ar
   124    41    39   ar
   125    34    33    1
   126    34    37    1
   127    28    29    2
   128    43    42   ar
   129    39    38   ar
   130    88    84   am
   131    42    40   ar
   132    38    40   ar
   133    38    37    1
   134    85    84    2
   135    84    83    1
   136    82    83    1
   137    83    86    1
   138    87    86    1
