@<TRIPOS>MOLECULE
tmp/4z3gB02.pdb
 87 81 0 0 0
SMALL
GASTEIGER

@<TRIPOS>ATOM
      1  N          1.0630   31.3230   22.5150 N.3    61  GLU61      -0.1245
      2  CA         0.3560   30.1710   21.9810 C.3    61  GLU61       0.1567
      3  C          0.2980   30.3670   20.4470 C.2    61  GLU61       0.2260
      4  O         -0.2710   31.3600   19.9670 O.2    61  GLU61      -0.2867
      5  CB        -1.0530   30.0140   22.5360 C.3    61  GLU61       0.0388
      6  CG        -1.8030   28.7950   22.0030 C.3    61  GLU61       0.1160
      7  CD        -3.2740   28.7570   22.3500 C.2    61  GLU61       0.3649
      8  OE1       -3.8140   27.6390   22.4950 O.co2  61  GLU61      -0.2457
      9  OE2       -3.9140   29.8370   22.3880 O.co2  61  GLU61      -0.2457
     10  N         -0.6390   28.5870   16.6460 N.3    63  ILE63      -0.1245
     11  CA        -1.3870   27.5510   15.9340 C.3    63  ILE63       0.1561
     12  C         -1.3230   27.8270   14.4350 C.2    63  ILE63       0.2260
     13  O         -1.7060   28.9160   13.9810 O.2    63  ILE63      -0.2867
     14  CB        -2.8680   27.4780   16.3830 C.3    63  ILE63       0.0252
     15  CG1       -2.9900   27.4000   17.9200 C.3    63  ILE63       0.0019
     16  CG2       -3.5980   26.3080   15.7010 C.3    63  ILE63       0.0019
     17  CD1       -4.4310   27.3850   18.4100 C.3    63  ILE63       0.0001
     18  N         -4.4150   18.3390   12.4780 N.3    91  SER91      -0.1217
     19  CA        -5.6460   18.0460   13.1850 C.3    91  SER91       0.1889
     20  C         -6.7910   18.5180   12.3180 C.2    91  SER91       0.2288
     21  O         -6.9250   19.7100   12.0930 O.2    91  SER91      -0.2866
     22  CB        -5.6510   18.7860   14.5180 C.3    91  SER91       0.2089
     23  OG        -6.8390   18.5210   15.2430 O.3    91  SER91      -0.2183
     24  N        -10.4300   19.3540   11.9440 N.3    93  GLU93      -0.1245
     25  CA       -11.4450   19.7720   12.9030 C.3    93  GLU93       0.1567
     26  C        -12.7220   20.3450   12.3020 C.2    93  GLU93       0.2260
     27  O        -12.7650   20.7000   11.1350 O.2    93  GLU93      -0.2867
     28  CB       -10.8150   20.8030   13.8330 C.3    93  GLU93       0.0388
     29  CG        -9.5350   20.3080   14.4810 C.3    93  GLU93       0.1160
     30  CD        -8.9450   21.2340   15.5290 C.2    93  GLU93       0.3649
     31  OE1       -9.5610   22.2790   15.8500 O.co2  93  GLU93      -0.2457
     32  OE2       -7.8680   20.8850   16.0560 O.co2  93  GLU93      -0.2457
     33  N         -5.4680   22.1580   11.6110 N.3   104  LEU104     -0.1231
     34  CA        -4.7020   22.9260   12.5940 C.3   104  LEU104      0.1693
     35  C         -3.4910   22.1850   13.1110 C.2   104  LEU104      0.2592
     36  O         -3.5010   20.9600   13.2160 O.2   104  LEU104     -0.2718
     37  CB        -5.5750   23.2930   13.8220 C.3   104  LEU104      0.0284
     38  CG        -6.6690   24.3610   13.5950 C.3   104  LEU104      0.0019
     39  CD1       -7.8390   23.8060   12.8010 C.3   104  LEU104      0.0001
     40  CD2       -7.2160   24.9130   14.9200 C.3   104  LEU104      0.0001
     41  N         -2.4330   22.9300   13.4690 N.am  105  LYS105     -0.1966
     42  CA        -1.2970   22.3570   14.1910 C.3   105  LYS105      0.1728
     43  C         -0.9220   23.3690   15.2820 C.2   105  LYS105      0.2616
     44  O         -0.2990   24.3990   14.9790 O.2   105  LYS105     -0.2715
     45  CB        -0.1120   22.0200   13.2960 C.3   105  LYS105      0.0311
     46  CG         1.1330   21.5430   14.0650 C.3   105  LYS105      0.0038
     47  CD         0.9180   20.3500   15.0340 C.3   105  LYS105      0.0206
     48  CE         0.4350   19.0960   14.3600 C.3   105  LYS105      0.1093
     49  NZ         1.4500   18.5770   13.4000 N.3   105  LYS105     -0.1314
     50  N         -1.3080   23.0730   16.5210 N.am  106  GLY106     -0.1955
     51  CA        -0.9770   23.8750   17.6970 C.3   106  GLY106      0.1869
     52  C          0.3450   23.3650   18.2240 C.2   106  GLY106      0.2309
     53  O          0.4080   22.2790   18.8260 O.2   106  GLY106     -0.2863
     54  N          2.4950   26.5440   23.2730 N.3   109  TRP109     -0.1241
     55  CA         1.4850   26.9390   24.2390 C.3   109  TRP109      0.1605
     56  C          2.1300   27.1620   25.5830 C.2   109  TRP109      0.2264
     57  O          3.1550   26.5510   25.8790 O.2   109  TRP109     -0.2867
     58  CB         0.3820   25.8790   24.3550 C.3   109  TRP109      0.0550
     59  CG         0.8710   24.5060   24.7610 C.ar  109  TRP109      0.0003
     60  CD1        0.9260   24.0090   26.0260 C.ar  109  TRP109      0.0946
     61  CD2        1.4100   23.4890   23.9060 C.ar  109  TRP109      0.0152
     62  NE1        1.4630   22.7470   26.0180 N.ar  109  TRP109     -0.2442
     63  CE2        1.7210   22.3800   24.7230 C.ar  109  TRP109      0.0810
     64  CE3        1.5750   23.3680   22.5170 C.ar  109  TRP109      0.0012
     65  CZ2        2.2530   21.1990   24.2070 C.ar  109  TRP109      0.0191
     66  CZ3        2.0320   22.1630   22.0030 C.ar  109  TRP109      0.0001
     67  CH2        2.3940   21.1080   22.8480 C.ar  109  TRP109      0.0015
     68  N         -5.5950   30.1360   26.2670 N.3   172  ARG172     -0.1245
     69  CA        -6.0270   29.3990   25.1020 C.3   172  ARG172      0.1563
     70  C         -6.9540   30.2540   24.2730 C.2   172  ARG172      0.2260
     71  O         -7.9160   30.8180   24.7910 O.2   172  ARG172     -0.2867
     72  CB        -6.7750   28.0980   25.4900 C.3   172  ARG172      0.0307
     73  CG        -5.9690   27.0860   26.3260 C.3   172  ARG172      0.0489
     74  CD        -5.0240   26.2430   25.4970 C.3   172  ARG172      0.2205
     75  NE        -4.2660   25.3440   26.3670 N.pl3 172  ARG172     -0.0865
     76  CZ        -3.1730   25.6670   27.0460 C.cat 172  ARG172      0.5346
     77  NH1       -2.6550   26.8850   26.9500 N.pl3 172  ARG172      0.1354
     78  NH2       -2.5890   24.7740   27.8370 N.pl3 172  ARG172      0.1354
     79  N         -8.5520   29.9860   20.0750 N.3   174  LYS174     -0.1245
     80  CA        -8.5370   29.4390   18.7360 C.3   174  LYS174      0.1561
     81  C         -9.4760   30.3420   17.9560 C.2   174  LYS174      0.2260
     82  O        -10.6290   30.5530   18.3870 O.2   174  LYS174     -0.2867
     83  CB        -9.0280   27.9900   18.7430 C.3   174  LYS174      0.0271
     84  CG        -8.9870   27.3100   17.4080 C.3   174  LYS174      0.0035
     85  CD        -9.5870   25.9130   17.5050 C.3   174  LYS174      0.0206
     86  CE        -8.7180   24.9540   18.2640 C.3   174  LYS174      0.1093
     87  NZ        -9.3440   23.6320   18.3530 N.3   174  LYS174     -0.1314
@<TRIPOS>BOND
     1    27    26    2
     2    33    34    1
     3    24    25    1
     4    21    20    2
     5    26    25    1
     6    20    19    1
     7    18    19    1
     8    34    35    1
     9    34    37    1
    10    39    38    1
    11    25    28    1
    12    35    36    2
    13    35    41   am
    14    19    22    1
    15    45    46    1
    16    45    42    1
    17    49    48    1
    18    41    42    1
    19    38    37    1
    20    38    40    1
    21    28    29    1
    22    13    12    2
    23    46    47    1
    24    42    43    1
    25    48    47    1
    26    12    11    1
    27    29    30    1
    28    22    23    1
    29    44    43    2
    30    43    50   am
    31    30    31   ar
    32    30    32   ar
    33    16    14    1
    34    11    14    1
    35    11    10    1
    36    14    15    1
    37    50    51    1
    38    84    85    1
    39    84    83    1
    40    85    86    1
    41    51    52    1
    42    15    17    1
    43    81    82    2
    44    81    80    1
    45    52    53    2
    46    86    87    1
    47    80    83    1
    48    80    79    1
    49     4     3    2
    50     3     2    1
    51     2     1    1
    52     2     5    1
    53     6     7    1
    54     6     5    1
    55    66    64   ar
    56    66    67   ar
    57     7     9   ar
    58     7     8   ar
    59    64    61   ar
    60    67    65   ar
    61    54    55    1
    62    61    63   ar
    63    61    59   ar
    64    65    63   ar
    65    55    58    1
    66    55    56    1
    67    70    71    2
    68    70    69    1
    69    58    59    1
    70    63    62   ar
    71    59    60   ar
    72    69    72    1
    73    69    68    1
    74    72    73    1
    75    74    73    1
    76    74    75    1
    77    56    57    2
    78    62    60   ar
    79    75    76    2
    80    77    76    1
    81    76    78    1
