@<TRIPOS>MOLECULE
tmp/4z3gB00.pdb
 76 76 0 0 0
SMALL
GASTEIGER

@<TRIPOS>ATOM
      1  N        -15.9270   24.9510  -11.4150 N.3    74  THR74      -0.1203
      2  CA       -15.1160   25.1850  -12.6050 C.3    74  THR74       0.1994
      3  C        -15.6470   26.4780  -13.2690 C.2    74  THR74       0.2618
      4  O        -16.7870   26.9140  -12.9980 O.2    74  THR74      -0.2717
      5  CB       -15.2200   24.0350  -13.6080 C.3    74  THR74       0.1784
      6  OG1      -16.5750   23.9060  -14.0550 O.3    74  THR74      -0.2211
      7  CG2      -14.7080   22.7140  -13.0550 C.3    74  THR74       0.0376
      8  N        -14.8600   27.0370  -14.1980 N.am   75  LYS75      -0.1965
      9  CA       -15.2720   28.2620  -14.8990 C.3    75  LYS75       0.1728
     10  C        -16.4880   28.0190  -15.7880 C.2    75  LYS75       0.2616
     11  O        -17.3050   28.9300  -15.9560 O.2    75  LYS75      -0.2715
     12  CB       -14.1210   28.8870  -15.6940 C.3    75  LYS75       0.0311
     13  CG       -12.9380   29.3240  -14.8410 C.3    75  LYS75       0.0038
     14  CD       -11.7840   29.8180  -15.7010 C.3    75  LYS75       0.0206
     15  CE       -10.5560   30.1730  -14.9020 C.3    75  LYS75       0.1093
     16  NZ        -9.4290   30.5550  -15.7890 N.3    75  LYS75      -0.1314
     17  N        -16.6510   26.7700  -16.2890 N.am   76  ASN76      -0.1972
     18  CA       -17.8310   26.3770  -17.0550 C.3    76  ASN76       0.1688
     19  C        -19.0450   25.9240  -16.1880 C.2    76  ASN76       0.2292
     20  O        -20.0500   25.4830  -16.7460 O.2    76  ASN76      -0.2864
     21  CB       -17.4850   25.3920  -18.1850 C.3    76  ASN76       0.1181
     22  CG       -17.0740   24.0320  -17.7280 C.2    76  ASN76       0.2629
     23  OD1      -16.7020   23.8460  -16.5750 O.2    76  ASN76      -0.2716
     24  ND2      -17.0740   23.0690  -18.6320 N.am   76  ASN76      -0.0877
     25  N        -18.2990   18.3530  -18.6010 N.3   147  PRO147     -0.2102
     26  CA       -18.0210   18.3210  -20.0450 C.3   147  PRO147      0.1504
     27  C        -16.5840   17.8950  -20.3400 C.2   147  PRO147      0.2576
     28  O        -15.6660   18.2080  -19.5600 O.2   147  PRO147     -0.2718
     29  CB       -18.2690   19.7600  -20.4730 C.3   147  PRO147      0.0282
     30  CG       -19.2760   20.2700  -19.5010 C.3   147  PRO147      0.0208
     31  CD       -18.7890   19.6790  -18.1930 C.3   147  PRO147      0.0893
     32  N        -16.3720   17.2260  -21.4780 N.am  148  LEU148     -0.1966
     33  CA       -15.0190   16.8230  -21.8880 C.3   148  LEU148      0.1728
     34  C        -14.1810   18.0660  -22.2050 C.2   148  LEU148      0.2617
     35  O        -14.7100   19.0950  -22.6470 O.2   148  LEU148     -0.2715
     36  CB       -15.0790   16.0090  -23.1890 C.3   148  LEU148      0.0311
     37  CG       -15.9140   14.7330  -23.1980 C.3   148  LEU148      0.0022
     38  CD1      -15.8900   14.0780  -24.5750 C.3   148  LEU148      0.0001
     39  CD2      -15.4480   13.7990  -22.1500 C.3   148  LEU148      0.0001
     40  N        -12.8750   17.9240  -22.0220 N.am  149  GLY149     -0.1940
     41  CA       -11.9100   18.9430  -22.4030 C.3   149  GLY149      0.2014
     42  C        -10.9350   19.3200  -21.3200 C.2   149  GLY149      0.2639
     43  O        -10.8670   18.6790  -20.2720 O.2   149  GLY149     -0.2714
     44  N        -10.1150   20.3350  -21.6140 N.am  150  ASP150     -0.1957
     45  CA        -9.0780   20.8000  -20.7140 C.3   150  ASP150      0.1840
     46  C         -9.6480   21.6840  -19.6240 C.2   150  ASP150      0.2622
     47  O        -10.4930   22.5410  -19.9130 O.2   150  ASP150     -0.2715
     48  CB        -8.0220   21.6010  -21.4930 C.3   150  ASP150      0.1450
     49  CG        -7.2030   20.8100  -22.4990 C.2   150  ASP150      0.3671
     50  OD1       -7.1790   19.5670  -22.4060 O.co2 150  ASP150     -0.2456
     51  OD2       -6.5370   21.4400  -23.3470 O.co2 150  ASP150     -0.2456
     52  N         -9.1580   21.4990  -18.3960 N.am  151  TYR151     -0.1960
     53  CA        -9.5880   22.2910  -17.2500 C.3   151  TYR151      0.1771
     54  C         -8.4080   22.8960  -16.5600 C.2   151  TYR151      0.2620
     55  O         -7.3690   22.2490  -16.4310 O.2   151  TYR151     -0.2715
     56  CB       -10.3380   21.4260  -16.2200 C.3   151  TYR151      0.0574
     57  CG       -11.7410   21.1020  -16.6720 C.ar  151  TYR151     -0.0198
     58  CD1      -11.9760   20.0840  -17.5750 C.ar  151  TYR151     -0.0009
     59  CD2      -12.7980   21.9420  -16.3630 C.ar  151  TYR151     -0.0009
     60  CE1      -13.2560   19.8410  -18.0830 C.ar  151  TYR151      0.0417
     61  CE2      -14.0850   21.6900  -16.8250 C.ar  151  TYR151      0.0417
     62  CZ       -14.3120   20.6560  -17.7090 C.ar  151  TYR151      0.1957
     63  OH       -15.5720   20.5010  -18.2240 O.3   151  TYR151     -0.2866
     64  N         -8.5800   24.1600  -16.1110 N.am  152  SER152     -0.1936
     65  CA        -7.6340   24.9250  -15.3350 C.3   152  SER152      0.2055
     66  C         -8.4090   25.4370  -14.1580 C.2   152  SER152      0.2642
     67  O         -9.1610   26.4100  -14.3140 O.2   152  SER152     -0.2714
     68  CB        -7.1510   26.1240  -16.1470 C.3   152  SER152      0.2130
     69  OG        -6.2860   25.6960  -17.1720 O.3   152  SER152     -0.2179
     70  N         -8.3040   24.7640  -12.9970 N.am  153  VAL153     -0.1977
     71  CA        -9.1390   25.1210  -11.8630 C.3   153  VAL153      0.1596
     72  C         -8.3350   25.8250  -10.7900 C.2   153  VAL153      0.2287
     73  O         -7.4370   25.2270  -10.2040 O.2   153  VAL153     -0.2864
     74  CB        -9.8380   23.8710  -11.3100 C.3   153  VAL153      0.0276
     75  CG1      -10.8620   24.2740  -10.2490 C.3   153  VAL153      0.0022
     76  CG2      -10.5140   23.0810  -12.4310 C.3   153  VAL153      0.0022
@<TRIPOS>BOND
     1    38    37    1
     2    51    49   ar
     3    37    36    1
     4    37    39    1
     5    36    33    1
     6    35    34    2
     7    49    50   ar
     8    49    48    1
     9    41    40    1
    10    41    42    1
    11    34    40   am
    12    34    33    1
    13    33    32    1
    14    44    42   am
    15    44    45    1
    16    48    45    1
    17    32    27   am
    18    42    43    2
    19    45    46    1
    20    29    26    1
    21    29    30    1
    22    27    26    1
    23    27    28    2
    24    26    25    1
    25    47    46    2
    26    46    52   am
    27    30    31    1
    28    24    22   am
    29    25    31    1
    30    52    53    1
    31    63    62    1
    32    21    22    1
    33    21    18    1
    34    60    62   ar
    35    60    58   ar
    36    22    23    2
    37    62    61   ar
    38    58    57   ar
    39    53    54    1
    40    53    56    1
    41    69    68    1
    42    18    17    1
    43    18    19    1
    44    61    59   ar
    45    20    19    2
    46    57    59   ar
    47    57    56    1
    48    54    55    2
    49    54    64   am
    50    17    10   am
    51    68    65    1
    52    64    65    1
    53    11    10    2
    54    16    15    1
    55    10     9    1
    56    14    15    1
    57    14    13    1
    58    12     9    1
    59    12    13    1
    60    65    66    1
    61     9     8    1
    62    67    66    2
    63     8     3   am
    64    66    70   am
    65     6     5    1
    66     5     7    1
    67     5     2    1
    68     3     4    2
    69     3     2    1
    70    70    71    1
    71     2     1    1
    72    76    74    1
    73    71    74    1
    74    71    72    1
    75    74    75    1
    76    72    73    2
