@<TRIPOS>MOLECULE
tmp/4z3nA00.pdb
 186 172 0 0 0
SMALL
GASTEIGER

@<TRIPOS>ATOM
      1  N         -3.2050  -27.4030  -30.3880 N.3   233  ILE233     -0.1245
      2  CA        -2.8350  -26.1650  -31.0460 C.3   233  ILE233      0.1561
      3  C         -2.4390  -26.4660  -32.4930 C.2   233  ILE233      0.2260
      4  O         -2.8730  -25.7760  -33.4090 O.2   233  ILE233     -0.2867
      5  CB        -1.6900  -25.4390  -30.3190 C.3   233  ILE233      0.0252
      6  CG1       -2.1710  -24.9040  -28.9750 C.3   233  ILE233      0.0019
      7  CG2       -1.1730  -24.2870  -31.1570 C.3   233  ILE233      0.0019
      8  CD1       -1.0470  -24.3290  -28.1100 C.3   233  ILE233      0.0001
      9  N         -5.5480  -27.1940  -34.5220 N.3   236  GLY236     -0.1210
     10  CA        -6.3230  -25.9970  -34.7590 C.3   236  GLY236      0.1956
     11  C         -5.7100  -25.2340  -35.9070 C.2   236  GLY236      0.2611
     12  O         -6.4180  -24.5500  -36.6440 O.2   236  GLY236     -0.2717
     13  N         -4.3890  -25.3510  -36.0580 N.am  237  ILE237     -0.1979
     14  CA        -3.6940  -24.7050  -37.1780 C.3   237  ILE237      0.1595
     15  C         -3.8970  -25.4810  -38.4810 C.2   237  ILE237      0.2287
     16  O         -3.8420  -24.9080  -39.5560 O.2   237  ILE237     -0.2864
     17  CB        -2.1860  -24.5470  -36.9210 C.3   237  ILE237      0.0276
     18  CG1       -1.9520  -23.5480  -35.7860 C.3   237  ILE237      0.0022
     19  CG2       -1.4960  -24.0530  -38.1850 C.3   237  ILE237      0.0022
     20  CD1       -0.4980  -23.3140  -35.4340 C.3   237  ILE237      0.0001
     21  N         -6.8810  -27.2170  -39.1500 N.3   239  ILE239     -0.1231
     22  CA        -8.2620  -26.9150  -39.5090 C.3   239  ILE239      0.1692
     23  C         -8.3590  -25.5200  -40.0870 C.2   239  ILE239      0.2592
     24  O         -9.1970  -25.2570  -40.9450 O.2   239  ILE239     -0.2718
     25  CB        -9.1960  -27.0310  -38.2940 C.3   239  ILE239      0.0266
     26  CG1       -9.2720  -28.4950  -37.8470 C.3   239  ILE239      0.0019
     27  CG2      -10.5700  -26.3960  -38.5910 C.3   239  ILE239      0.0020
     28  CD1       -9.8480  -28.7060  -36.4710 C.3   239  ILE239      0.0001
     29  N         -7.4920  -24.6310  -39.6030 N.am  240  TYR240     -0.1976
     30  CA        -7.4000  -23.2630  -40.1090 C.3   240  TYR240      0.1639
     31  C         -6.8240  -23.2400  -41.5210 C.2   240  TYR240      0.2290
     32  O         -7.3150  -22.5300  -42.4010 O.2   240  TYR240     -0.2864
     33  CB        -6.5360  -22.4130  -39.1830 C.3   240  TYR240      0.0560
     34  CG        -6.4780  -20.9370  -39.5130 C.ar  240  TYR240     -0.0198
     35  CD1       -7.4980  -20.0850  -39.1360 C.ar  240  TYR240     -0.0009
     36  CD2       -5.3780  -20.3950  -40.1610 C.ar  240  TYR240     -0.0009
     37  CE1       -7.4420  -18.7290  -39.4080 C.ar  240  TYR240      0.0417
     38  CE2       -5.3090  -19.0410  -40.4460 C.ar  240  TYR240      0.0417
     39  CZ        -6.3450  -18.2070  -40.0600 C.ar  240  TYR240      0.1957
     40  OH        -6.2820  -16.8520  -40.3350 O.3   240  TYR240     -0.2866
     41  N         -0.9310  -16.1450  -44.5960 N.3   255  PHE255     -0.1241
     42  CA        -0.6670  -16.7710  -43.3060 C.3   255  PHE255      0.1605
     43  C          0.7690  -17.2610  -43.1870 C.2   255  PHE255      0.2264
     44  O          1.3640  -17.1790  -42.1220 O.2   255  PHE255     -0.2867
     45  CB        -1.6440  -17.9320  -43.0970 C.3   255  PHE255      0.0534
     46  CG        -1.5550  -18.5890  -41.7560 C.ar  255  PHE255     -0.0203
     47  CD1       -1.2300  -17.8670  -40.6270 C.ar  255  PHE255     -0.0042
     48  CD2       -1.8280  -19.9430  -41.6260 C.ar  255  PHE255     -0.0042
     49  CE1       -1.1690  -18.4880  -39.3830 C.ar  255  PHE255     -0.0003
     50  CE2       -1.7660  -20.5720  -40.3930 C.ar  255  PHE255     -0.0003
     51  CZ        -1.4340  -19.8440  -39.2700 C.ar  255  PHE255     -0.0000
     52  N          3.5880  -13.2690  -36.0530 N.3   262  ASP262     -0.1239
     53  CA         2.5280  -13.4590  -35.0780 C.3   262  ASP262      0.1674
     54  C          3.0650  -14.2470  -33.8860 C.2   262  ASP262      0.2266
     55  O          2.6350  -14.0610  -32.7460 O.2   262  ASP262     -0.2867
     56  CB         1.3320  -14.1770  -35.7140 C.3   262  ASP262      0.1410
     57  CG         0.4790  -13.2450  -36.5930 C.2   262  ASP262      0.3668
     58  OD1        0.2540  -12.0720  -36.1670 O.co2 262  ASP262     -0.2456
     59  OD2        0.0320  -13.7000  -37.6850 O.co2 262  ASP262     -0.2456
     60  N          3.9420  -13.1670  -29.4890 N.3   266  ILE266     -0.1245
     61  CA         3.3360  -13.9650  -28.4460 C.3   266  ILE266      0.1561
     62  C          4.3880  -14.4690  -27.4400 C.2   266  ILE266      0.2260
     63  O          4.0470  -14.9240  -26.3420 O.2   266  ILE266     -0.2867
     64  CB         2.5380  -15.1160  -29.1180 C.3   266  ILE266      0.0252
     65  CG1        1.3660  -14.5400  -29.9040 C.3   266  ILE266      0.0019
     66  CG2        2.1360  -16.2240  -28.1490 C.3   266  ILE266      0.0019
     67  CD1        0.6900  -15.5510  -30.8030 C.3   266  ILE266      0.0001
     68  N          4.8650  -16.2750  -23.3120 N.3   270  LEU270     -0.1245
     69  CA         5.3910  -17.6030  -23.0050 C.3   270  LEU270      0.1561
     70  C          6.4720  -17.5020  -21.9270 C.2   270  LEU270      0.2260
     71  O          6.5950  -18.3790  -21.0740 O.2   270  LEU270     -0.2867
     72  CB         5.9470  -18.2810  -24.2610 C.3   270  LEU270      0.0270
     73  CG         4.9650  -18.6110  -25.3940 C.3   270  LEU270      0.0019
     74  CD1        5.6760  -19.3200  -26.5130 C.3   270  LEU270      0.0001
     75  CD2        3.8270  -19.4500  -24.9000 C.3   270  LEU270      0.0001
     76  N         -5.9590   -9.8780  -42.2440 N.3   338  GLN338     -0.1245
     77  CA        -5.8810  -10.8780  -41.1830 C.3   338  GLN338      0.1566
     78  C         -5.3700  -10.2350  -39.8970 C.2   338  GLN338      0.2260
     79  O         -5.9540  -10.3890  -38.8060 O.2   338  GLN338     -0.2867
     80  CB        -4.9520  -12.0280  -41.5950 C.3   338  GLN338      0.0367
     81  CG        -4.7870  -13.0960  -40.5430 C.3   338  GLN338      0.0905
     82  CD        -3.7000  -14.1130  -40.8440 C.2   338  GLN338      0.2608
     83  OE1       -3.9770  -15.1980  -41.3590 O.2   338  GLN338     -0.2717
     84  NE2       -2.4610  -13.7870  -40.4820 N.am  338  GLN338     -0.0878
     85  N         -7.5450   -9.9130  -36.5790 N.3   342  MET342     -0.1230
     86  CA        -7.2060  -10.8490  -35.5070 C.3   342  MET342      0.1702
     87  C         -6.1540  -10.4010  -34.4840 C.2   342  MET342      0.2592
     88  O         -6.0380  -11.0130  -33.4200 O.2   342  MET342     -0.2718
     89  CB        -6.7200  -12.1680  -36.1250 C.3   342  MET342      0.0401
     90  CG        -7.7120  -12.8520  -37.0540 C.3   342  MET342      0.0596
     91  SD        -7.0240  -14.3400  -37.8170 S.3   342  MET342     -0.1393
     92  CE        -7.0750  -15.4630  -36.4190 C.3   342  MET342      0.0692
     93  N         -5.3990   -9.3490  -34.7880 N.am  343  ALA343     -0.1980
     94  CA        -4.2330   -9.0010  -33.9720 C.3   343  ALA343      0.1597
     95  C         -4.5760   -8.6560  -32.5260 C.2   343  ALA343      0.2287
     96  O         -3.8840   -9.0790  -31.6070 O.2   343  ALA343     -0.2864
     97  CB        -3.4760   -7.8510  -34.5950 C.3   343  ALA343      0.0319
     98  N         -6.8260   -9.7760  -30.7800 N.3   345  ALA345     -0.1231
     99  CA        -7.1750  -10.9760  -30.0330 C.3   345  ALA345      0.1694
    100  C         -5.9550  -11.4870  -29.2770 C.2   345  ALA345      0.2591
    101  O         -6.0900  -12.0350  -28.1860 O.2   345  ALA345     -0.2718
    102  CB        -7.7170  -12.0500  -30.9370 C.3   345  ALA345      0.0304
    103  N         -4.7670  -11.2690  -29.8350 N.am  346  LEU346     -0.1980
    104  CA        -3.5530  -11.8600  -29.2810 C.3   346  LEU346      0.1596
    105  C         -3.3510  -11.6190  -27.7730 C.2   346  LEU346      0.2287
    106  O         -3.0700  -12.5660  -27.0430 O.2   346  LEU346     -0.2864
    107  CB        -2.3320  -11.3780  -30.0600 C.3   346  LEU346      0.0297
    108  CG        -2.1190  -12.1460  -31.3710 C.3   346  LEU346      0.0022
    109  CD1       -1.1510  -11.4390  -32.2890 C.3   346  LEU346      0.0001
    110  CD2       -1.6230  -13.5550  -31.1040 C.3   346  LEU346      0.0001
    111  N         -5.3650  -13.7870  -25.6790 N.3   349  VAL349     -0.1245
    112  CA        -4.8440  -15.1460  -25.5650 C.3   349  VAL349      0.1561
    113  C         -4.1310  -15.3510  -24.2130 C.2   349  VAL349      0.2260
    114  O         -4.1550  -16.4480  -23.6420 O.2   349  VAL349     -0.2867
    115  CB        -3.8700  -15.4770  -26.7530 C.3   349  VAL349      0.0252
    116  CG1       -3.2610  -16.8870  -26.6260 C.3   349  VAL349      0.0019
    117  CG2       -4.5820  -15.3320  -28.0810 C.3   349  VAL349      0.0019
    118  N         -4.3180  -18.6800  -21.7800 N.3   353  LEU353     -0.1245
    119  CA        -3.0500  -19.4030  -21.8000 C.3   353  LEU353      0.1561
    120  C         -2.3060  -19.4080  -20.4310 C.2   353  LEU353      0.2260
    121  O         -1.7460  -20.4330  -20.0360 O.2   353  LEU353     -0.2867
    122  CB        -2.1560  -18.8510  -22.9000 C.3   353  LEU353      0.0270
    123  CG        -0.8780  -19.6650  -23.0820 C.3   353  LEU353      0.0019
    124  CD1       -0.6710  -19.9250  -24.5270 C.3   353  LEU353      0.0001
    125  CD2        0.3530  -18.9660  -22.4980 C.3   353  LEU353      0.0001
    126  N        -10.2710  -22.7590  -26.5860 N.3   375  ARG375     -0.1231
    127  CA        -9.6610  -21.7280  -27.4340 C.3   375  ARG375      0.1694
    128  C         -9.4880  -22.1510  -28.8980 C.2   375  ARG375      0.2592
    129  O         -9.8010  -21.3840  -29.7940 O.2   375  ARG375     -0.2718
    130  CB        -8.3070  -21.2700  -26.8640 C.3   375  ARG375      0.0321
    131  CG        -7.8500  -19.9360  -27.4470 C.3   375  ARG375      0.0489
    132  CD        -6.5410  -19.3820  -26.8740 C.3   375  ARG375      0.2205
    133  NE        -5.4160  -20.3160  -26.9430 N.pl3 375  ARG375     -0.0865
    134  CZ        -4.8570  -20.9010  -25.8810 C.cat 375  ARG375      0.5346
    135  NH1       -5.3170  -20.6380  -24.6660 N.pl3 375  ARG375      0.1354
    136  NH2       -3.8370  -21.7510  -26.0350 N.pl3 375  ARG375      0.1354
    137  N         -8.9540  -23.3440  -29.1420 N.am  376  HIS376     -0.1976
    138  CA        -8.6650  -23.7730  -30.5170 C.3   376  HIS376      0.1656
    139  C         -9.6860  -24.6630  -31.2450 C.2   376  HIS376      0.2291
    140  O         -9.5630  -24.8420  -32.4450 O.2   376  HIS376     -0.2864
    141  CB        -7.3100  -24.4840  -30.5460 C.3   376  HIS376      0.0771
    142  CG        -6.1550  -23.5800  -30.2480 C.ar  376  HIS376      0.0820
    143  ND1       -5.6120  -23.4510  -28.9900 N.ar  376  HIS376     -0.2267
    144  CD2       -5.4680  -22.7240  -31.0410 C.ar  376  HIS376      0.1154
    145  CE1       -4.6260  -22.5710  -29.0220 C.ar  376  HIS376      0.1986
    146  NE2       -4.5200  -22.1150  -30.2560 N.ar  376  HIS376     -0.2212
    147  N        -14.3770  -22.0670  -32.2350 N.3   380  SER380     -0.1202
    148  CA       -13.8100  -21.7060  -33.5290 C.3   380  SER380      0.2020
    149  C        -14.3600  -22.4810  -34.7220 C.2   380  SER380      0.2618
    150  O        -14.7710  -21.8730  -35.7160 O.2   380  SER380     -0.2717
    151  CB       -12.2940  -21.8910  -33.4870 C.3   380  SER380      0.2103
    152  OG       -11.6900  -20.9020  -32.6720 O.3   380  SER380     -0.2182
    153  N        -14.3680  -23.8110  -34.6390 N.am  381  VAL381     -0.1979
    154  CA       -14.8010  -24.6310  -35.7750 C.3   381  VAL381      0.1595
    155  C        -16.2590  -24.3540  -36.1890 C.2   381  VAL381      0.2287
    156  O        -16.5170  -24.0130  -37.3380 O.2   381  VAL381     -0.2864
    157  CB       -14.6210  -26.1320  -35.4820 C.3   381  VAL381      0.0276
    158  CG1      -15.4010  -26.9650  -36.4650 C.3   381  VAL381      0.0022
    159  CG2      -13.1540  -26.4990  -35.5410 C.3   381  VAL381      0.0022
    160  N        -16.6220  -20.6380  -37.4390 N.3   384  VAL384     -0.1245
    161  CA       -15.9960  -20.4050  -38.7230 C.3   384  VAL384      0.1561
    162  C        -16.8990  -20.9420  -39.8070 C.2   384  VAL384      0.2260
    163  O        -17.1400  -20.2690  -40.8120 O.2   384  VAL384     -0.2867
    164  CB       -14.6160  -21.0700  -38.8350 C.3   384  VAL384      0.0252
    165  CG1      -14.2480  -21.2830  -40.3010 C.3   384  VAL384      0.0019
    166  CG2      -13.5780  -20.2260  -38.1370 C.3   384  VAL384      0.0019
    167  N        -12.3010  -17.6950  -36.1750 N.3   402  ALA402     -0.1231
    168  CA       -11.1560  -18.3440  -35.5640 C.3   402  ALA402      0.1694
    169  C        -10.7540  -17.6870  -34.2460 C.2   402  ALA402      0.2591
    170  O        -10.3110  -18.3700  -33.3220 O.2   402  ALA402     -0.2718
    171  CB        -9.9840  -18.3520  -36.5370 C.3   402  ALA402      0.0304
    172  N        -10.9250  -16.3720  -34.1440 N.am  403  MET403     -0.1979
    173  CA       -10.5460  -15.6690  -32.9190 C.3   403  MET403      0.1605
    174  C        -11.6560  -15.6710  -31.8410 C.2   403  MET403      0.2287
    175  O        -11.4220  -15.3100  -30.6910 O.2   403  MET403     -0.2864
    176  CB       -10.1150  -14.2310  -33.2500 C.3   403  MET403      0.0413
    177  CG       -11.2340  -13.2680  -33.6010 C.3   403  MET403      0.0598
    178  SD       -10.6020  -11.5890  -33.8790 S.3   403  MET403     -0.1393
    179  CE       -12.1440  -10.7460  -34.2370 C.3   403  MET403      0.0692
    180  N        -10.8570  -17.4670  -28.5910 N.3   406  THR406     -0.1218
    181  CA        -9.9970  -16.7270  -27.6700 C.3   406  THR406      0.1862
    182  C        -10.8180  -15.8780  -26.7200 C.2   406  THR406      0.2287
    183  O        -10.4160  -15.6040  -25.5850 O.2   406  THR406     -0.2866
    184  CB        -8.9780  -15.8170  -28.4460 C.3   406  THR406      0.1770
    185  OG1       -7.9120  -16.6270  -28.9550 O.3   406  THR406     -0.2211
    186  CG2       -8.3800  -14.7300  -27.5420 C.3   406  THR406      0.0375
@<TRIPOS>BOND
     1    41    42    1
     2    42    43    1
     3    42    45    1
     4    43    44    2
     5    45    46    1
     6    32    31    2
     7    76    77    1
     8    46    48   ar
     9    46    47   ar
    10    48    50   ar
    11    80    77    1
    12    80    81    1
    13    31    30    1
    14    83    82    2
    15    77    78    1
    16    24    23    2
    17    82    81    1
    18    82    84   am
    19   163   162    2
    20    47    49   ar
    21    38    36   ar
    22    38    39   ar
    23    50    51   ar
    24    40    39    1
    25   165   164    1
    26    36    34   ar
    27    30    29    1
    28    30    33    1
    29    23    29   am
    30    23    22    1
    31    39    37   ar
    32    78    79    2
    33   162   161    1
    34    16    15    2
    35    34    33    1
    36    34    35   ar
    37    22    21    1
    38    22    25    1
    39    37    35   ar
    40    49    51   ar
    41   164   161    1
    42   164   166    1
    43   161   160    1
    44    27    25    1
    45    15    14    1
    46    25    26    1
    47    19    17    1
    48    26    28    1
    49    91    90    1
    50    91    92    1
    51    59    57   ar
    52   156   155    2
    53    14    17    1
    54    14    13    1
    55    90    89    1
    56    17    18    1
    57    12    11    2
    58    57    58   ar
    59    57    56    1
    60    85    86    1
    61   171   168    1
    62   158   157    1
    63   155   154    1
    64   167   168    1
    65    89    86    1
    66    13    11   am
    67    52    53    1
    68    11    10    1
    69    18    20    1
    70   154   157    1
    71   154   153    1
    72   150   149    2
    73    56    53    1
    74   168   169    1
    75   159   157    1
    76    86    87    1
    77    53    54    1
    78    93    87   am
    79    93    94    1
    80    10     9    1
    81   149   153   am
    82   149   148    1
    83    97    94    1
    84    87    88    2
    85   169   172   am
    86   169   170    2
    87   179   178    1
    88   172   173    1
    89    94    95    1
    90    54    55    2
    91   178   177    1
    92   177   176    1
    93   148   151    1
    94   148   147    1
    95   151   152    1
    96     4     3    2
    97   176   173    1
    98   173   174    1
    99    95    96    2
   100     3     2    1
   101   140   139    2
   102   109   108    1
   103   174   175    2
   104   108   110    1
   105   108   107    1
   106   139   138    1
   107     7     5    1
   108     2     1    1
   109     2     5    1
   110   144   146   ar
   111   144   142   ar
   112   102    99    1
   113    67    65    1
   114    98    99    1
   115   141   138    1
   116   141   142    1
   117   138   137    1
   118     5     6    1
   119   146   145   ar
   120   142   143   ar
   121   107   104    1
   122    99   100    1
   123    65    64    1
   124   103   104    1
   125   103   100   am
   126   129   128    2
   127    60    61    1
   128   104   105    1
   129   100   101    2
   130   137   128   am
   131    64    61    1
   132    64    66    1
   133   145   143   ar
   134     6     8    1
   135   185   184    1
   136   128   127    1
   137   180   181    1
   138    61    62    1
   139   184   181    1
   140   184   186    1
   141   117   115    1
   142   105   106    2
   143   181   182    1
   144   131   132    1
   145   131   130    1
   146    62    63    2
   147   127   130    1
   148   127   126    1
   149   133   132    1
   150   133   134    2
   151   115   116    1
   152   115   112    1
   153   182   183    2
   154    74    73    1
   155   136   134    1
   156   134   135    1
   157   111   112    1
   158   112   113    1
   159    73    75    1
   160    73    72    1
   161   124   123    1
   162    72    69    1
   163   113   114    2
   164    68    69    1
   165   123   122    1
   166   123   125    1
   167    69    70    1
   168   122   119    1
   169    70    71    2
   170   119   118    1
   171   119   120    1
   172   120   121    2
