@<TRIPOS>MOLECULE
tmp/4z3oB00.pdb
 69 63 0 0 0
SMALL
GASTEIGER

@<TRIPOS>ATOM
      1  N         60.8010    1.3850   21.8510 N.3    20  GLY20      -0.1210
      2  CA        61.9340    1.1750   20.9680 C.3    20  GLY20       0.1956
      3  C         61.7340    1.7180   19.5660 C.2    20  GLY20       0.2611
      4  O         60.6040    1.8720   19.1060 O.2    20  GLY20      -0.2717
      5  N         62.8410    2.0040   18.8860 N.am   21  ASP21      -0.1973
      6  CA        62.8000    2.5290   17.5230 C.3    21  ASP21       0.1709
      7  C         62.3620    1.4840   16.5020 C.2    21  ASP21       0.2293
      8  O         61.5170    1.7570   15.6500 O.2    21  ASP21      -0.2864
      9  CB        64.1670    3.0830   17.1180 C.3    21  ASP21       0.1436
     10  CG        64.3570    4.5280   17.5290 C.2    21  ASP21       0.3671
     11  OD1       63.7640    5.4130   16.8760 O.co2  21  ASP21      -0.2456
     12  OD2       65.1090    4.7770   18.4940 O.co2  21  ASP21      -0.2456
     13  N         62.4230    5.8240   23.2030 N.3    42  ARG42      -0.1231
     14  CA        63.7570    5.2410   23.1570 C.3    42  ARG42       0.1694
     15  C         64.3620    5.1130   24.5500 C.2    42  ARG42       0.2592
     16  O         64.7380    6.1070   25.1710 O.2    42  ARG42      -0.2718
     17  CB        64.6520    6.0920   22.2560 C.3    42  ARG42       0.0321
     18  CG        63.9900    6.4440   20.9320 C.3    42  ARG42       0.0489
     19  CD        64.1080    7.9240   20.6070 C.3    42  ARG42       0.2205
     20  NE        65.3900    8.2550   19.9950 N.pl3  42  ARG42      -0.0865
     21  CZ        65.6920    9.4490   19.4970 C.cat  42  ARG42       0.5346
     22  NH1       64.8020   10.4310   19.5390 N.pl3  42  ARG42       0.1354
     23  NH2       66.8840    9.6630   18.9540 N.pl3  42  ARG42       0.1354
     24  N         64.4530    3.8780   25.0330 N.am   43  GLY43      -0.1957
     25  CA        64.9650    3.6130   26.3640 C.3    43  GLY43       0.1869
     26  C         63.8840    3.7600   27.4160 C.2    43  GLY43       0.2309
     27  O         62.7520    4.1320   27.1040 O.2    43  GLY43      -0.2863
     28  N         64.0610   15.0520   27.1130 N.3    60  GLU60      -0.1231
     29  CA        63.5400   15.2530   25.7640 C.3    60  GLU60       0.1699
     30  C         62.3340   14.3730   25.4400 C.2    60  GLU60       0.2592
     31  O         61.5010   14.7380   24.6110 O.2    60  GLU60      -0.2718
     32  CB        64.6450   15.0270   24.7280 C.3    60  GLU60       0.0402
     33  CG        65.8000   15.9890   24.8470 C.3    60  GLU60       0.1161
     34  CD        65.4750   17.4160   24.5430 C.2    60  GLU60       0.3649
     35  OE1       64.4130   17.7130   23.9340 O.co2  60  GLU60      -0.2457
     36  OE2       66.3590   18.2380   24.8270 O.co2  60  GLU60      -0.2457
     37  N         62.2450   13.2170   26.0900 N.am   61  GLU61      -0.1979
     38  CA        61.1310   12.3020   25.8660 C.3    61  GLU61       0.1602
     39  C         59.8240   12.9250   26.3390 C.2    61  GLU61       0.2287
     40  O         58.8060   12.8580   25.6500 O.2    61  GLU61      -0.2864
     41  CB        61.3680   10.9790   26.5960 C.3    61  GLU61       0.0415
     42  CG        62.7250   10.3560   26.3250 C.3    61  GLU61       0.1163
     43  CD        62.9310   10.0240   24.8620 C.2    61  GLU61       0.3649
     44  OE1       62.0530    9.3630   24.2700 O.co2  61  GLU61      -0.2457
     45  OE2       63.9700   10.4310   24.3040 O.co2  61  GLU61      -0.2457
     46  N         69.7580   -7.9680   24.4940 N.3   282  GLY282     -0.1225
     47  CA        70.6510   -7.2820   23.5770 C.3   282  GLY282      0.1811
     48  C         72.0470   -7.8740   23.5470 C.2   282  GLY282      0.2280
     49  O         72.4920   -8.4840   24.5190 O.2   282  GLY282     -0.2866
     50  N         74.9340   -6.1380   23.2130 N.3   284  SER284     -0.1202
     51  CA        75.8550   -5.2950   23.9630 C.3   284  SER284      0.2020
     52  C         75.8550   -5.6280   25.4520 C.2   284  SER284      0.2619
     53  O         76.9060   -5.6370   26.0910 O.2   284  SER284     -0.2717
     54  CB        75.5190   -3.8200   23.7480 C.3   284  SER284      0.2103
     55  OG        74.1500   -3.5680   24.0180 O.3   284  SER284     -0.2182
     56  N         74.6750   -5.9050   25.9990 N.am  285  SER285     -0.1951
     57  CA        74.5510   -6.2610   27.4090 C.3   285  SER285      0.1924
     58  C         75.2570   -7.5790   27.7100 C.2   285  SER285      0.2314
     59  O         75.9370   -7.7110   28.7270 O.2   285  SER285     -0.2863
     60  CB        73.0790   -6.3470   27.8170 C.3   285  SER285      0.2116
     61  OG        72.4540   -5.0780   27.7480 O.3   285  SER285     -0.2180
     62  N         79.1230   -6.9330   27.2260 N.3   288  ASP288     -0.1239
     63  CA        79.6480   -6.1640   28.3520 C.3   288  ASP288      0.1674
     64  C         79.8170   -7.0500   29.5820 C.2   288  ASP288      0.2266
     65  O         80.7970   -6.9290   30.3180 O.2   288  ASP288     -0.2867
     66  CB        78.7330   -4.9830   28.6840 C.3   288  ASP288      0.1410
     67  CG        78.8320   -3.8650   27.6700 C.2   288  ASP288      0.3668
     68  OD1       79.8150   -3.8460   26.8990 O.co2 288  ASP288     -0.2456
     69  OD2       77.9280   -3.0020   27.6500 O.co2 288  ASP288     -0.2456
@<TRIPOS>BOND
     1     8     7    2
     2     7     6    1
     3    11    10   ar
     4     9     6    1
     5     9    10    1
     6     6     5    1
     7    10    12   ar
     8     5     3   am
     9    23    21    1
    10     4     3    2
    11    21    22    1
    12    21    20    2
    13     3     2    1
    14    20    19    1
    15    19    18    1
    16    18    17    1
    17     2     1    1
    18    17    14    1
    19    14    13    1
    20    14    15    1
    21    50    51    1
    22    48    47    1
    23    48    49    2
    24    47    46    1
    25    54    51    1
    26    54    55    1
    27    35    34   ar
    28    51    52    1
    29    44    43   ar
    30    45    43   ar
    31    34    36   ar
    32    34    33    1
    33    15    24   am
    34    15    16    2
    35    31    30    2
    36    32    33    1
    37    32    29    1
    38    43    42    1
    39    24    25    1
    40    30    29    1
    41    30    37   am
    42    52    56   am
    43    52    53    2
    44    40    39    2
    45    29    28    1
    46    38    37    1
    47    38    39    1
    48    38    41    1
    49    56    57    1
    50    42    41    1
    51    25    26    1
    52    68    67   ar
    53    27    26    2
    54    62    63    1
    55    57    58    1
    56    57    60    1
    57    69    67   ar
    58    67    66    1
    59    58    59    2
    60    61    60    1
    61    63    66    1
    62    63    64    1
    63    64    65    2
