@<TRIPOS>MOLECULE
tmp/4z3vA00.pdb
 170 161 0 0 0
SMALL
GASTEIGER

@<TRIPOS>ATOM
      1  N        -24.7400   -1.8510   -0.6940 N.3    20  LEU20      -0.1231
      2  CA       -24.0170   -3.0280   -1.1890 C.3    20  LEU20       0.1693
      3  C        -24.6910   -4.3430   -0.8380 C.2    20  LEU20       0.2593
      4  O        -24.5250   -5.3410   -1.5590 O.2    20  LEU20      -0.2718
      5  CB       -22.5960   -3.0520   -0.6320 C.3    20  LEU20       0.0284
      6  CG       -21.6990   -1.9190   -1.1360 C.3    20  LEU20       0.0019
      7  CD1      -20.3790   -1.9840   -0.3880 C.3    20  LEU20       0.0001
      8  CD2      -21.4750   -2.0020   -2.6430 C.3    20  LEU20       0.0001
      9  N        -25.4120   -4.3610    0.2800 N.am   21  GLY21      -0.1942
     10  CA       -26.0480   -5.5920    0.7570 C.3    21  GLY21       0.2014
     11  C        -26.4230   -5.5360    2.2220 C.2    21  GLY21       0.2640
     12  O        -26.2990   -4.4940    2.8720 O.2    21  GLY21      -0.2714
     13  N        -26.9040   -6.6620    2.7360 N.am   22  THR22      -0.1936
     14  CA       -27.3910   -6.7470    4.1080 C.3    22  THR22       0.2028
     15  C        -27.0010   -8.0890    4.7430 C.2    22  THR22       0.2643
     16  O        -26.4830   -8.9840    4.0620 O.2    22  THR22      -0.2714
     17  CB       -28.9040   -6.4350    4.2290 C.3    22  THR22       0.1808
     18  OG1      -29.2260   -6.1750    5.6020 O.3    22  THR22      -0.2208
     19  CG2      -29.7580   -7.5870    3.7090 C.3    22  THR22       0.0379
     20  N        -27.2280   -8.2180    6.0490 N.am   23  GLY23      -0.1939
     21  CA       -26.9050   -9.4420    6.7740 C.3    23  GLY23       0.2014
     22  C        -27.3200   -9.2960    8.2180 C.2    23  GLY23       0.2639
     23  O        -28.1490   -8.4430    8.5440 O.2    23  GLY23      -0.2714
     24  N        -26.7210  -10.1060    9.0870 N.am   24  GLN24      -0.1963
     25  CA       -27.1190  -10.1490   10.4960 C.3    24  GLN24       0.1733
     26  C        -27.0810   -8.8090   11.2310 C.2    24  GLN24       0.2616
     27  O        -27.8930   -8.5760   12.1270 O.2    24  GLN24      -0.2715
     28  CB       -26.3800  -11.2440   11.2710 C.3    24  GLN24       0.0408
     29  CG       -24.8700  -11.1040   11.2920 C.3    24  GLN24       0.0908
     30  CD       -24.1870  -12.2650   11.9920 C.2    24  GLN24       0.2608
     31  OE1      -22.9700  -12.2540   12.1810 O.2    24  GLN24      -0.2717
     32  NE2      -24.9680  -13.2740   12.3830 N.am   24  GLN24      -0.0878
     33  N        -26.1720   -7.9180   10.8370 N.am   25  PHE25      -0.1960
     34  CA       -26.0780   -6.6170   11.4840 C.3    25  PHE25       0.1771
     35  C        -26.6760   -5.4900   10.6410 C.2    25  PHE25       0.2620
     36  O        -26.5200   -4.3070   10.9710 O.2    25  PHE25      -0.2715
     37  CB       -24.6310   -6.2930   11.8490 C.3    25  PHE25       0.0574
     38  CG       -23.9990   -7.2650   12.8170 C.ar   25  PHE25      -0.0200
     39  CD1      -24.4760   -7.3910   14.1210 C.ar   25  PHE25      -0.0042
     40  CD2      -22.9030   -8.0350   12.4290 C.ar   25  PHE25      -0.0042
     41  CE1      -23.8820   -8.2850   15.0040 C.ar   25  PHE25      -0.0003
     42  CE2      -22.3060   -8.9210   13.3120 C.ar   25  PHE25      -0.0003
     43  CZ       -22.7870   -9.0420   14.6030 C.ar   25  PHE25      -0.0000
     44  N        -27.3670   -5.8570    9.5630 N.am   26  GLY26      -0.1954
     45  CA       -28.0640   -4.8760    8.7290 C.3    26  GLY26       0.1869
     46  C        -27.2940   -4.4520    7.4940 C.2    26  GLY26       0.2309
     47  O        -26.4950   -5.2110    6.9570 O.2    26  GLY26      -0.2863
     48  N        -24.9870   -2.5790    4.5490 N.3    28  VAL28      -0.1245
     49  CA       -23.6060   -2.1460    4.2800 C.3    28  VAL28       0.1561
     50  C        -23.6660   -1.2710    3.0420 C.2    28  VAL28       0.2260
     51  O        -24.3220   -1.6250    2.0740 O.2    28  VAL28      -0.2867
     52  CB       -22.6550   -3.3470    4.0550 C.3    28  VAL28       0.0252
     53  CG1      -21.2350   -2.8620    3.7440 C.3    28  VAL28       0.0019
     54  CG2      -22.6460   -4.2330    5.2910 C.3    28  VAL28       0.0019
     55  N        -16.2640    0.3550    2.6120 N.3    40  ALA40      -0.1245
     56  CA       -17.5930   -0.1780    2.9110 C.3    40  ALA40       0.1562
     57  C        -17.9540    0.2750    4.3330 C.2    40  ALA40       0.2260
     58  O        -17.0990    0.2870    5.2310 O.2    40  ALA40      -0.2867
     59  CB       -17.5980   -1.6920    2.8050 C.3    40  ALA40       0.0290
     60  N        -20.4020   -0.4970    7.2790 N.3    42  LYS42      -0.1245
     61  CA       -21.3470   -1.4020    7.9380 C.3    42  LYS42       0.1561
     62  C        -22.1360   -0.5890    8.9530 C.2    42  LYS42       0.2260
     63  O        -21.5930   -0.1690    9.9810 O.2    42  LYS42      -0.2867
     64  CB       -20.6040   -2.5530    8.6290 C.3    42  LYS42       0.0271
     65  CG       -19.7600   -3.4140    7.6890 C.3    42  LYS42       0.0035
     66  CD       -18.7830   -4.3350    8.4280 C.3    42  LYS42       0.0206
     67  CE       -19.4650   -5.4500    9.2170 C.3    42  LYS42       0.1093
     68  NZ       -20.3250   -6.3520    8.4000 N.3    42  LYS42      -0.1314
     69  N        -10.3890   -9.2210    4.6160 N.3    70  VAL70      -0.1245
     70  CA       -11.0050   -7.8940    4.4290 C.3    70  VAL70       0.1561
     71  C        -10.5020   -6.9770    5.5570 C.2    70  VAL70       0.2260
     72  O        -10.6410   -7.3060    6.7460 O.2    70  VAL70      -0.2867
     73  CB       -12.5440   -7.9890    4.4330 C.3    70  VAL70       0.0252
     74  CG1      -13.1910   -6.6010    4.3670 C.3    70  VAL70       0.0019
     75  CG2      -13.0280   -8.8180    3.2560 C.3    70  VAL70       0.0019
     76  N        -14.7640   -0.8290    6.6030 N.3    86  THR86      -0.1203
     77  CA       -13.8930   -1.8870    6.0980 C.3    86  THR86       0.1994
     78  C        -13.5000   -1.6720    4.6280 C.2    86  THR86       0.2618
     79  O        -14.0470   -0.8100    3.9280 O.2    86  THR86      -0.2717
     80  CB       -14.5630   -3.2870    6.2340 C.3    86  THR86       0.1784
     81  OG1      -15.5910   -3.4410    5.2380 O.3    86  THR86      -0.2211
     82  CG2      -15.1530   -3.4810    7.6340 C.3    86  THR86       0.0376
     83  N        -12.5390   -2.4800    4.1760 N.am   87  GLU87      -0.1965
     84  CA       -12.1930   -2.5930    2.7650 C.3    87  GLU87       0.1733
     85  C        -13.4270   -2.8140    1.8740 C.2    87  GLU87       0.2616
     86  O        -14.2800   -3.6520    2.1680 O.2    87  GLU87      -0.2715
     87  CB       -11.2080   -3.7570    2.6130 C.3    87  GLU87       0.0429
     88  CG       -10.6990   -4.0180    1.2070 C.3    87  GLU87       0.1163
     89  CD        -9.5680   -5.0430    1.1890 C.2    87  GLU87       0.3649
     90  OE1       -9.2020   -5.5790    2.2630 O.co2  87  GLU87      -0.2457
     91  OE2       -9.0160   -5.2810    0.1000 O.co2  87  GLU87      -0.2457
     92  N        -13.4860   -2.0600    0.7810 N.am   88  TYR88      -0.1960
     93  CA       -14.5560   -2.1580   -0.1910 C.3    88  TYR88       0.1771
     94  C        -14.2740   -3.3190   -1.1390 C.2    88  TYR88       0.2619
     95  O        -13.1910   -3.3990   -1.7330 O.2    88  TYR88      -0.2715
     96  CB       -14.6610   -0.8470   -0.9750 C.3    88  TYR88       0.0574
     97  CG       -15.6130   -0.8870   -2.1460 C.ar   88  TYR88      -0.0198
     98  CD1      -16.9360   -1.2630   -1.9740 C.ar   88  TYR88      -0.0009
     99  CD2      -15.1860   -0.4870   -3.4180 C.ar   88  TYR88      -0.0009
    100  CE1      -17.8140   -1.2850   -3.0350 C.ar   88  TYR88       0.0417
    101  CE2      -16.0620   -0.4990   -4.4930 C.ar   88  TYR88       0.0417
    102  CZ       -17.3690   -0.8890   -4.2860 C.ar   88  TYR88       0.1957
    103  OH       -18.2390   -0.9100   -5.3500 O.3    88  TYR88      -0.2866
    104  N        -15.2610   -4.1930   -1.2760 N.am   89  MET89      -0.1977
    105  CA       -15.1630   -5.3680   -2.1380 C.3    89  MET89       0.1605
    106  C        -16.2580   -5.2770   -3.1910 C.2    89  MET89       0.2287
    107  O        -17.4290   -5.6010   -2.9310 O.2    89  MET89      -0.2864
    108  CB       -15.3210   -6.6200   -1.2680 C.3    89  MET89       0.0413
    109  CG       -14.3180   -6.6790   -0.1220 C.3    89  MET89       0.0598
    110  SD       -12.6470   -7.0290   -0.6960 S.3    89  MET89      -0.1393
    111  CE       -12.8130   -8.7420   -1.1950 C.3    89  MET89       0.0692
    112  N        -19.0120   -8.0100   -4.2050 N.3    92  GLY92      -0.1210
    113  CA       -19.9830   -8.5080   -3.2400 C.3    92  GLY92       0.1956
    114  C        -19.6680   -9.8600   -2.6370 C.2    92  GLY92       0.2612
    115  O        -18.5240  -10.3140   -2.6410 O.2    92  GLY92      -0.2717
    116  N        -20.6950  -10.5090   -2.1200 N.am   93  CYS93      -0.1970
    117  CA       -20.4340  -11.7500   -1.4000 C.3    93  CYS93       0.1712
    118  C        -20.1800  -12.9160   -2.3450 C.2    93  CYS93       0.2296
    119  O        -20.7140  -12.9920   -3.4600 O.2    93  CYS93      -0.2864
    120  CB       -21.5070  -12.0490   -0.3580 C.3    93  CYS93       0.0983
    121  SG       -23.0570  -12.5670   -1.0770 S.3    93  CYS93      -0.0798
    122  N        -23.2990  -15.1340   -3.6220 N.3    96  ASN96      -0.1240
    123  CA       -24.0060  -14.6060   -4.8010 C.3    96  ASN96       0.1653
    124  C        -23.1710  -14.6860   -6.0820 C.2    96  ASN96       0.2266
    125  O        -23.6880  -14.9890   -7.1540 O.2    96  ASN96      -0.2867
    126  CB       -24.4510  -13.1740   -4.5280 C.3    96  ASN96       0.1155
    127  CG       -25.5710  -13.1060   -3.5140 C.2    96  ASN96       0.2627
    128  OD1      -26.2620  -14.0920   -3.2750 O.2    96  ASN96      -0.2716
    129  ND2      -25.7550  -11.9350   -2.9080 N.am   96  ASN96      -0.0877
    130  N        -21.0780  -17.0600    2.4670 N.3   137  ARG137     -0.1231
    131  CA       -21.7700  -15.8050    2.7560 C.3   137  ARG137      0.1694
    132  C        -20.8560  -14.7810    3.4500 C.2   137  ARG137      0.2592
    133  O        -21.0960  -13.5770    3.3450 O.2   137  ARG137     -0.2718
    134  CB       -23.0370  -16.0490    3.5900 C.3   137  ARG137      0.0321
    135  CG       -22.7830  -16.7820    4.8930 C.3   137  ARG137      0.0489
    136  CD       -23.9950  -16.8790    5.8230 C.3   137  ARG137      0.2205
    137  NE       -23.5620  -17.6490    6.9910 N.pl3 137  ARG137     -0.0865
    138  CZ       -23.5160  -18.9800    7.0090 C.cat 137  ARG137      0.5346
    139  NH1      -23.9190  -19.6650    5.9510 N.pl3 137  ARG137      0.1354
    140  NH2      -23.0760  -19.6250    8.0700 N.pl3 137  ARG137      0.1354
    141  N        -19.8250  -15.2620    4.1480 N.am  138  ASN138     -0.1974
    142  CA       -18.8770  -14.3960    4.8390 C.3   138  ASN138      0.1688
    143  C        -17.5510  -14.2230    4.1090 C.2   138  ASN138      0.2292
    144  O        -16.5480  -13.8360    4.7070 O.2   138  ASN138     -0.2864
    145  CB       -18.6550  -14.8720    6.2860 C.3   138  ASN138      0.1181
    146  CG       -19.8350  -14.5480    7.1660 C.2   138  ASN138      0.2629
    147  OD1      -20.4660  -13.4990    6.9830 O.2   138  ASN138     -0.2716
    148  ND2      -20.1610  -15.4320    8.1050 N.am  138  ASN138     -0.0877
    149  N        -15.9720  -12.2870    0.5480 N.3   140  LEU140     -0.1245
    150  CA       -16.2870  -11.1930   -0.3760 C.3   140  LEU140      0.1561
    151  C        -15.3420  -11.2260   -1.5580 C.2   140  LEU140      0.2260
    152  O        -14.2630  -11.8240   -1.4850 O.2   140  LEU140     -0.2867
    153  CB       -16.2050   -9.8340    0.3350 C.3   140  LEU140      0.0270
    154  CG       -17.2060   -9.6250    1.4700 C.3   140  LEU140      0.0019
    155  CD1      -16.8910   -8.3520    2.2520 C.3   140  LEU140      0.0001
    156  CD2      -18.6140   -9.5280    0.8910 C.3   140  LEU140      0.0001
    157  N        -14.2410  -12.2290    5.3870 N.3   150  SER150     -0.1202
    158  CA       -14.8300  -11.0730    6.0600 C.3   150  SER150      0.2020
    159  C        -15.4940  -11.4660    7.3860 C.2   150  SER150      0.2618
    160  O        -15.7670  -12.6500    7.6380 O.2   150  SER150     -0.2717
    161  CB       -15.8180  -10.3480    5.1450 C.3   150  SER150      0.2103
    162  OG       -17.0970  -10.9260    5.2090 O.3   150  SER150     -0.2182
    163  N        -15.7690  -10.4520    8.2130 N.am  151  ASP151     -0.1973
    164  CA       -16.6410  -10.6030    9.3870 C.3   151  ASP151      0.1709
    165  C        -16.0990  -11.6280   10.3860 C.2   151  ASP151      0.2293
    166  O        -16.8590  -12.2270   11.1480 O.2   151  ASP151     -0.2864
    167  CB       -18.0850  -10.9100    8.9490 C.3   151  ASP151      0.1436
    168  CG       -18.7670   -9.7020    8.2840 C.2   151  ASP151      0.3671
    169  OD1      -18.3710   -9.3090    7.1590 O.co2 151  ASP151     -0.2456
    170  OD2      -19.7140   -9.1500    8.8840 O.co2 151  ASP151     -0.2456
@<TRIPOS>BOND
     1   125   124    2
     2   124   123    1
     3   103   102    1
     4   123   126    1
     5   123   122    1
     6   126   127    1
     7   101   102   ar
     8   101    99   ar
     9   102   100   ar
    10   112   113    1
    11   127   128    2
    12   127   129   am
    13   119   118    2
    14    99    97   ar
    15   113   114    1
    16   106   107    2
    17   106   105    1
    18   100    98   ar
    19     8     6    1
    20   115   114    2
    21   114   116   am
    22   118   117    1
    23    97    98   ar
    24    97    96    1
    25   105   104    1
    26   105   108    1
    27   116   117    1
    28    95    94    2
    29     4     3    2
    30   151   152    2
    31   151   150    1
    32   117   120    1
    33   104    94   am
    34   108   109    1
    35   111   110    1
    36     2     3    1
    37     2     1    1
    38     2     5    1
    39    94    93    1
    40     6     5    1
    41     6     7    1
    42   121   120    1
    43    96    93    1
    44     3     9   am
    45   110   109    1
    46   150   153    1
    47   150   149    1
    48    93    92    1
    49    91    89   ar
    50     9    10    1
    51   153   154    1
    52    10    11    1
    53    92    85   am
    54   156   154    1
    55    89    88    1
    56    89    90   ar
    57    88    87    1
    58   154   155    1
    59    85    86    2
    60    85    84    1
    61    51    50    2
    62    11    13   am
    63    11    12    2
    64   130   131    1
    65    55    56    1
    66    87    84    1
    67    13    14    1
    68   131   132    1
    69   131   134    1
    70    84    83    1
    71    59    56    1
    72    56    57    1
    73    50    49    1
    74    75    73    1
    75   133   132    2
    76   132   141   am
    77   134   135    1
    78    19    17    1
    79    53    52    1
    80    79    78    2
    81    52    49    1
    82    52    54    1
    83    16    15    2
    84    14    17    1
    85    14    15    1
    86   143   144    2
    87   143   142    1
    88   141   142    1
    89    83    78   am
    90    17    18    1
    91    49    48    1
    92    57    58    2
    93    74    73    1
    94    70    73    1
    95    70    69    1
    96    70    71    1
    97    78    77    1
    98    15    20   am
    99   142   145    1
   100   135   136    1
   101   161   162    1
   102   161   158    1
   103    81    80    1
   104   157   158    1
   105    71    72    2
   106   136   137    1
   107   139   138    1
   108    20    21    1
   109   158   159    1
   110    77    80    1
   111    77    76    1
   112    80    82    1
   113   145   146    1
   114    21    22    1
   115    47    46    2
   116   147   146    2
   117   137   138    2
   118   138   140    1
   119   169   168   ar
   120   146   148   am
   121    60    61    1
   122   159   160    2
   123   159   163   am
   124    46    45    1
   125    65    66    1
   126    65    64    1
   127    61    64    1
   128    61    62    1
   129   163   164    1
   130    22    23    2
   131    22    24   am
   132   168   170   ar
   133   168   167    1
   134    68    67    1
   135    66    67    1
   136    45    44    1
   137   167   164    1
   138    62    63    2
   139    24    25    1
   140   164   165    1
   141    44    35   am
   142   165   166    2
   143    25    26    1
   144    25    28    1
   145    35    36    2
   146    35    34    1
   147    33    26   am
   148    33    34    1
   149    26    27    2
   150    28    29    1
   151    29    30    1
   152    34    37    1
   153    37    38    1
   154    30    31    2
   155    30    32   am
   156    40    38   ar
   157    40    42   ar
   158    38    39   ar
   159    42    43   ar
   160    39    41   ar
   161    43    41   ar
