@<TRIPOS>MOLECULE
tmp/4z3wC00.pdb
 171 162 0 0 0
SMALL
GASTEIGER

@<TRIPOS>ATOM
      1  N        -29.0010   46.7590   74.2710 N.3    77  ARG77      -0.1245
      2  CA       -28.6270   48.0640   74.8120 C.3    77  ARG77       0.1563
      3  C        -28.2650   49.1180   73.7540 C.2    77  ARG77       0.2260
      4  O        -27.4400   48.8850   72.8520 O.2    77  ARG77      -0.2867
      5  CB       -27.4600   47.8910   75.7930 C.3    77  ARG77       0.0307
      6  CG       -27.8340   48.0570   77.2620 C.3    77  ARG77       0.0489
      7  CD       -28.9560   47.0920   77.7090 C.3    77  ARG77       0.2205
      8  NE       -29.3430   47.3340   79.0970 N.pl3  77  ARG77      -0.0865
      9  CZ       -30.3640   46.7420   79.7150 C.cat  77  ARG77       0.5346
     10  NH1      -31.1180   45.8520   79.0740 N.pl3  77  ARG77       0.1354
     11  NH2      -30.6220   47.0390   80.9840 N.pl3  77  ARG77       0.1354
     12  N        -25.9270   53.9930   78.9390 N.3    94  MET94      -0.1230
     13  CA       -26.5960   52.8220   78.3880 C.3    94  MET94       0.1702
     14  C        -28.0640   52.8210   78.7520 C.2    94  MET94       0.2592
     15  O        -28.4460   53.1390   79.8860 O.2    94  MET94      -0.2718
     16  CB       -25.9350   51.5230   78.8890 C.3    94  MET94       0.0401
     17  CG       -24.7510   51.0260   78.0490 C.3    94  MET94       0.0596
     18  SD       -23.3890   52.2120   77.9250 S.3    94  MET94      -0.1393
     19  CE       -22.6760   52.1340   79.5640 C.3    94  MET94       0.0692
     20  N        -28.8850   52.4600   77.7740 N.am   95  MET95      -0.1965
     21  CA       -30.3150   52.3540   77.9740 C.3    95  MET95       0.1736
     22  C        -30.7800   51.0380   77.3780 C.2    95  MET95       0.2617
     23  O        -30.4560   50.7230   76.2350 O.2    95  MET95      -0.2715
     24  CB       -31.0310   53.5420   77.3350 C.3    95  MET95       0.0427
     25  CG       -32.4220   53.2610   76.7910 C.3    95  MET95       0.0599
     26  SD       -32.9210   54.6840   75.7940 S.3    95  MET95      -0.1393
     27  CE       -32.7300   55.9440   77.0390 C.3    95  MET95       0.0692
     28  N        -31.5390   50.2670   78.1550 N.am   96  GLY96      -0.1955
     29  CA       -31.9900   48.9660   77.7060 C.3    96  GLY96       0.1869
     30  C        -33.3290   49.0050   77.0080 C.2    96  GLY96       0.2309
     31  O        -33.6020   49.8870   76.1890 O.2    96  GLY96      -0.2863
     32  N        -39.4620   51.3220   79.9880 N.3   181  ARG181     -0.1231
     33  CA       -38.8420   50.9440   81.2580 C.3   181  ARG181      0.1694
     34  C        -37.3250   51.1410   81.2200 C.2   181  ARG181      0.2593
     35  O        -36.5890   50.4570   81.9390 O.2   181  ARG181     -0.2718
     36  CB       -39.1420   49.4820   81.6060 C.3   181  ARG181      0.0321
     37  CG       -38.4180   48.4700   80.6900 C.3   181  ARG181      0.0489
     38  CD       -37.9080   47.2430   81.4730 C.3   181  ARG181      0.2205
     39  NE       -36.6530   47.5190   82.1720 N.pl3 181  ARG181     -0.0865
     40  CZ       -35.9110   46.6030   82.7810 C.cat 181  ARG181      0.5346
     41  NH1      -36.2880   45.3240   82.7800 N.pl3 181  ARG181      0.1354
     42  NH2      -34.7800   46.9660   83.3810 N.pl3 181  ARG181      0.1354
     43  N        -36.8550   52.0750   80.3960 N.am  182  SER182     -0.1938
     44  CA       -35.4130   52.2290   80.2010 C.3   182  SER182      0.2055
     45  C        -34.9380   53.6730   80.2470 C.2   182  SER182      0.2643
     46  O        -35.6890   54.5970   79.9270 O.2   182  SER182     -0.2714
     47  CB       -34.9940   51.5990   78.8700 C.3   182  SER182      0.2130
     48  OG       -35.2790   50.2150   78.8540 O.3   182  SER182     -0.2179
     49  N        -33.6710   53.8630   80.6150 N.am  183  SER183     -0.1949
     50  CA       -33.1430   55.2100   80.7730 C.3   183  SER183      0.1924
     51  C        -31.6440   55.3160   80.5650 C.2   183  SER183      0.2314
     52  O        -30.8680   54.5860   81.1830 O.2   183  SER183     -0.2863
     53  CB       -33.4870   55.7460   82.1680 C.3   183  SER183      0.2116
     54  OG       -32.7270   56.9100   82.4560 O.3   183  SER183     -0.2180
     55  N        -29.1760   57.4730   81.7830 N.3   185  SER185     -0.1217
     56  CA       -29.4120   58.2920   82.9670 C.3   185  SER185      0.1889
     57  C        -28.3790   59.3720   83.2600 C.2   185  SER185      0.2288
     58  O        -28.7480   60.5150   83.5770 O.2   185  SER185     -0.2866
     59  CB       -29.5280   57.3840   84.1920 C.3   185  SER185      0.2089
     60  OG       -30.5840   56.4620   84.0200 O.3   185  SER185     -0.2183
     61  N        -29.8660   42.6900   86.4740 N.3   248  SER248     -0.1203
     62  CA       -29.6070   43.8950   87.2470 C.3   248  SER248      0.2005
     63  C        -30.0250   43.6300   88.6740 C.2   248  SER248      0.2460
     64  O        -30.8530   42.7510   88.9110 O.2   248  SER248     -0.2732
     65  CB       -30.3690   45.0920   86.6800 C.3   248  SER248      0.2103
     66  OG       -30.0060   45.3350   85.3280 O.3   248  SER248     -0.2182
     67  N        -29.4590   44.3840   89.6290 N.am  249  PRO249     -0.2728
     68  CA       -29.7840   44.1860   91.0480 C.3   249  PRO249      0.1401
     69  C        -31.2980   44.0950   91.2190 C.2   249  PRO249      0.2269
     70  O        -32.0220   45.0030   90.8250 O.2   249  PRO249     -0.2865
     71  CB       -29.2030   45.4300   91.7230 C.3   249  PRO249      0.0296
     72  CG       -28.1270   45.8840   90.7800 C.3   249  PRO249      0.0237
     73  CD       -28.6670   45.6050   89.4120 C.3   249  PRO249      0.0939
     74  N        -36.7260   43.6600   79.6230 N.3   299  CYS299     -0.1235
     75  CA       -36.2320   44.2540   78.3810 C.3   299  CYS299      0.1677
     76  C        -36.4730   43.2770   77.2240 C.2   299  CYS299      0.2270
     77  O        -36.9610   42.1650   77.4410 O.2   299  CYS299     -0.2867
     78  CB       -34.7460   44.5940   78.4960 C.3   299  CYS299      0.0956
     79  SG       -34.3590   45.7500   79.8290 S.3   299  CYS299     -0.0801
     80  N        -36.2690   50.2730   87.9780 N.3   321  LYS321     -0.1231
     81  CA       -35.4450   49.1150   88.2710 C.3   321  LYS321      0.1693
     82  C        -34.2600   49.5750   89.1140 C.2   321  LYS321      0.2592
     83  O        -33.9260   50.7610   89.1450 O.2   321  LYS321     -0.2718
     84  CB       -34.9780   48.4090   86.9830 C.3   321  LYS321      0.0285
     85  CG       -33.6520   48.9120   86.3880 C.3   321  LYS321      0.0035
     86  CD       -33.6880   50.4100   86.0500 C.3   321  LYS321      0.0206
     87  CE       -34.7180   50.7200   84.9660 C.3   321  LYS321      0.1093
     88  NZ       -34.4250   52.0600   84.3320 N.3   321  LYS321     -0.1314
     89  N        -33.6490   48.6420   89.8240 N.am  322  CYS322     -0.1970
     90  CA       -32.4130   48.9250   90.5410 C.3   322  CYS322      0.1712
     91  C        -32.5940   49.9640   91.6560 C.2   322  CYS322      0.2296
     92  O        -33.6120   49.9970   92.3490 O.2   322  CYS322     -0.2864
     93  CB       -31.3140   49.3880   89.5530 C.3   322  CYS322      0.0983
     94  SG       -29.6200   48.9710   90.0420 S.3   322  CYS322     -0.0798
     95  N        -20.8150   51.1780   90.0270 N.3   458  THR458     -0.1203
     96  CA       -21.7020   50.0450   89.7210 C.3   458  THR458      0.1994
     97  C        -21.6920   49.6340   88.2430 C.2   458  THR458      0.2617
     98  O        -22.3860   48.6920   87.8440 O.2   458  THR458     -0.2717
     99  CB       -23.1620   50.3450   90.1080 C.3   458  THR458      0.1784
    100  OG1      -23.6970   51.3470   89.2360 O.3   458  THR458     -0.2211
    101  CG2      -23.2490   50.8310   91.5260 C.3   458  THR458      0.0376
    102  N        -20.9260   50.3540   87.4290 N.am  459  GLN459     -0.1979
    103  CA       -20.8230   50.0530   86.0030 C.3   459  GLN459      0.1601
    104  C        -19.3640   49.7240   85.6170 C.2   459  GLN459      0.2287
    105  O        -18.9320   49.9310   84.4790 O.2   459  GLN459     -0.2864
    106  CB       -21.3850   51.2220   85.1780 C.3   459  GLN459      0.0394
    107  CG       -22.9330   51.3580   85.2570 C.3   459  GLN459      0.0908
    108  CD       -23.4650   52.6190   84.5920 C.2   459  GLN459      0.2608
    109  OE1      -23.2680   53.7300   85.0940 O.2   459  GLN459     -0.2717
    110  NE2      -24.1410   52.4540   83.4520 N.am  459  GLN459     -0.0878
    111  N        -17.2420   44.8540   81.0800 N.3   525  HIS525     -0.1241
    112  CA       -18.1900   45.9540   80.8740 C.3   525  HIS525      0.1621
    113  C        -17.9850   46.5560   79.4990 C.2   525  HIS525      0.2264
    114  O        -18.9400   46.8350   78.7840 O.2   525  HIS525     -0.2867
    115  CB       -18.0470   47.0320   81.9500 C.3   525  HIS525      0.0745
    116  CG       -18.7740   46.7150   83.2190 C.ar  525  HIS525      0.0817
    117  ND1      -20.1240   46.9520   83.3840 N.ar  525  HIS525     -0.2268
    118  CD2      -18.3410   46.1690   84.3830 C.ar  525  HIS525      0.1154
    119  CE1      -20.4890   46.5720   84.5970 C.ar  525  HIS525      0.1986
    120  NE2      -19.4290   46.0840   85.2190 N.ar  525  HIS525     -0.2212
    121  N        -19.5010   44.2070   76.9510 N.3   528  ASP528     -0.1225
    122  CA       -20.9590   44.3920   76.9960 C.3   528  ASP528      0.1805
    123  C        -21.3740   45.6720   76.2790 C.2   528  ASP528      0.2597
    124  O        -22.2670   45.6630   75.4420 O.2   528  ASP528     -0.2718
    125  CB       -21.4780   44.4300   78.4400 C.3   528  ASP528      0.1424
    126  CG       -21.2500   43.1290   79.1890 C.2   528  ASP528      0.3668
    127  OD1      -20.9210   42.1050   78.5460 O.co2 528  ASP528     -0.2456
    128  OD2      -21.4050   43.1400   80.4330 O.co2 528  ASP528     -0.2456
    129  N        -20.7040   46.7730   76.5920 N.am  529  ASP529     -0.1974
    130  CA       -21.1160   48.0670   76.0640 C.3   529  ASP529      0.1709
    131  C        -20.7850   48.2470   74.5820 C.2   529  ASP529      0.2293
    132  O        -21.2400   49.2070   73.9560 O.2   529  ASP529     -0.2864
    133  CB       -20.4780   49.1980   76.8800 C.3   529  ASP529      0.1436
    134  CG       -20.9680   49.2290   78.3280 C.2   529  ASP529      0.3671
    135  OD1      -22.0520   48.6690   78.6130 O.co2 529  ASP529     -0.2456
    136  OD2      -20.2650   49.8170   79.1830 O.co2 529  ASP529     -0.2456
    137  N        -24.8380   44.0330   74.8420 N.3   533  GLN533     -0.1231
    138  CA       -25.2850   43.0020   75.7580 C.3   533  GLN533      0.1698
    139  C        -25.5980   43.6060   77.1150 C.2   533  GLN533      0.2592
    140  O        -24.8260   44.4220   77.6230 O.2   533  GLN533     -0.2718
    141  CB       -24.2250   41.9180   75.9100 C.3   533  GLN533      0.0381
    142  CG       -24.6760   40.7680   76.7840 C.3   533  GLN533      0.0905
    143  CD       -25.9600   40.1600   76.2850 C.2   533  GLN533      0.2608
    144  OE1      -26.1490   39.9820   75.0790 O.2   533  GLN533     -0.2717
    145  NE2      -26.8670   39.8550   77.2070 N.am  533  GLN533     -0.0878
    146  N        -26.7210   43.2060   77.6990 N.am  534  CYS534     -0.1956
    147  CA       -27.0590   43.6530   79.0350 C.3   534  CYS534      0.1843
    148  C        -26.0990   43.1140   80.0780 C.2   534  CYS534      0.2625
    149  O        -25.8780   41.9020   80.1600 O.2   534  CYS534     -0.2714
    150  CB       -28.4700   43.2290   79.4270 C.3   534  CYS534      0.0997
    151  SG       -28.8670   43.9150   81.0470 S.3   534  CYS534     -0.0797
    152  N        -25.5670   44.0130   80.9010 N.am  535  ALA535     -0.1963
    153  CA       -24.6750   43.6210   81.9900 C.3   535  ALA535      0.1728
    154  C        -25.3300   42.6280   82.9630 C.2   535  ALA535      0.2616
    155  O        -24.6410   41.8420   83.6100 O.2   535  ALA535     -0.2715
    156  CB       -24.2020   44.8560   82.7450 C.3   535  ALA535      0.0334
    157  N        -26.6570   42.6710   83.0690 N.am  536  GLY536     -0.1955
    158  CA       -27.3820   41.7810   83.9630 C.3   536  GLY536      0.1869
    159  C        -27.1460   40.3120   83.6570 C.2   536  GLY536      0.2309
    160  O        -27.3320   39.4590   84.5220 O.2   536  GLY536     -0.2863
    161  N        -22.1480   42.3050   85.1430 N.3   540  PHE540     -0.1241
    162  CA       -22.5990   42.6930   86.4760 C.3   540  PHE540      0.1605
    163  C        -22.6400   41.5460   87.5030 C.2   540  PHE540      0.2264
    164  O        -22.0420   41.6560   88.5760 O.2   540  PHE540     -0.2867
    165  CB       -23.9760   43.3570   86.4240 C.3   540  PHE540      0.0534
    166  CG       -24.3580   43.9940   87.7260 C.ar  540  PHE540     -0.0203
    167  CD1      -24.9730   43.2460   88.7260 C.ar  540  PHE540     -0.0042
    168  CD2      -24.0590   45.3330   87.9690 C.ar  540  PHE540     -0.0042
    169  CE1      -25.2990   43.8260   89.9360 C.ar  540  PHE540     -0.0003
    170  CE2      -24.3660   45.9160   89.1720 C.ar  540  PHE540     -0.0003
    171  CZ       -24.9940   45.1640   90.1620 C.ar  540  PHE540     -0.0000
@<TRIPOS>BOND
     1     4     3    2
     2     3     2    1
     3   132   131    2
     4     1     2    1
     5   131   130    1
     6     2     5    1
     7   137   138    1
     8   144   143    2
     9   124   123    2
    10   138   141    1
    11   138   139    1
    12     5     6    1
    13    26    25    1
    14    26    27    1
    15   141   142    1
    16   130   129    1
    17   130   133    1
    18    31    30    2
    19    23    22    2
    20   123   129   am
    21   123   122    1
    22   143   142    1
    23   143   145   am
    24    25    24    1
    25   133   134    1
    26   121   122    1
    27   122   125    1
    28    30    29    1
    29   139   140    2
    30   139   146   am
    31    76    77    2
    32    76    75    1
    33     6     7    1
    34    24    21    1
    35    22    21    1
    36    22    28   am
    37   146   147    1
    38    29    28    1
    39     7     8    1
    40    20    21    1
    41    20    14   am
    42    18    17    1
    43    18    19    1
    44    17    16    1
    45   134   135   ar
    46   134   136   ar
    47    75    78    1
    48    75    74    1
    49    13    14    1
    50    13    16    1
    51    13    12    1
    52   125   126    1
    53    78    79    1
    54   127   126   ar
    55    14    15    2
    56   114   113    2
    57    48    47    1
    58    47    44    1
    59   147   150    1
    60   147   148    1
    61    10     9    1
    62     8     9    2
    63   126   128   ar
    64   150   151    1
    65   113   112    1
    66     9    11    1
    67    46    45    2
    68    32    33    1
    69   148   149    2
    70   148   152   am
    71    44    45    1
    72    44    43    1
    73    45    49   am
    74    43    34   am
    75    51    50    1
    76    51    52    2
    77    49    50    1
    78    37    38    1
    79    37    36    1
    80    50    53    1
    81   112   111    1
    82   112   115    1
    83   152   153    1
    84    34    33    1
    85    34    35    2
    86    33    36    1
    87    38    39    1
    88    55    56    1
    89   115   116    1
    90   153   156    1
    91   153   154    1
    92    53    54    1
    93    39    40    2
    94    41    40    1
    95    40    42    1
    96   154   157   am
    97   154   155    2
    98    56    57    1
    99    56    59    1
   100   157   158    1
   101   116   117   ar
   102   116   118   ar
   103    57    58    2
   104   117   119   ar
   105   110   108   am
   106   159   158    1
   107   159   160    2
   108    60    59    1
   109    88    87    1
   110   118   120   ar
   111   105   104    2
   112   108   109    2
   113   108   107    1
   114   119   120   ar
   115    87    86    1
   116   161   162    1
   117   106   107    1
   118   106   103    1
   119    66    65    1
   120   104   103    1
   121   103   102    1
   122    86    85    1
   123    85    84    1
   124   165   162    1
   125   165   166    1
   126    61    62    1
   127   162   163    1
   128    65    62    1
   129    84    81    1
   130    62    63    1
   131   102    97   am
   132   163   164    2
   133   166   168   ar
   134   166   167   ar
   135    98    97    2
   136   168   170   ar
   137    80    81    1
   138    97    96    1
   139    81    82    1
   140    63    64    2
   141    63    67   am
   142   167   169   ar
   143    82    83    2
   144    82    89   am
   145   170   171   ar
   146   100    99    1
   147    73    67    1
   148    73    72    1
   149    93    94    1
   150    93    90    1
   151    67    68    1
   152    96    95    1
   153    96    99    1
   154    89    90    1
   155   169   171   ar
   156    99   101    1
   157    90    91    1
   158    72    71    1
   159    70    69    2
   160    68    69    1
   161    68    71    1
   162    91    92    2
