@<TRIPOS>MOLECULE
tmp/4z3wC01.pdb
 175 166 0 0 0
SMALL
GASTEIGER

@<TRIPOS>ATOM
      1  N        -23.6200   56.4570   78.0140 N.3    93  SER93      -0.1202
      2  CA       -24.7440   56.1070   78.8590 C.3    93  SER93       0.2020
      3  C        -25.5610   55.0180   78.1770 C.2    93  SER93       0.2618
      4  O        -25.8580   55.1160   76.9850 O.2    93  SER93      -0.2717
      5  CB       -25.6110   57.3440   79.1300 C.3    93  SER93       0.2103
      6  OG       -26.7390   57.0200   79.9300 O.3    93  SER93      -0.2182
      7  N        -25.9270   53.9930   78.9390 N.am   94  MET94      -0.1979
      8  CA       -26.5960   52.8220   78.3880 C.3    94  MET94       0.1605
      9  C        -28.0640   52.8210   78.7520 C.2    94  MET94       0.2287
     10  O        -28.4460   53.1390   79.8860 O.2    94  MET94      -0.2864
     11  CB       -25.9350   51.5230   78.8890 C.3    94  MET94       0.0413
     12  CG       -24.7510   51.0260   78.0490 C.3    94  MET94       0.0598
     13  SD       -23.3890   52.2120   77.9250 S.3    94  MET94      -0.1393
     14  CE       -22.6760   52.1340   79.5640 C.3    94  MET94       0.0692
     15  N        -31.8320   63.1480   81.9460 N.3   176  SER176     -0.1217
     16  CA       -31.7340   61.8080   81.3780 C.3   176  SER176      0.1889
     17  C        -32.4820   61.7100   80.0610 C.2   176  SER176      0.2288
     18  O        -33.1360   62.6620   79.6460 O.2   176  SER176     -0.2866
     19  CB       -32.2990   60.7740   82.3570 C.3   176  SER176      0.2089
     20  OG       -33.6950   60.9750   82.4590 O.3   176  SER176     -0.2183
     21  N        -35.3230   58.9570   78.3930 N.3   178  GLU178     -0.1245
     22  CA       -36.1840   57.8800   78.8820 C.3   178  GLU178      0.1567
     23  C        -36.9280   57.1550   77.7550 C.2   178  GLU178      0.2260
     24  O        -37.3730   57.7740   76.7810 O.2   178  GLU178     -0.2867
     25  CB       -37.1880   58.4450   79.9010 C.3   178  GLU178      0.0388
     26  CG       -36.5420   59.2610   81.0390 C.3   178  GLU178      0.1160
     27  CD       -35.9700   58.3920   82.1550 C.2   178  GLU178      0.3649
     28  OE1      -36.5130   57.2870   82.4110 O.co2 178  GLU178     -0.2457
     29  OE2      -34.9760   58.8150   82.7870 O.co2 178  GLU178     -0.2457
     30  N        -33.6710   53.8630   80.6150 N.3   183  SER183     -0.1217
     31  CA       -33.1430   55.2100   80.7730 C.3   183  SER183      0.1889
     32  C        -31.6440   55.3160   80.5650 C.2   183  SER183      0.2288
     33  O        -30.8680   54.5860   81.1830 O.2   183  SER183     -0.2866
     34  CB       -33.4870   55.7460   82.1680 C.3   183  SER183      0.2089
     35  OG       -32.7270   56.9100   82.4560 O.3   183  SER183     -0.2183
     36  N        -29.1760   57.4730   81.7830 N.3   185  SER185     -0.1202
     37  CA       -29.4120   58.2920   82.9670 C.3   185  SER185      0.2020
     38  C        -28.3790   59.3720   83.2600 C.2   185  SER185      0.2618
     39  O        -28.7480   60.5150   83.5770 O.2   185  SER185     -0.2717
     40  CB       -29.5280   57.3840   84.1920 C.3   185  SER185      0.2103
     41  OG       -30.5840   56.4620   84.0200 O.3   185  SER185     -0.2182
     42  N        -27.1010   58.9990   83.1550 N.am  186  ARG186     -0.1979
     43  CA       -26.0060   59.7460   83.7720 C.3   186  ARG186      0.1597
     44  C        -25.1140   60.5370   82.8140 C.2   186  ARG186      0.2287
     45  O        -24.9760   60.1990   81.6340 O.2   186  ARG186     -0.2864
     46  CB       -25.1250   58.7790   84.5660 C.3   186  ARG186      0.0334
     47  CG       -25.8910   57.9750   85.6080 C.3   186  ARG186      0.0492
     48  CD       -25.7350   58.6080   86.9670 C.3   186  ARG186      0.2205
     49  NE       -24.6020   58.0540   87.6860 N.pl3 186  ARG186     -0.0865
     50  CZ       -23.9580   58.6700   88.6720 C.cat 186  ARG186      0.5346
     51  NH1      -24.3270   59.8870   89.0640 N.pl3 186  ARG186      0.1354
     52  NH2      -22.9250   58.0680   89.2540 N.pl3 186  ARG186      0.1354
     53  N        -39.5390   51.3240   86.8780 N.3   320  MET320     -0.1230
     54  CA       -38.3690   51.4650   87.7290 C.3   320  MET320      0.1702
     55  C        -37.5800   50.1650   87.7820 C.2   320  MET320      0.2592
     56  O        -38.1510   49.0900   87.6350 O.2   320  MET320     -0.2718
     57  CB       -38.7940   51.8710   89.1350 C.3   320  MET320      0.0401
     58  CG       -37.7450   51.6390   90.2010 C.3   320  MET320      0.0596
     59  SD       -38.2940   52.2810   91.7910 S.3   320  MET320     -0.1393
     60  CE       -38.3430   54.0330   91.4380 C.3   320  MET320      0.0692
     61  N        -36.2690   50.2730   87.9780 N.am  321  LYS321     -0.1966
     62  CA       -35.4450   49.1150   88.2710 C.3   321  LYS321      0.1728
     63  C        -34.2600   49.5750   89.1140 C.2   321  LYS321      0.2616
     64  O        -33.9260   50.7610   89.1450 O.2   321  LYS321     -0.2715
     65  CB       -34.9780   48.4090   86.9830 C.3   321  LYS321      0.0311
     66  CG       -33.6520   48.9120   86.3880 C.3   321  LYS321      0.0038
     67  CD       -33.6880   50.4100   86.0500 C.3   321  LYS321      0.0206
     68  CE       -34.7180   50.7200   84.9660 C.3   321  LYS321      0.1093
     69  NZ       -34.4250   52.0600   84.3320 N.3   321  LYS321     -0.1314
     70  N        -33.6490   48.6420   89.8240 N.am  322  CYS322     -0.1954
     71  CA       -32.4130   48.9250   90.5410 C.3   322  CYS322      0.1843
     72  C        -32.5940   49.9640   91.6560 C.2   322  CYS322      0.2625
     73  O        -33.6120   49.9970   92.3490 O.2   322  CYS322     -0.2714
     74  CB       -31.3140   49.3880   89.5530 C.3   322  CYS322      0.0997
     75  SG       -29.6200   48.9710   90.0420 S.3   322  CYS322     -0.0797
     76  N        -31.5950   50.8250   91.7990 N.am  323  PHE323     -0.1960
     77  CA       -31.3400   51.5130   93.0540 C.3   323  PHE323      0.1771
     78  C        -32.1040   52.8340   93.2400 C.2   323  PHE323      0.2620
     79  O        -32.1050   53.3950   94.3380 O.2   323  PHE323     -0.2715
     80  CB       -29.8310   51.7400   93.1740 C.3   323  PHE323      0.0574
     81  CG       -29.3670   52.1350   94.5490 C.ar  323  PHE323     -0.0200
     82  CD1      -29.8690   51.5050   95.6840 C.ar  323  PHE323     -0.0042
     83  CD2      -28.4040   53.1270   94.7070 C.ar  323  PHE323     -0.0042
     84  CE1      -29.4340   51.8730   96.9550 C.ar  323  PHE323     -0.0003
     85  CE2      -27.9580   53.4940   95.9690 C.ar  323  PHE323     -0.0003
     86  CZ       -28.4720   52.8620   97.0970 C.ar  323  PHE323     -0.0000
     87  N        -32.7570   53.3340   92.1930 N.am  324  THR324     -0.1951
     88  CA       -33.5510   54.5470   92.3540 C.3   324  THR324      0.1897
     89  C        -34.7730   54.2650   93.2240 C.2   324  THR324      0.2313
     90  O        -35.4170   55.1900   93.7160 O.2   324  THR324     -0.2863
     91  CB       -34.0070   55.1440   91.0070 C.3   324  THR324      0.1794
     92  OG1      -34.6570   54.1360   90.2200 O.3   324  THR324     -0.2208
     93  CG2      -32.8030   55.7050   90.2400 C.3   324  THR324      0.0378
     94  N        -38.6710   60.8530   87.1130 N.3   347  THR347     -0.1218
     95  CA       -38.6050   60.0770   85.8880 C.3   347  THR347      0.1862
     96  C        -39.2750   60.8130   84.7300 C.2   347  THR347      0.2287
     97  O        -38.7170   60.8650   83.6300 O.2   347  THR347     -0.2866
     98  CB       -39.2510   58.6730   86.0630 C.3   347  THR347      0.1770
     99  OG1      -38.4250   57.8730   86.9210 O.3   347  THR347     -0.2211
    100  CG2      -39.3860   57.9720   84.7240 C.3   347  THR347      0.0375
    101  N        -34.6560   62.8940   84.8880 N.3   351  LEU351     -0.1231
    102  CA       -33.5570   63.2130   85.7990 C.3   351  LEU351      0.1693
    103  C        -32.8520   61.9760   86.3110 C.2   351  LEU351      0.2592
    104  O        -33.4860   60.9730   86.6280 O.2   351  LEU351     -0.2718
    105  CB       -34.0660   64.0070   87.0020 C.3   351  LEU351      0.0284
    106  CG       -34.3980   65.4860   86.8130 C.3   351  LEU351      0.0019
    107  CD1      -35.0630   66.0040   88.0620 C.3   351  LEU351      0.0001
    108  CD2      -33.1180   66.2940   86.4990 C.3   351  LEU351      0.0001
    109  N        -31.5340   62.0750   86.4190 N.am  352  ASP352     -0.1960
    110  CA       -30.6980   60.9860   86.9130 C.3   352  ASP352      0.1840
    111  C        -30.9270   60.7200   88.4010 C.2   352  ASP352      0.2623
    112  O        -30.5810   61.5470   89.2430 O.2   352  ASP352     -0.2715
    113  CB       -29.2160   61.3060   86.6430 C.3   352  ASP352      0.1450
    114  CG       -28.2720   60.4510   87.4690 C.2   352  ASP352      0.3671
    115  OD1      -28.6040   59.2710   87.7430 O.co2 352  ASP352     -0.2456
    116  OD2      -27.2050   60.9670   87.8660 O.co2 352  ASP352     -0.2456
    117  N        -31.4720   59.5430   88.7130 N.am  353  GLY353     -0.1940
    118  CA       -31.8200   59.1640   90.0770 C.3   353  GLY353      0.2014
    119  C        -30.6920   59.0060   91.0900 C.2   353  GLY353      0.2638
    120  O        -30.9570   58.8510   92.2860 O.2   353  GLY353     -0.2714
    121  N        -29.4430   59.0190   90.6240 N.am  354  PHE354     -0.1973
    122  CA       -28.2920   59.0190   91.5260 C.3   354  PHE354      0.1639
    123  C        -27.9540   60.4440   91.9650 C.2   354  PHE354      0.2290
    124  O        -27.8820   60.7470   93.1630 O.2   354  PHE354     -0.2864
    125  CB       -27.0630   58.3810   90.8640 C.3   354  PHE354      0.0560
    126  CG       -27.0830   56.8740   90.8470 C.ar  354  PHE354     -0.0200
    127  CD1      -28.2480   56.1660   91.1370 C.ar  354  PHE354     -0.0042
    128  CD2      -25.9270   56.1640   90.5450 C.ar  354  PHE354     -0.0042
    129  CE1      -28.2550   54.7750   91.1210 C.ar  354  PHE354     -0.0003
    130  CE2      -25.9220   54.7700   90.5230 C.ar  354  PHE354     -0.0003
    131  CZ       -27.0810   54.0730   90.8150 C.ar  354  PHE354     -0.0000
    132  N        -16.7140   55.5790   83.0950 N.3   454  LYS454     -0.1245
    133  CA       -18.1300   55.8570   83.3050 C.3   454  LYS454      0.1561
    134  C        -18.2860   56.6780   84.5890 C.2   454  LYS454      0.2260
    135  O        -19.3140   57.3190   84.8120 O.2   454  LYS454     -0.2867
    136  CB       -18.9540   54.5650   83.3870 C.3   454  LYS454      0.0271
    137  CG       -20.4790   54.7960   83.5760 C.3   454  LYS454      0.0035
    138  CD       -21.0350   55.7200   82.4900 C.3   454  LYS454      0.0206
    139  CE       -22.5780   55.6960   82.4290 C.3   454  LYS454      0.1093
    140  NZ       -23.2280   56.0940   83.7070 N.3   454  LYS454     -0.1314
    141  N        -18.7310   55.6580   87.5550 N.3   456  ASN456     -0.1240
    142  CA       -19.7790   55.1040   88.4050 C.3   456  ASN456      0.1653
    143  C        -19.4190   53.6830   88.8450 C.2   456  ASN456      0.2266
    144  O        -19.3950   52.7730   88.0280 O.2   456  ASN456     -0.2867
    145  CB       -21.1180   55.1200   87.6620 C.3   456  ASN456      0.1155
    146  CG       -22.2680   54.5680   88.4980 C.2   456  ASN456      0.2627
    147  OD1      -22.1520   54.3990   89.7140 O.2   456  ASN456     -0.2716
    148  ND2      -23.3830   54.2820   87.8420 N.am  456  ASN456     -0.0877
    149  N        -20.8150   51.1780   90.0270 N.3   458  THR458     -0.1203
    150  CA       -21.7020   50.0450   89.7210 C.3   458  THR458      0.1994
    151  C        -21.6920   49.6340   88.2430 C.2   458  THR458      0.2617
    152  O        -22.3860   48.6920   87.8440 O.2   458  THR458     -0.2717
    153  CB       -23.1620   50.3450   90.1080 C.3   458  THR458      0.1784
    154  OG1      -23.6970   51.3470   89.2360 O.3   458  THR458     -0.2211
    155  CG2      -23.2490   50.8310   91.5260 C.3   458  THR458      0.0376
    156  N        -20.9260   50.3540   87.4290 N.am  459  GLN459     -0.1979
    157  CA       -20.8230   50.0530   86.0030 C.3   459  GLN459      0.1601
    158  C        -19.3640   49.7240   85.6170 C.2   459  GLN459      0.2287
    159  O        -18.9320   49.9310   84.4790 O.2   459  GLN459     -0.2864
    160  CB       -21.3850   51.2220   85.1780 C.3   459  GLN459      0.0394
    161  CG       -22.9330   51.3580   85.2570 C.3   459  GLN459      0.0908
    162  CD       -23.4650   52.6190   84.5920 C.2   459  GLN459      0.2608
    163  OE1      -23.2680   53.7300   85.0940 O.2   459  GLN459     -0.2717
    164  NE2      -24.1410   52.4540   83.4520 N.am  459  GLN459     -0.0878
    165  N        -22.1480   42.3050   85.1430 N.3   540  PHE540     -0.1241
    166  CA       -22.5990   42.6930   86.4760 C.3   540  PHE540      0.1605
    167  C        -22.6400   41.5460   87.5030 C.2   540  PHE540      0.2264
    168  O        -22.0420   41.6560   88.5760 O.2   540  PHE540     -0.2867
    169  CB       -23.9760   43.3570   86.4240 C.3   540  PHE540      0.0534
    170  CG       -24.3580   43.9940   87.7260 C.ar  540  PHE540     -0.0203
    171  CD1      -24.9730   43.2460   88.7260 C.ar  540  PHE540     -0.0042
    172  CD2      -24.0590   45.3330   87.9690 C.ar  540  PHE540     -0.0042
    173  CE1      -25.2990   43.8260   89.9360 C.ar  540  PHE540     -0.0003
    174  CE2      -24.3660   45.9160   89.1720 C.ar  540  PHE540     -0.0003
    175  CZ       -24.9940   45.1640   90.1620 C.ar  540  PHE540     -0.0000
@<TRIPOS>BOND
     1    24    23    2
     2     4     3    2
     3    23    22    1
     4    13    12    1
     5    13    14    1
     6     1     2    1
     7    12    11    1
     8     3     2    1
     9     3     7   am
    10     8     9    1
    11     8    11    1
    12     8     7    1
    13    21    22    1
    14     9    10    2
    15     2     5    1
    16    22    25    1
    17     5     6    1
    18    18    17    2
    19    25    26    1
    20    17    16    1
    21    32    31    1
    22    32    33    2
    23    30    31    1
    24    31    34    1
    25    26    27    1
    26    16    15    1
    27    16    19    1
    28    45    44    2
    29    36    37    1
    30    27    28   ar
    31    27    29   ar
    32    34    35    1
    33    19    20    1
    34   139   138    1
    35   139   140    1
    36   138   137    1
    37    44    43    1
    38    37    38    1
    39    37    40    1
    40   132   133    1
    41    42    38   am
    42    42    43    1
    43    38    39    2
    44   133   136    1
    45   133   134    1
    46   136   137    1
    47   164   162   am
    48    97    96    2
    49    43    46    1
    50    41    40    1
    51    69    68    1
    52   159   158    2
    53    46    47    1
    54   134   135    2
    55   162   163    2
    56   162   161    1
    57   100    98    1
    58    96    95    1
    59   101   102    1
    60    68    67    1
    61   165   166    1
    62   160   161    1
    63   160   157    1
    64    47    48    1
    65   158   157    1
    66   102   103    1
    67   102   105    1
    68    95    98    1
    69    95    94    1
    70   157   156    1
    71    67    66    1
    72    98    99    1
    73   103   109   am
    74   103   104    2
    75    66    65    1
    76   109   110    1
    77   169   166    1
    78   169   170    1
    79   166   167    1
    80   108   106    1
    81   113   110    1
    82   113   114    1
    83   106   105    1
    84   106   107    1
    85    53    54    1
    86   110   111    1
    87    48    49    1
    88    65    62    1
    89   156   151   am
    90   114   115   ar
    91   114   116   ar
    92   167   168    2
    93   141   142    1
    94    56    55    2
    95   145   142    1
    96   145   146    1
    97    49    50    2
    98   170   172   ar
    99   170   171   ar
   100    54    55    1
   101    54    57    1
   102    55    61   am
   103   148   146   am
   104   152   151    2
   105   172   174   ar
   106    61    62    1
   107   144   143    2
   108   151   150    1
   109    62    63    1
   110   111   117   am
   111   111   112    2
   112   142   143    1
   113   146   147    2
   114    50    51    1
   115    50    52    1
   116   117   118    1
   117   171   173   ar
   118    63    64    2
   119    63    70   am
   120    57    58    1
   121   174   175   ar
   122   154   153    1
   123    74    75    1
   124    74    71    1
   125   150   149    1
   126   150   153    1
   127    70    71    1
   128   173   175   ar
   129   118   119    1
   130   153   155    1
   131    58    59    1
   132    92    91    1
   133    93    91    1
   134   130   128   ar
   135   130   131   ar
   136    71    72    1
   137   128   126   ar
   138   121   119   am
   139   121   122    1
   140   131   129   ar
   141   126   125    1
   142   126   127   ar
   143   125   122    1
   144    91    88    1
   145   119   120    2
   146   129   127   ar
   147    60    59    1
   148   122   123    1
   149    72    76   am
   150    72    73    2
   151    76    77    1
   152   123   124    2
   153    87    88    1
   154    87    78   am
   155    88    89    1
   156    77    80    1
   157    77    78    1
   158    80    81    1
   159    89    90    2
   160    78    79    2
   161    81    83   ar
   162    81    82   ar
   163    83    85   ar
   164    82    84   ar
   165    85    86   ar
   166    84    86   ar
