@<TRIPOS>MOLECULE
tmp/4z3xD02.pdb
 123 122 0 0 0
SMALL
GASTEIGER

@<TRIPOS>ATOM
      1  N        -91.1860   55.7060   92.2810 N.3   236  ILE236     -0.1245
      2  CA       -92.3030   56.1300   93.1160 C.3   236  ILE236      0.1561
      3  C        -91.8120   57.0170   94.2350 C.2   236  ILE236      0.2260
      4  O        -90.9980   56.5820   95.0500 O.2   236  ILE236     -0.2867
      5  CB       -93.0160   54.9440   93.7330 C.3   236  ILE236      0.0252
      6  CG1      -93.2010   53.7790   92.7510 C.3   236  ILE236      0.0019
      7  CG2      -94.3510   55.4420   94.3530 C.3   236  ILE236      0.0019
      8  CD1      -94.0120   54.1290   91.5640 C.3   236  ILE236      0.0001
      9  N        -91.0270   58.9110   97.6250 N.3   238  ASP238     -0.1225
     10  CA       -91.0530   58.5960   99.0630 C.3   238  ASP238      0.1805
     11  C        -91.1730   57.1220   99.4080 C.2   238  ASP238      0.2598
     12  O        -91.5310   56.7500  100.5120 O.2   238  ASP238     -0.2718
     13  CB       -92.1630   59.3770   99.7130 C.3   238  ASP238      0.1424
     14  CG       -91.9700   60.8910   99.5330 C.2   238  ASP238      0.3668
     15  OD1      -90.8050   61.3690   99.5770 O.co2 238  ASP238     -0.2456
     16  OD2      -92.9680   61.6100   99.3010 O.co2 238  ASP238     -0.2456
     17  N        -90.8700   56.2900   98.4380 N.am  239  VAL239     -0.1966
     18  CA       -90.7050   54.8770   98.6480 C.3   239  VAL239      0.1727
     19  C        -89.1980   54.5820   98.6160 C.2   239  VAL239      0.2616
     20  O        -88.4420   55.1010   97.7470 O.2   239  VAL239     -0.2715
     21  CB       -91.4980   54.0710   97.5850 C.3   239  VAL239      0.0290
     22  CG1      -91.1750   52.6450   97.7050 C.3   239  VAL239      0.0023
     23  CG2      -93.0190   54.2770   97.8720 C.3   239  VAL239      0.0023
     24  N        -88.7420   53.8190   99.6060 N.am  240  MET240     -0.1977
     25  CA       -87.3510   53.3390   99.6480 C.3   240  MET240      0.1605
     26  C        -86.8830   52.6450   98.3680 C.2   240  MET240      0.2287
     27  O        -87.6570   51.9470   97.6790 O.2   240  MET240     -0.2864
     28  CB       -87.1960   52.3780  100.7870 C.3   240  MET240      0.0413
     29  CG       -88.1820   51.2290  100.6270 C.3   240  MET240      0.0598
     30  SD       -88.0690   50.1170  102.0040 S.3   240  MET240     -0.1393
     31  CE       -86.2590   50.0170  102.1490 C.3   240  MET240      0.0692
     32  N        -87.8810   49.0520   96.8930 N.3   243  LEU243     -0.1245
     33  CA       -89.2250   48.8590   96.3320 C.3   243  LEU243      0.1561
     34  C        -89.7640   49.9480   95.4050 C.2   243  LEU243      0.2260
     35  O        -90.8670   49.7940   94.8630 O.2   243  LEU243     -0.2867
     36  CB       -90.2570   48.7130   97.4730 C.3   243  LEU243      0.0270
     37  CG       -90.0320   47.5790   98.5070 C.3   243  LEU243      0.0019
     38  CD1      -91.2100   47.5310   99.5280 C.3   243  LEU243      0.0001
     39  CD2      -89.7700   46.1800   97.8360 C.3   243  LEU243      0.0001
     40  N        -85.4060   49.6770  106.8010 N.3   259  TRP259     -0.1241
     41  CA       -86.7900   49.2620  106.8290 C.3   259  TRP259      0.1605
     42  C        -86.9620   47.8070  107.3050 C.2   259  TRP259      0.2264
     43  O        -87.7420   47.5300  108.2320 O.2   259  TRP259     -0.2867
     44  CB       -87.3860   49.4310  105.4180 C.3   259  TRP259      0.0550
     45  CG       -88.9100   49.1680  105.3240 C.ar  259  TRP259      0.0003
     46  CD1      -89.9190   49.9650  105.8210 C.ar  259  TRP259      0.0946
     47  CD2      -89.5820   48.0570  104.6550 C.ar  259  TRP259      0.0152
     48  NE1      -91.1540   49.4110  105.5220 N.ar  259  TRP259     -0.2442
     49  CE2      -90.9800   48.2410  104.8340 C.ar  259  TRP259      0.0810
     50  CE3      -89.1460   46.9300  103.9910 C.ar  259  TRP259      0.0012
     51  CZ2      -91.9200   47.3860  104.2890 C.ar  259  TRP259      0.0191
     52  CZ3      -90.1040   46.0500  103.4550 C.ar  259  TRP259      0.0001
     53  CH2      -91.4830   46.3010  103.6280 C.ar  259  TRP259      0.0015
     54  N       -100.5840   50.4460   96.6010 N.3   465  PRO465     -0.2102
     55  CA       -99.5580   50.7400   97.6210 C.3   465  PRO465      0.1504
     56  C        -99.7650   50.1270   99.0210 C.2   465  PRO465      0.2576
     57  O       -100.9040   49.9680   99.5700 O.2   465  PRO465     -0.2718
     58  CB       -99.5710   52.2740   97.7070 C.3   465  PRO465      0.0282
     59  CG      -100.2860   52.7450   96.4870 C.3   465  PRO465      0.0208
     60  CD      -101.0830   51.6420   95.9120 C.3   465  PRO465      0.0893
     61  N        -98.6280   49.8440   99.6560 N.am  466  GLN466     -0.1966
     62  CA       -98.6210   49.3020  101.0190 C.3   466  GLN466      0.1733
     63  C        -99.0940   50.3000  102.0640 C.2   466  GLN466      0.2616
     64  O        -99.6680   49.8850  103.0930 O.2   466  GLN466     -0.2715
     65  CB       -97.2270   48.7980  101.3940 C.3   466  GLN466      0.0408
     66  CG       -96.8140   47.5330  100.5500 C.3   466  GLN466      0.0908
     67  CD       -95.7190   46.7470  101.2120 C.2   466  GLN466      0.2608
     68  OE1      -95.4840   46.8830  102.4140 O.2   466  GLN466     -0.2717
     69  NE2      -95.0170   45.9260  100.4350 N.am  466  GLN466     -0.0878
     70  N        -98.8620   51.6010  101.8380 N.am  467  ALA467     -0.1964
     71  CA       -99.2930   52.6180  102.8040 C.3   467  ALA467      0.1713
     72  C        -99.7960   53.8440  102.0780 C.2   467  ALA467      0.2458
     73  O        -99.5450   54.0120  100.9050 O.2   467  ALA467     -0.2730
     74  CB       -98.1580   52.9830  103.7770 C.3   467  ALA467      0.0333
     75  N       -100.5930   54.6600  102.7510 N.am  468  PRO468     -0.2716
     76  CA      -101.1440   55.8780  102.1560 C.3   468  PRO468      0.1536
     77  C       -100.0940   56.9830  102.2110 C.2   468  PRO468      0.2598
     78  O        -99.2310   56.9460  103.0880 O.2   468  PRO468     -0.2715
     79  CB      -102.3520   56.1990  103.0960 C.3   468  PRO468      0.0310
     80  CG      -101.8650   55.8160  104.4200 C.3   468  PRO468      0.0237
     81  CD      -101.0940   54.4440  104.1270 C.3   468  PRO468      0.0939
     82  N       -100.1670   57.9450  101.3080 N.am  469  TYR469     -0.1974
     83  CA       -99.4900   59.2160  101.4740 C.3   469  TYR469      0.1639
     84  C       -100.2420   60.1360  102.4290 C.2   469  TYR469      0.2290
     85  O       -101.4750   60.2380  102.3490 O.2   469  TYR469     -0.2864
     86  CB       -99.3730   59.9550  100.1600 C.3   469  TYR469      0.0560
     87  CG       -98.3290   59.4470   99.1700 C.ar  469  TYR469     -0.0198
     88  CD1      -96.9860   59.3760   99.5080 C.ar  469  TYR469     -0.0009
     89  CD2      -98.7070   59.0930   97.8920 C.ar  469  TYR469     -0.0009
     90  CE1      -96.0350   58.9350   98.5770 C.ar  469  TYR469      0.0417
     91  CE2      -97.7910   58.6270   96.9880 C.ar  469  TYR469      0.0417
     92  CZ       -96.4540   58.5600   97.3300 C.ar  469  TYR469      0.1957
     93  OH       -95.5480   58.1570   96.3760 O.3   469  TYR469     -0.2866
     94  N        -99.5960   60.7850   92.3280 N.3   478  PHE478     -0.1241
     95  CA       -99.4930   59.3540   92.0580 C.3   478  PHE478      0.1605
     96  C       -100.5410   58.8330   91.0690 C.2   478  PHE478      0.2264
     97  O       -100.2120   58.0410   90.1770 O.2   478  PHE478     -0.2867
     98  CB       -99.5800   58.5780   93.3790 C.3   478  PHE478      0.0534
     99  CG       -99.3520   57.0940   93.2310 C.ar  478  PHE478     -0.0203
    100  CD1      -98.0560   56.5670   93.2040 C.ar  478  PHE478     -0.0042
    101  CD2     -100.4260   56.2240   93.1280 C.ar  478  PHE478     -0.0042
    102  CE1      -97.8420   55.1920   93.0670 C.ar  478  PHE478     -0.0003
    103  CE2     -100.2250   54.8230   92.9800 C.ar  478  PHE478     -0.0003
    104  CZ       -98.9310   54.3150   92.9360 C.ar  478  PHE478     -0.0000
    105  N       -107.4040   55.3490   96.5950 N.3   494  PHE494     -0.1241
    106  CA      -106.0780   55.7680   97.0590 C.3   494  PHE494      0.1605
    107  C       -106.0460   57.2870   97.4250 C.2   494  PHE494      0.2264
    108  O       -105.3880   57.7130   98.4060 O.2   494  PHE494     -0.2867
    109  CB      -104.9510   55.4300   95.9910 C.3   494  PHE494      0.0534
    110  CG      -103.5660   55.7020   96.5190 C.ar  494  PHE494     -0.0203
    111  CD1     -103.0600   54.9390   97.5920 C.ar  494  PHE494     -0.0042
    112  CD2     -102.7830   56.7500   96.0020 C.ar  494  PHE494     -0.0042
    113  CE1     -101.8590   55.2320   98.1920 C.ar  494  PHE494     -0.0003
    114  CE2     -101.5090   57.0280   96.5350 C.ar  494  PHE494     -0.0003
    115  CZ      -101.0300   56.2820   97.6460 C.ar  494  PHE494     -0.0000
    116  N        -95.1110   48.6650   92.0580 N.3   542  LEU542     -0.1245
    117  CA       -96.0580   49.6880   91.5750 C.3   542  LEU542      0.1561
    118  C        -95.7720   50.1260   90.1560 C.2   542  LEU542      0.2260
    119  O        -94.5950   50.1780   89.6890 O.2   542  LEU542     -0.2867
    120  CB       -96.1010   50.9030   92.5440 C.3   542  LEU542      0.0270
    121  CG       -96.5090   50.6170   93.9990 C.3   542  LEU542      0.0019
    122  CD1      -96.2200   51.8690   94.8690 C.3   542  LEU542      0.0001
    123  CD2      -98.0090   50.1650   94.1160 C.3   542  LEU542      0.0001
@<TRIPOS>BOND
     1   119   118    2
     2   118   117    1
     3    97    96    2
     4    96    95    1
     5     8     6    1
     6   117   116    1
     7   117   120    1
     8    95    94    1
     9    95    98    1
    10     1     2    1
    11   120   121    1
    12     6     5    1
    13   104   103   ar
    14   104   102   ar
    15   103   101   ar
    16   102   100   ar
    17     2     5    1
    18     2     3    1
    19   101    99   ar
    20   100    99   ar
    21    99    98    1
    22     5     7    1
    23   121   123    1
    24   121   122    1
    25     3     4    2
    26    35    34    2
    27    34    33    1
    28    60    59    1
    29    60    54    1
    30   109   110    1
    31   109   106    1
    32   112   110   ar
    33   112   114   ar
    34    33    32    1
    35    33    36    1
    36    93    92    1
    37    59    58    1
    38   110   111   ar
    39   114   115   ar
    40   105   106    1
    41    54    55    1
    42    91    92   ar
    43    91    89   ar
    44   106   107    1
    45    92    90   ar
    46   107   108    2
    47    36    37    1
    48    21    22    1
    49    21    23    1
    50    21    18    1
    51   111   113   ar
    52    55    58    1
    53    55    56    1
    54     9    10    1
    55   115   113   ar
    56    27    26    2
    57    20    19    2
    58    39    37    1
    59    89    87   ar
    60    26    25    1
    61    17    18    1
    62    17    11   am
    63    37    38    1
    64    90    88   ar
    65    19    18    1
    66    19    24   am
    67    56    57    2
    68    56    61   am
    69    10    11    1
    70    10    13    1
    71    87    88   ar
    72    87    86    1
    73    16    14   ar
    74    11    12    2
    75    14    15   ar
    76    14    13    1
    77    24    25    1
    78    25    28    1
    79    61    62    1
    80    86    83    1
    81    69    67   am
    82    66    67    1
    83    66    65    1
    84    29    28    1
    85    29    30    1
    86    73    72    2
    87    62    65    1
    88    62    63    1
    89    67    68    2
    90    82    83    1
    91    82    77   am
    92    83    84    1
    93    70    63   am
    94    70    71    1
    95    30    31    1
    96    63    64    2
    97    72    75   am
    98    72    71    1
    99    76    77    1
   100    76    75    1
   101    76    79    1
   102    77    78    2
   103    85    84    2
   104    75    81    1
   105    71    74    1
   106    79    80    1
   107    52    53   ar
   108    52    50   ar
   109    53    51   ar
   110    50    47   ar
   111    81    80    1
   112    51    49   ar
   113    47    49   ar
   114    47    45   ar
   115    49    48   ar
   116    45    44    1
   117    45    46   ar
   118    44    41    1
   119    48    46   ar
   120    40    41    1
   121    41    42    1
   122    42    43    2
