@<TRIPOS>MOLECULE
tmp/4z3xA02.pdb
 123 122 0 0 0
SMALL
GASTEIGER

@<TRIPOS>ATOM
      1  N         52.3890   53.7940   12.4430 N.3   236  ILE236     -0.1245
      2  CA        53.5610   54.2560   11.6910 C.3   236  ILE236      0.1561
      3  C         53.1680   55.3800   10.7280 C.2   236  ILE236      0.2260
      4  O         52.2880   55.1900    9.8800 O.2   236  ILE236     -0.2867
      5  CB        54.2090   53.0960   10.8950 C.3   236  ILE236      0.0252
      6  CG1       54.4430   51.8510   11.7810 C.3   236  ILE236      0.0019
      7  CG2       55.4570   53.5980   10.1820 C.3   236  ILE236      0.0019
      8  CD1       55.2740   52.1000   13.0400 C.3   236  ILE236      0.0001
      9  N         52.4730   57.8780    7.7710 N.3   238  ASP238     -0.1225
     10  CA        52.4280   57.7550    6.3000 C.3   238  ASP238      0.1805
     11  C         52.3310   56.3490    5.7220 C.2   238  ASP238      0.2598
     12  O         52.5280   56.1590    4.5310 O.2   238  ASP238     -0.2718
     13  CB        53.6470   58.4480    5.7090 C.3   238  ASP238      0.1424
     14  CG        53.7360   59.8910    6.1510 C.2   238  ASP238      0.3668
     15  OD1       52.6670   60.5450    6.2470 O.co2 238  ASP238     -0.2456
     16  OD2       54.8550   60.3580    6.4470 O.co2 238  ASP238     -0.2456
     17  N         51.9870   55.3750    6.5480 N.am  239  VAL239     -0.1966
     18  CA        51.7170   54.0250    6.0770 C.3   239  VAL239      0.1727
     19  C         50.2110   53.8080    6.0040 C.2   239  VAL239      0.2616
     20  O         49.4570   54.1980    6.9240 O.2   239  VAL239     -0.2715
     21  CB        52.3610   52.9540    7.0100 C.3   239  VAL239      0.0290
     22  CG1       51.9150   51.5170    6.6130 C.3   239  VAL239      0.0023
     23  CG2       53.9000   53.0700    6.9670 C.3   239  VAL239      0.0023
     24  N         49.7600   53.1740    4.9310 N.am  240  MET240     -0.1977
     25  CA        48.3460   52.8110    4.8220 C.3   240  MET240      0.1605
     26  C         47.7790   52.1030    6.0730 C.2   240  MET240      0.2287
     27  O         48.4750   51.3760    6.7800 O.2   240  MET240     -0.2864
     28  CB        48.1500   51.9420    3.5910 C.3   240  MET240      0.0413
     29  CG        49.0490   50.7080    3.5600 C.3   240  MET240      0.0598
     30  SD        48.7610   49.7870    2.0520 S.3   240  MET240     -0.1393
     31  CE        46.9690   49.9690    1.9590 C.3   240  MET240      0.0692
     32  N         48.2680   48.3080    7.0670 N.3   243  LEU243     -0.1245
     33  CA        49.5800   47.9080    7.5860 C.3   243  LEU243      0.1561
     34  C         50.2330   48.8190    8.6410 C.2   243  LEU243      0.2260
     35  O         51.3350   48.5100    9.0870 O.2   243  LEU243     -0.2867
     36  CB        50.5650   47.7750    6.4070 C.3   243  LEU243      0.0270
     37  CG        50.1180   46.7500    5.3460 C.3   243  LEU243      0.0019
     38  CD1       51.0210   46.7330    4.0990 C.3   243  LEU243      0.0001
     39  CD2       49.9970   45.3340    5.9640 C.3   243  LEU243      0.0001
     40  N         45.7800   50.4810   -2.6010 N.3   259  TRP259     -0.1241
     41  CA        47.1250   49.9590   -2.7050 C.3   259  TRP259      0.1605
     42  C         47.0910   48.5710   -3.3360 C.2   259  TRP259      0.2264
     43  O         47.7970   48.3300   -4.3090 O.2   259  TRP259     -0.2867
     44  CB        47.7810   49.9180   -1.3140 C.3   259  TRP259      0.0550
     45  CG        49.2380   49.5080   -1.3000 C.ar  259  TRP259      0.0003
     46  CD1       50.3070   50.2580   -1.7110 C.ar  259  TRP259      0.0946
     47  CD2       49.7790   48.2560   -0.8370 C.ar  259  TRP259      0.0152
     48  NE1       51.4710   49.5430   -1.5390 N.ar  259  TRP259     -0.2442
     49  CE2       51.1790   48.3140   -1.0170 C.ar  259  TRP259      0.0810
     50  CE3       49.2160   47.0900   -0.3100 C.ar  259  TRP259      0.0012
     51  CZ2       52.0170   47.2680   -0.6540 C.ar  259  TRP259      0.0191
     52  CZ3       50.0650   46.0360    0.0440 C.ar  259  TRP259      0.0001
     53  CH2       51.4480   46.1370   -0.1340 C.ar  259  TRP259      0.0015
     54  N         61.1160   48.0820    7.2070 N.3   465  PRO465     -0.2102
     55  CA        60.1340   48.7380    6.3310 C.3   465  PRO465      0.1504
     56  C         60.1980   48.3400    4.8560 C.2   465  PRO465      0.2576
     57  O         61.3050   48.1850    4.2550 O.2   465  PRO465     -0.2718
     58  CB        60.4450   50.2340    6.5110 C.3   465  PRO465      0.0282
     59  CG        61.0520   50.3250    7.9110 C.3   465  PRO465      0.0208
     60  CD        61.7930   49.0130    8.1240 C.3   465  PRO465      0.0893
     61  N         59.0140   48.1980    4.2440 N.am  466  GLN466     -0.1966
     62  CA        58.9600   47.8300    2.8000 C.3   466  GLN466      0.1733
     63  C         59.5200   48.8700    1.8120 C.2   466  GLN466      0.2616
     64  O         59.7620   48.5440    0.6550 O.2   466  GLN466     -0.2715
     65  CB        57.5140   47.5230    2.3810 C.3   466  GLN466      0.0408
     66  CG        56.9740   46.1700    2.8640 C.3   466  GLN466      0.0908
     67  CD        55.7250   45.7240    2.1040 C.2   466  GLN466      0.2608
     68  OE1       55.5180   46.1110    0.9560 O.2   466  GLN466     -0.2717
     69  NE2       54.8810   44.9070    2.7560 N.am  466  GLN466     -0.0878
     70  N         59.6290   50.1300    2.2470 N.am  467  ALA467     -0.1964
     71  CA        60.0660   51.2470    1.4250 C.3   467  ALA467      0.1713
     72  C         60.6360   52.3110    2.3330 C.2   467  ALA467      0.2458
     73  O         60.2720   52.4120    3.5180 O.2   467  ALA467     -0.2730
     74  CB        58.9090   51.8280    0.5780 C.3   467  ALA467      0.0333
     75  N         61.5260   53.1500    1.7760 N.am  468  PRO468     -0.2716
     76  CA        62.1770   54.2420    2.4860 C.3   468  PRO468      0.1536
     77  C         61.2770   55.4870    2.5630 C.2   468  PRO468      0.2598
     78  O         60.4280   55.6640    1.6760 O.2   468  PRO468     -0.2715
     79  CB        63.4180   54.5050    1.6110 C.3   468  PRO468      0.0310
     80  CG        62.9110   54.2420    0.2380 C.3   468  PRO468      0.0237
     81  CD        61.9870   53.0330    0.3840 C.3   468  PRO468      0.0939
     82  N         61.4380   56.3050    3.5940 N.am  469  TYR469     -0.1974
     83  CA        60.8230   57.6450    3.6290 C.3   469  TYR469      0.1639
     84  C         61.5800   58.6060    2.6970 C.2   469  TYR469      0.2290
     85  O         62.8010   58.5000    2.5950 O.2   469  TYR469     -0.2864
     86  CB        60.8550   58.2350    5.0310 C.3   469  TYR469      0.0560
     87  CG        59.8440   57.7070    6.0190 C.ar  469  TYR469     -0.0198
     88  CD1       58.4920   57.9930    5.8810 C.ar  469  TYR469     -0.0009
     89  CD2       60.2560   56.9950    7.1450 C.ar  469  TYR469     -0.0009
     90  CE1       57.5610   57.5260    6.8130 C.ar  469  TYR469      0.0417
     91  CE2       59.3200   56.5280    8.0850 C.ar  469  TYR469      0.0417
     92  CZ        57.9920   56.8000    7.9110 C.ar  469  TYR469      0.1957
     93  OH        57.1010   56.3590    8.8630 O.3   469  TYR469     -0.2866
     94  N         61.4830   57.7840   12.9030 N.3   478  PHE478     -0.1241
     95  CA        61.1780   56.3620   12.9400 C.3   478  PHE478      0.1605
     96  C         62.1890   55.5700   13.7700 C.2   478  PHE478      0.2264
     97  O         61.7810   54.7460   14.5760 O.2   478  PHE478     -0.2867
     98  CB        61.0800   55.7920   11.5220 C.3   478  PHE478      0.0534
     99  CG        60.7530   54.3040   11.4820 C.ar  478  PHE478     -0.0203
    100  CD1       59.4350   53.8650   11.4580 C.ar  478  PHE478     -0.0042
    101  CD2       61.7680   53.3480   11.4510 C.ar  478  PHE478     -0.0042
    102  CE1       59.1250   52.4960   11.4400 C.ar  478  PHE478     -0.0003
    103  CE2       61.4570   51.9820   11.4370 C.ar  478  PHE478     -0.0003
    104  CZ        60.1470   51.5630   11.4230 C.ar  478  PHE478     -0.0000
    105  N         68.3750   52.1480    7.4870 N.3   494  PHE494     -0.1241
    106  CA        67.1460   52.8530    7.1560 C.3   494  PHE494      0.1605
    107  C         67.2950   54.3860    7.0260 C.2   494  PHE494      0.2264
    108  O         66.5660   55.0380    6.2500 O.2   494  PHE494     -0.2867
    109  CB        66.0350   52.5230    8.2040 C.3   494  PHE494      0.0534
    110  CG        64.6880   53.0200    7.7990 C.ar  494  PHE494     -0.0203
    111  CD1       64.0400   52.4650    6.7020 C.ar  494  PHE494     -0.0042
    112  CD2       64.0740   54.0630    8.4970 C.ar  494  PHE494     -0.0042
    113  CE1       62.8240   52.9410    6.2770 C.ar  494  PHE494     -0.0003
    114  CE2       62.8420   54.5400    8.1000 C.ar  494  PHE494     -0.0003
    115  CZ        62.2150   53.9710    6.9720 C.ar  494  PHE494     -0.0000
    116  N         55.5520   46.3630   11.6620 N.3   542  LEU542     -0.1245
    117  CA        56.5860   47.2250   12.2150 C.3   542  LEU542      0.1561
    118  C         56.4560   47.4580   13.7240 C.2   542  LEU542      0.2260
    119  O         55.3590   47.6260   14.2510 O.2   542  LEU542     -0.2867
    120  CB        56.6120   48.5850   11.4570 C.3   542  LEU542      0.0270
    121  CG        57.1140   48.4810    9.9810 C.3   542  LEU542      0.0019
    122  CD1       57.1020   49.8350    9.2650 C.3   542  LEU542      0.0001
    123  CD2       58.5250   47.8360    9.8100 C.3   542  LEU542      0.0001
@<TRIPOS>BOND
     1    43    42    2
     2    42    41    1
     3    41    40    1
     4    41    44    1
     5    46    48   ar
     6    46    45   ar
     7    48    49   ar
     8    44    45    1
     9    45    47   ar
    10    49    47   ar
    11    49    51   ar
    12    47    50   ar
    13    51    53   ar
    14    50    52   ar
    15    53    52   ar
    16    80    81    1
    17    80    79    1
    18    81    75    1
    19    74    71    1
    20    64    63    2
    21    68    67    2
    22    71    70    1
    23    71    72    1
    24    79    76    1
    25    78    77    2
    26    75    72   am
    27    75    76    1
    28    63    70   am
    29    63    62    1
    30    31    30    1
    31    30    29    1
    32    67    69   am
    33    67    66    1
    34    72    73    2
    35    65    62    1
    36    65    66    1
    37    76    77    1
    38    77    82   am
    39    85    84    2
    40    84    83    1
    41    62    61    1
    42    29    28    1
    43    28    25    1
    44    82    83    1
    45    83    86    1
    46    38    37    1
    47    61    56   am
    48    57    56    2
    49    12    11    2
    50    25    24    1
    51    25    26    1
    52    56    55    1
    53    24    19   am
    54    86    87    1
    55    37    39    1
    56    37    36    1
    57    13    14    1
    58    13    10    1
    59    11    10    1
    60    11    17   am
    61    88    87   ar
    62    88    90   ar
    63    19    18    1
    64    19    20    2
    65    87    89   ar
    66    26    27    2
    67    18    17    1
    68    18    21    1
    69    14    15   ar
    70    14    16   ar
    71   108   107    2
    72   113   111   ar
    73   113   115   ar
    74    10     9    1
    75    55    58    1
    76    55    54    1
    77    36    33    1
    78    58    59    1
    79    22    21    1
    80   111   110   ar
    81    90    92   ar
    82    23    21    1
    83   115   114   ar
    84   107   106    1
    85    32    33    1
    86    89    91   ar
    87   106   105    1
    88   106   109    1
    89    54    60    1
    90    33    34    1
    91   110   109    1
    92   110   112   ar
    93    59    60    1
    94    92    91   ar
    95    92    93    1
    96   114   112   ar
    97    34    35    2
    98   122   121    1
    99   123   121    1
   100     4     3    2
   101   121   120    1
   102     7     5    1
   103     3     2    1
   104     5     2    1
   105     5     6    1
   106   104   103   ar
   107   104   102   ar
   108   103   101   ar
   109   102   100   ar
   110   101    99   ar
   111   120   117    1
   112   100    99   ar
   113    99    98    1
   114    98    95    1
   115   116   117    1
   116     2     1    1
   117     6     8    1
   118   117   118    1
   119    94    95    1
   120    95    96    1
   121   118   119    2
   122    96    97    2
