@<TRIPOS>MOLECULE
tmp/4z48B00.pdb
 162 151 0 0 0
SMALL
GASTEIGER

@<TRIPOS>ATOM
      1  N         -4.6220   14.0950   44.7320 N.3    22  SER22      -0.1217
      2  CA        -3.3660   14.3860   44.0420 C.3    22  SER22       0.1889
      3  C         -2.2500   14.7250   45.0100 C.2    22  SER22       0.2288
      4  O         -2.4950   15.1570   46.1310 O.2    22  SER22      -0.2866
      5  CB        -3.5460   15.5390   43.0520 C.3    22  SER22       0.2089
      6  OG        -3.7520   16.7750   43.7220 O.3    22  SER22      -0.2183
      7  N          1.8630   16.6200   44.7590 N.3    24  SER24      -0.1217
      8  CA         2.8650   17.2890   43.9350 C.3    24  SER24       0.1889
      9  C          3.9150   17.9500   44.8180 C.2    24  SER24       0.2288
     10  O          3.6790   18.2270   45.9910 O.2    24  SER24      -0.2866
     11  CB         2.2390   18.3050   42.9740 C.3    24  SER24       0.2089
     12  OG         1.9170   19.5620   43.5550 O.3    24  SER24      -0.2183
     13  N          7.8540   23.1890   48.5430 N.3    40  PHE40      -0.1241
     14  CA         6.7080   22.6710   49.2690 C.3    40  PHE40       0.1605
     15  C          6.1030   21.4530   48.5890 C.2    40  PHE40       0.2264
     16  O          6.4110   21.1700   47.4450 O.2    40  PHE40      -0.2867
     17  CB         5.6380   23.7620   49.4830 C.3    40  PHE40       0.0534
     18  CG         5.0880   24.4650   48.2480 C.ar   40  PHE40      -0.0203
     19  CD1        5.7560   25.5520   47.6870 C.ar   40  PHE40      -0.0042
     20  CD2        3.8790   24.0750   47.6880 C.ar   40  PHE40      -0.0042
     21  CE1        5.2450   26.2010   46.5610 C.ar   40  PHE40      -0.0003
     22  CE2        3.3550   24.7370   46.5770 C.ar   40  PHE40      -0.0003
     23  CZ         4.0240   25.8080   46.0350 C.ar   40  PHE40      -0.0000
     24  N          2.2280   19.4460   48.1130 N.3    42  THR42      -0.1218
     25  CA         0.7900   19.6830   48.1920 C.3    42  THR42       0.1862
     26  C          0.0420   18.3750   48.1010 C.2    42  THR42       0.2287
     27  O          0.2580   17.6060   47.1510 O.2    42  THR42      -0.2866
     28  CB         0.2980   20.6410   47.0900 C.3    42  THR42       0.1770
     29  OG1        1.1100   21.8240   47.1050 O.3    42  THR42      -0.2211
     30  CG2       -1.1870   20.9950   47.2450 C.3    42  THR42       0.0375
     31  N         -3.9780   16.9490   48.0540 N.3    44  SER44      -0.1217
     32  CA        -5.3380   17.4120   47.7550 C.3    44  SER44       0.1889
     33  C         -6.2540   16.2390   47.6690 C.2    44  SER44       0.2288
     34  O         -5.8450   15.1970   47.1830 O.2    44  SER44      -0.2866
     35  CB        -5.4270   18.2040   46.4460 C.3    44  SER44       0.2089
     36  OG        -4.4500   19.2280   46.3620 O.3    44  SER44      -0.2183
     37  N         -0.6620   22.1360   52.3260 N.3    58  ILE58      -0.1245
     38  CA         0.5890   22.5930   51.7070 C.3    58  ILE58       0.1561
     39  C          1.6560   22.5580   52.8160 C.2    58  ILE58       0.2260
     40  O          1.4620   23.1720   53.8680 O.2    58  ILE58      -0.2867
     41  CB         0.4270   23.9990   51.0620 C.3    58  ILE58       0.0252
     42  CG1       -0.7160   24.0230   49.9880 C.3    58  ILE58       0.0019
     43  CG2        1.7590   24.5210   50.5260 C.3    58  ILE58       0.0019
     44  CD1       -1.0540   25.4100   49.4330 C.3    58  ILE58       0.0001
     45  N          0.6050   35.4530   49.8100 N.3   106  PHE106     -0.1241
     46  CA         0.8700   34.0690   50.2210 C.3   106  PHE106      0.1605
     47  C          2.4090   33.8340   50.2610 C.2   106  PHE106      0.2264
     48  O          3.0630   33.8020   49.2170 O.2   106  PHE106     -0.2867
     49  CB         0.2040   33.0570   49.2380 C.3   106  PHE106      0.0534
     50  CG         0.5830   31.5970   49.4300 C.ar  106  PHE106     -0.0203
     51  CD1        0.0610   30.8570   50.4960 C.ar  106  PHE106     -0.0042
     52  CD2        1.3840   30.9360   48.4950 C.ar  106  PHE106     -0.0042
     53  CE1        0.4050   29.5070   50.6720 C.ar  106  PHE106     -0.0003
     54  CE2        1.7720   29.5950   48.6980 C.ar  106  PHE106     -0.0003
     55  CZ         1.2470   28.8800   49.7670 C.ar  106  PHE106     -0.0000
     56  N          1.3550   35.4670   44.5800 N.3   110  LEU110     -0.1245
     57  CA         0.0570   34.8630   44.8540 C.3   110  LEU110      0.1561
     58  C         -0.5020   35.4700   46.1240 C.2   110  LEU110      0.2260
     59  O          0.2500   35.7780   47.0640 O.2   110  LEU110     -0.2867
     60  CB         0.1930   33.3350   45.0440 C.3   110  LEU110      0.0270
     61  CG         0.4520   32.4600   43.8010 C.3   110  LEU110      0.0019
     62  CD1        1.8140   32.7390   43.1650 C.3   110  LEU110      0.0001
     63  CD2        0.4280   31.0160   44.1940 C.3   110  LEU110      0.0001
     64  N         -5.7200   32.9230   46.0830 N.3   114  ASP114     -0.1225
     65  CA        -5.2560   32.2510   44.8550 C.3   114  ASP114      0.1805
     66  C         -4.9730   30.7630   45.0580 C.2   114  ASP114      0.2597
     67  O         -4.9140   30.0030   44.0980 O.2   114  ASP114     -0.2718
     68  CB        -4.0010   32.9650   44.3200 C.3   114  ASP114      0.1424
     69  CG        -4.2520   34.4180   43.9130 C.2   114  ASP114      0.3668
     70  OD1       -5.3750   34.7260   43.4480 O.co2 114  ASP114     -0.2456
     71  OD2       -3.3000   35.2210   43.9640 O.co2 114  ASP114     -0.2456
     72  N         -4.8290   30.3480   46.3080 N.am  115  ILE115     -0.1980
     73  CA        -4.5640   28.9790   46.7090 C.3   115  ILE115      0.1595
     74  C         -5.8710   28.1760   46.7620 C.2   115  ILE115      0.2287
     75  O         -5.8320   26.9390   46.7940 O.2   115  ILE115     -0.2864
     76  CB        -3.8720   29.1070   48.0940 C.3   115  ILE115      0.0276
     77  CG1       -2.4570   29.7510   47.9480 C.3   115  ILE115      0.0022
     78  CG2       -3.8660   27.8470   48.9540 C.3   115  ILE115      0.0022
     79  CD1       -1.6030   29.3420   46.9430 C.3   115  ILE115      0.0001
     80  N         -9.3930   27.1610   41.7240 N.3   118  LEU118     -0.1245
     81  CA        -9.3170   28.0290   40.5410 C.3   118  LEU118      0.1561
     82  C        -10.5250   27.8350   39.6140 C.2   118  LEU118      0.2260
     83  O        -10.8460   28.7450   38.8450 O.2   118  LEU118     -0.2867
     84  CB        -8.0030   27.7510   39.7450 C.3   118  LEU118      0.0270
     85  CG        -7.5390   28.7950   38.7180 C.3   118  LEU118      0.0019
     86  CD1       -7.1120   30.1030   39.4010 C.3   118  LEU118      0.0001
     87  CD2       -6.3500   28.2640   37.9090 C.3   118  LEU118      0.0001
     88  N         -0.8100   36.2990   34.7110 N.3   184  LEU184     -0.1245
     89  CA        -0.5220   34.8840   34.9040 C.3   184  LEU184      0.1561
     90  C         -0.1070   34.2450   33.6020 C.2   184  LEU184      0.2260
     91  O         -0.7390   34.4710   32.5620 O.2   184  LEU184     -0.2867
     92  CB        -1.7030   34.1130   35.5240 C.3   184  LEU184      0.0270
     93  CG        -2.0390   34.3400   36.9870 C.3   184  LEU184      0.0019
     94  CD1       -2.5630   35.7820   37.2310 C.3   184  LEU184      0.0001
     95  CD2       -3.0990   33.3250   37.4380 C.3   184  LEU184      0.0001
     96  N          0.8640   30.4150   32.2270 N.3   186  PHE186     -0.1241
     97  CA         0.8530   28.9710   32.4530 C.3   186  PHE186      0.1605
     98  C          1.7790   28.4570   31.3620 C.2   186  PHE186      0.2264
     99  O          1.3580   28.1530   30.2430 O.2   186  PHE186     -0.2867
    100  CB        -0.5850   28.4270   32.3960 C.3   186  PHE186      0.0534
    101  CG        -1.5780   29.0660   33.3610 C.ar  186  PHE186     -0.0203
    102  CD1       -2.1080   30.3350   33.1110 C.ar  186  PHE186     -0.0042
    103  CD2       -2.0110   28.3810   34.4910 C.ar  186  PHE186     -0.0042
    104  CE1       -3.0000   30.9350   34.0150 C.ar  186  PHE186     -0.0003
    105  CE2       -2.9320   28.9660   35.3850 C.ar  186  PHE186     -0.0003
    106  CZ        -3.4210   30.2360   35.1460 C.ar  186  PHE186     -0.0000
    107  N         -2.2620   18.8090   32.9690 N.3   197  THR197     -0.1203
    108  CA        -1.8880   19.4690   34.2020 C.3   197  THR197      0.1994
    109  C         -0.8430   20.5390   33.9520 C.2   197  THR197      0.2617
    110  O          0.1450   20.2910   33.2710 O.2   197  THR197     -0.2717
    111  CB        -1.3240   18.3820   35.1650 C.3   197  THR197      0.1784
    112  OG1       -2.2680   17.3140   35.2620 O.3   197  THR197     -0.2211
    113  CG2       -1.0380   18.9100   36.5590 C.3   197  THR197      0.0376
    114  N         -1.0570   21.7270   34.5440 N.am  198  VAL198     -0.1979
    115  CA        -0.1040   22.8480   34.4880 C.3   198  VAL198      0.1595
    116  C          1.0550   22.4830   35.4240 C.2   198  VAL198      0.2287
    117  O          0.8140   22.0710   36.5660 O.2   198  VAL198     -0.2864
    118  CB        -0.7730   24.2030   34.8710 C.3   198  VAL198      0.0276
    119  CG1        0.2760   25.3140   35.0550 C.3   198  VAL198      0.0022
    120  CG2       -1.8430   24.6100   33.8470 C.3   198  VAL198      0.0022
    121  N          6.7720   29.3860   39.6280 N.3   213  ILE213     -0.1245
    122  CA         6.5750   28.1250   40.3260 C.3   213  ILE213      0.1561
    123  C          6.7970   26.9770   39.3590 C.2   213  ILE213      0.2260
    124  O          6.2280   26.9790   38.2700 O.2   213  ILE213     -0.2867
    125  CB         5.2120   27.9930   41.0150 C.3   213  ILE213      0.0252
    126  CG1        4.8080   29.2960   41.7820 C.3   213  ILE213      0.0019
    127  CG2        5.2200   26.7590   41.9380 C.3   213  ILE213      0.0019
    128  CD1        3.3010   29.2760   42.2850 C.3   213  ILE213      0.0001
    129  N          6.4130   22.7680   39.2270 N.3   215  TRP215     -0.1241
    130  CA         5.9060   21.5510   39.8590 C.3   215  TRP215      0.1605
    131  C          6.6060   20.3150   39.2740 C.2   215  TRP215      0.2264
    132  O          6.8230   20.2350   38.0650 O.2   215  TRP215     -0.2867
    133  CB         4.3770   21.4210   39.6910 C.3   215  TRP215      0.0550
    134  CG         3.5770   22.3630   40.5480 C.ar  215  TRP215      0.0003
    135  CD1        3.0530   22.1060   41.7820 C.ar  215  TRP215      0.0946
    136  CD2        3.1230   23.6810   40.1830 C.ar  215  TRP215      0.0152
    137  NE1        2.4050   23.2210   42.2600 N.ar  215  TRP215     -0.2442
    138  CE2        2.3780   24.1840   41.2750 C.ar  215  TRP215      0.0810
    139  CE3        3.3290   24.5130   39.0670 C.ar  215  TRP215      0.0012
    140  CZ2        1.7830   25.4580   41.2570 C.ar  215  TRP215      0.0191
    141  CZ3        2.7800   25.7940   39.0710 C.ar  215  TRP215      0.0001
    142  CH2        2.0010   26.2490   40.1530 C.ar  215  TRP215      0.0015
    143  N          4.3620   14.9990   40.1980 N.3   218  LEU218     -0.1245
    144  CA         2.9140   15.1260   40.2700 C.3   218  LEU218      0.1561
    145  C          2.2610   13.7480   40.0900 C.2   218  LEU218      0.2260
    146  O          2.6430   13.0080   39.1830 O.2   218  LEU218     -0.2867
    147  CB         2.4390   16.1050   39.1860 C.3   218  LEU218      0.0270
    148  CG         3.0240   17.5300   39.2190 C.3   218  LEU218      0.0019
    149  CD1        4.1570   17.6830   38.1990 C.3   218  LEU218      0.0001
    150  CD2        1.9630   18.5440   38.8820 C.3   218  LEU218      0.0001
    151  N         -1.7360   11.4790   40.5120 N.3   220  TYR220     -0.1241
    152  CA        -3.1700   11.4910   40.8060 C.3   220  TYR220      0.1605
    153  C         -3.5950   10.1760   41.3620 C.2   220  TYR220      0.2264
    154  O         -3.0290    9.1560   40.9840 O.2   220  TYR220     -0.2867
    155  CB        -3.9950   11.7800   39.5610 C.3   220  TYR220      0.0534
    156  CG        -3.8410   13.1880   39.0550 C.ar  220  TYR220     -0.0201
    157  CD1       -4.3700   14.2670   39.7640 C.ar  220  TYR220     -0.0009
    158  CD2       -3.1700   13.4510   37.8670 C.ar  220  TYR220     -0.0009
    159  CE1       -4.2600   15.5650   39.2890 C.ar  220  TYR220      0.0417
    160  CE2       -3.0290   14.7530   37.3950 C.ar  220  TYR220      0.0417
    161  CZ        -3.5860   15.8040   38.1070 C.ar  220  TYR220      0.1957
    162  OH        -3.4990   17.0850   37.6380 O.3   220  TYR220     -0.2866
@<TRIPOS>BOND
     1    99    98    2
     2    98    97    1
     3    96    97    1
     4   100    97    1
     5   100   101    1
     6    91    90    2
     7   107   108    1
     8   102   101   ar
     9   102   104   ar
    10   110   109    2
    11   101   103   ar
    12    90    89    1
    13   120   118    1
    14   109   108    1
    15   109   114   am
    16   104   106   ar
    17   108   111    1
    18   115   114    1
    19   115   118    1
    20   115   116    1
    21   103   105   ar
    22    88    89    1
    23   118   119    1
    24    89    92    1
    25   106   105   ar
    26   111   112    1
    27   111   113    1
    28   116   117    2
    29    92    93    1
    30    93    94    1
    31    93    95    1
    32   160   158   ar
    33   160   161   ar
    34   162   161    1
    35   158   156   ar
    36    87    85    1
    37   132   131    2
    38   161   159   ar
    39   149   148    1
    40   124   123    2
    41    85    86    1
    42    85    84    1
    43    83    82    2
    44   150   148    1
    45   156   155    1
    46   156   157   ar
    47   139   141   ar
    48   139   136   ar
    49   141   142   ar
    50   146   145    2
    51   147   148    1
    52   147   144    1
    53   129   130    1
    54   131   130    1
    55   159   157   ar
    56   123   122    1
    57   155   152    1
    58    82    81    1
    59   121   122    1
    60   133   130    1
    61   133   134    1
    62    84    81    1
    63   145   144    1
    64   142   140   ar
    65   136   134   ar
    66   136   138   ar
    67   143   144    1
    68   122   125    1
    69   151   152    1
    70    81    80    1
    71   134   135   ar
    72   152   153    1
    73   154   153    2
    74   125   126    1
    75   125   127    1
    76   140   138   ar
    77   138   137   ar
    78   126   128    1
    79   135   137   ar
    80    11    12    1
    81    11     8    1
    82     5     6    1
    83     5     2    1
    84    62    61    1
    85    70    69   ar
    86    61    63    1
    87    61    60    1
    88    69    71   ar
    89    69    68    1
    90     8     7    1
    91     8     9    1
    92     2     1    1
    93     2     3    1
    94    67    66    2
    95    68    65    1
    96    56    57    1
    97     9    10    2
    98    57    60    1
    99    57    58    1
   100    65    66    1
   101    65    64    1
   102     3     4    2
   103    66    72   am
   104    23    21   ar
   105    23    22   ar
   106    58    59    2
   107    72    73    1
   108    36    35    1
   109    35    32    1
   110    21    19   ar
   111    22    20   ar
   112    73    74    1
   113    73    76    1
   114    74    75    2
   115    79    77    1
   116    28    29    1
   117    28    30    1
   118    28    25    1
   119    27    26    2
   120    34    33    2
   121    16    15    2
   122    33    32    1
   123    19    18   ar
   124    20    18   ar
   125    32    31    1
   126    77    76    1
   127    76    78    1
   128    26    25    1
   129    24    25    1
   130    18    17    1
   131    52    54   ar
   132    52    50   ar
   133    13    14    1
   134    15    14    1
   135    54    55   ar
   136    48    47    2
   137    49    50    1
   138    49    46    1
   139    14    17    1
   140    50    51   ar
   141    44    42    1
   142    55    53   ar
   143    45    46    1
   144    42    41    1
   145    46    47    1
   146    51    53   ar
   147    43    41    1
   148    41    38    1
   149    38    37    1
   150    38    39    1
   151    39    40    2
