@<TRIPOS>MOLECULE
tmp/4z4pA00.pdb
 169 169 0 0 0
SMALL
GASTEIGER

@<TRIPOS>ATOM
      1  N          5.9700    9.3110   -6.8600 N.3    27  ILE27      -0.1231
      2  CA         4.6960    9.9950   -6.6660 C.3    27  ILE27       0.1692
      3  C          4.2550    9.9330   -5.2130 C.2    27  ILE27       0.2592
      4  O          4.1350   10.9560   -4.5640 O.2    27  ILE27      -0.2718
      5  CB         3.6210    9.3950   -7.5840 C.3    27  ILE27       0.0266
      6  CG1        3.9890    9.6990   -9.0360 C.3    27  ILE27       0.0019
      7  CG2        2.2550    9.9620   -7.2690 C.3    27  ILE27       0.0020
      8  CD1        3.1260    8.9930  -10.0470 C.3    27  ILE27       0.0001
      9  N          4.0260    8.7290   -4.7020 N.am   28  GLN28      -0.1966
     10  CA         3.5820    8.5670   -3.3250 C.3    28  GLN28       0.1733
     11  C          3.7960    7.1370   -2.8650 C.2    28  GLN28       0.2617
     12  O          3.4650    6.1910   -3.5810 O.2    28  GLN28      -0.2715
     13  CB         2.1000    8.9480   -3.1790 C.3    28  GLN28       0.0408
     14  CG         1.7120    9.3450   -1.7450 C.3    28  GLN28       0.0908
     15  CD         2.3650   10.6760   -1.2800 C.2    28  GLN28       0.2608
     16  OE1        3.0240   11.3780   -2.0560 O.2    28  GLN28      -0.2717
     17  NE2        2.1530   11.0280   -0.0170 N.am   28  GLN28      -0.0878
     18  N          4.3710    6.9820   -1.6810 N.am   29  GLY29      -0.1940
     19  CA         4.5500    5.6750   -1.0750 C.3    29  GLY29       0.2014
     20  C          5.3500    4.7020   -1.9220 C.2    29  GLY29       0.2638
     21  O          6.4500    5.0180   -2.3900 O.2    29  GLY29      -0.2714
     22  N          4.7900    3.5100   -2.1080 N.am   30  LEU30      -0.1977
     23  CA         5.3660    2.5030   -2.9990 C.3    30  LEU30       0.1596
     24  C          4.7560    2.6060   -4.3790 C.2    30  LEU30       0.2287
     25  O          3.5900    2.9770   -4.5210 O.2    30  LEU30      -0.2864
     26  CB         5.1210    1.1020   -2.4610 C.3    30  LEU30       0.0297
     27  CG         5.8170    0.7040   -1.1810 C.3    30  LEU30       0.0022
     28  CD1        5.9170   -0.8020   -1.1840 C.3    30  LEU30       0.0001
     29  CD2        7.1950    1.3470   -1.1120 C.3    30  LEU30       0.0001
     30  N         -5.6990    0.5180    1.6940 N.3    71  ILE71      -0.1231
     31  CA        -6.8620   -0.0160    1.0240 C.3    71  ILE71       0.1692
     32  C         -6.5860   -0.0730   -0.4640 C.2    71  ILE71       0.2592
     33  O         -6.1940    0.9300   -1.0600 O.2    71  ILE71      -0.2718
     34  CB        -8.0980    0.8430    1.3310 C.3    71  ILE71       0.0266
     35  CG1       -8.3540    0.8060    2.8470 C.3    71  ILE71       0.0019
     36  CG2       -9.2950    0.3410    0.5450 C.3    71  ILE71       0.0020
     37  CD1       -9.2250    1.8990    3.3760 C.3    71  ILE71       0.0001
     38  N         -6.7580   -1.2480   -1.0630 N.am   72  TYR72      -0.1976
     39  CA        -6.4000   -1.4330   -2.4700 C.3    72  TYR72       0.1639
     40  C         -7.5700   -1.9500   -3.2870 C.2    72  TYR72       0.2290
     41  O         -7.9450   -3.1190   -3.2080 O.2    72  TYR72      -0.2864
     42  CB        -5.2130   -2.3860   -2.6000 C.3    72  TYR72       0.0560
     43  CG        -4.0070   -1.8900   -1.8490 C.ar   72  TYR72      -0.0198
     44  CD1       -3.1700   -0.9180   -2.4020 C.ar   72  TYR72      -0.0009
     45  CD2       -3.7200   -2.3650   -0.5830 C.ar   72  TYR72      -0.0009
     46  CE1       -2.0720   -0.4440   -1.7040 C.ar   72  TYR72       0.0417
     47  CE2       -2.6320   -1.9010    0.1210 C.ar   72  TYR72       0.0417
     48  CZ        -1.8120   -0.9460   -0.4450 C.ar   72  TYR72       0.1957
     49  OH        -0.7400   -0.4840    0.2740 O.3    72  TYR72      -0.2866
     50  N         -1.5650   -3.6700   -7.4680 N.3    92  ARG92      -0.1231
     51  CA        -2.3100   -2.7990   -6.5620 C.3    92  ARG92       0.1694
     52  C         -1.4310   -1.6210   -6.0920 C.2    92  ARG92       0.2592
     53  O         -1.9310   -0.6540   -5.5210 O.2    92  ARG92      -0.2718
     54  CB        -2.8400   -3.5870   -5.3640 C.3    92  ARG92       0.0321
     55  CG        -1.7530   -4.0070   -4.3870 C.3    92  ARG92       0.0489
     56  CD        -2.3170   -4.8270   -3.2400 C.3    92  ARG92       0.2205
     57  NE        -1.2860   -5.6910   -2.7040 N.pl3  92  ARG92      -0.0865
     58  CZ        -1.4720   -6.6070   -1.7590 C.cat  92  ARG92       0.5346
     59  NH1       -2.6700   -6.7880   -1.2250 N.pl3  92  ARG92       0.1354
     60  NH2       -0.4440   -7.3380   -1.3480 N.pl3  92  ARG92       0.1354
     61  N         -0.1290   -1.6750   -6.3520 N.am   93  TYR93      -0.1962
     62  CA         0.7450   -0.5850   -5.9120 C.3    93  TYR93       0.1771
     63  C          0.9330    0.4660   -6.9760 C.2    93  TYR93       0.2619
     64  O          1.6610    1.4450   -6.7760 O.2    93  TYR93      -0.2715
     65  CB         2.1080   -1.1210   -5.4760 C.3    93  TYR93       0.0574
     66  CG         1.9960   -2.0220   -4.2730 C.ar   93  TYR93      -0.0198
     67  CD1        1.6720   -1.5190   -3.0100 C.ar   93  TYR93      -0.0009
     68  CD2        2.1740   -3.3810   -4.4080 C.ar   93  TYR93      -0.0009
     69  CE1        1.5500   -2.3820   -1.9110 C.ar   93  TYR93       0.0417
     70  CE2        2.0650   -4.2300   -3.3350 C.ar   93  TYR93       0.0417
     71  CZ         1.7580   -3.7390   -2.0960 C.ar   93  TYR93       0.1957
     72  OH         1.6500   -4.6600   -1.0690 O.3    93  TYR93      -0.2866
     73  N          0.2910    0.2570   -8.1110 N.am   94  ILE94      -0.1963
     74  CA         0.3660    1.2180   -9.2020 C.3    94  ILE94       0.1727
     75  C         -0.3550    2.4900   -8.8090 C.2    94  ILE94       0.2616
     76  O         -1.5390    2.4610   -8.4790 O.2    94  ILE94      -0.2715
     77  CB        -0.2490    0.6840  -10.5050 C.3    94  ILE94       0.0290
     78  CG1        0.5260   -0.5460  -11.0020 C.3    94  ILE94       0.0022
     79  CG2       -0.2760    1.8000  -11.5590 C.3    94  ILE94       0.0023
     80  CD1       -0.1450   -1.2910  -12.1330 C.3    94  ILE94       0.0001
     81  N          0.3580    3.6070   -8.8800 N.am   95  ASN95      -0.1958
     82  CA        -0.2000    4.8870   -8.4740 C.3    95  ASN95       0.1819
     83  C         -0.9990    5.5730   -9.5740 C.2    95  ASN95       0.2621
     84  O         -0.8850    5.2420  -10.7550 O.2    95  ASN95      -0.2715
     85  CB         0.9320    5.8150   -7.9920 C.3    95  ASN95       0.1195
     86  CG         1.4210    5.4450   -6.6170 C.2    95  ASN95       0.2630
     87  OD1        0.6370    5.3640   -5.6830 O.2    95  ASN95      -0.2716
     88  ND2        2.7070    5.1640   -6.4930 N.am   95  ASN95      -0.0877
     89  N         -1.8120    6.5310   -9.1580 N.am   96  HIS96      -0.1973
     90  CA        -2.5520    7.4050  -10.0530 C.3    96  HIS96       0.1656
     91  C         -1.6960    8.5190  -10.6580 C.2    96  HIS96       0.2291
     92  O         -0.8580    9.1210   -9.9810 O.2    96  HIS96      -0.2864
     93  CB        -3.7340    8.0490   -9.3040 C.3    96  HIS96       0.0771
     94  CG        -4.3350    9.2090  -10.0310 C.ar   96  HIS96       0.0820
     95  ND1       -5.2010    9.0540  -11.0920 N.ar   96  HIS96      -0.2267
     96  CD2       -4.1540   10.5440   -9.8840 C.ar   96  HIS96       0.1154
     97  CE1       -5.5490   10.2450  -11.5500 C.ar   96  HIS96       0.1986
     98  NE2       -4.9270   11.1640  -10.8360 N.ar   96  HIS96      -0.2212
     99  N         -6.9110    6.9140  -12.1570 N.3   133  TYR133     -0.1241
    100  CA        -7.9040    6.3150  -11.2790 C.3   133  TYR133      0.1605
    101  C         -9.4090    6.4900  -11.5770 C.2   133  TYR133      0.2264
    102  O        -10.1830    5.6790  -11.1720 O.2   133  TYR133     -0.2867
    103  CB        -7.6330    6.6090   -9.8330 C.3   133  TYR133      0.0534
    104  CG        -6.4740    5.8730   -9.2130 C.ar  133  TYR133     -0.0201
    105  CD1       -5.5370    5.1810   -9.9640 C.ar  133  TYR133     -0.0009
    106  CD2       -6.3280    5.8760   -7.8690 C.ar  133  TYR133     -0.0009
    107  CE1       -4.4960    4.5260   -9.3570 C.ar  133  TYR133      0.0417
    108  CE2       -5.3030    5.2400   -7.2750 C.ar  133  TYR133      0.0417
    109  CZ        -4.3960    4.5730   -8.0140 C.ar  133  TYR133      0.1957
    110  OH        -3.4340    4.0180   -7.3440 O.3   133  TYR133     -0.2866
    111  N         -8.7480   12.9910   -1.7810 N.3   144  ILE144     -0.1231
    112  CA        -7.5180   13.4690   -1.1590 C.3   144  ILE144      0.1678
    113  C         -6.7320   14.2820   -2.1690 C.2   144  ILE144      0.2434
    114  O         -6.9930   14.1920   -3.3650 O.2   144  ILE144     -0.2733
    115  CB        -6.6340   12.3030   -0.6730 C.3   144  ILE144      0.0265
    116  CG1       -6.2360   11.4380   -1.8730 C.3   144  ILE144      0.0019
    117  CG2       -7.3390   11.5080    0.4210 C.3   144  ILE144      0.0020
    118  CD1       -5.1260   10.4600   -1.5950 C.3   144  ILE144      0.0001
    119  N         -5.7620   15.0820   -1.6950 N.am  145  PRO145     -0.2718
    120  CA        -4.8560   15.7840   -2.6130 C.3   145  PRO145      0.1535
    121  C         -4.1040   14.8520   -3.5610 C.2   145  PRO145      0.2599
    122  O         -3.6270   13.7800   -3.1530 O.2   145  PRO145     -0.2715
    123  CB        -3.8660   16.4820   -1.6700 C.3   145  PRO145      0.0310
    124  CG        -4.6160   16.6550   -0.3810 C.3   145  PRO145      0.0237
    125  CD        -5.5810   15.5060   -0.2900 C.3   145  PRO145      0.0939
    126  N         -4.0010   15.2620   -4.8200 N.am  146  CYS146     -0.1954
    127  CA        -3.2010   14.5300   -5.7850 C.3   146  CYS146      0.1843
    128  C         -1.8110   15.1430   -5.8380 C.2   146  CYS146      0.2625
    129  O         -1.6500   16.3730   -5.8750 O.2   146  CYS146     -0.2714
    130  CB        -3.8480   14.5540   -7.1690 C.3   146  CYS146      0.0997
    131  SG        -2.9210   13.6440   -8.4270 S.3   146  CYS146     -0.0797
    132  N         -0.8050   14.2800   -5.8230 N.am  147  HIS147     -0.1959
    133  CA         0.5830   14.7190   -5.8120 C.3   147  HIS147      0.1787
    134  C          1.3220   14.0840   -6.9730 C.2   147  HIS147      0.2620
    135  O          2.5120   13.8090   -6.8720 O.2   147  HIS147     -0.2715
    136  CB         1.2710   14.3550   -4.4830 C.3   147  HIS147      0.0785
    137  CG         0.7330   15.1000   -3.3010 C.ar  147  HIS147      0.0821
    138  ND1        0.6590   16.4760   -3.2590 N.ar  147  HIS147     -0.2267
    139  CD2        0.2480   14.6600   -2.1160 C.ar  147  HIS147      0.1154
    140  CE1        0.1410   16.8530   -2.1010 C.ar  147  HIS147      0.1986
    141  NE2       -0.1250   15.7710   -1.3930 N.ar  147  HIS147     -0.2212
    142  N          0.6110   13.8470   -8.0740 N.am  148  CYS148     -0.1968
    143  CA         1.1990   13.1640   -9.2250 C.3   148  CYS148      0.1712
    144  C          2.2360   14.0430   -9.9060 C.2   148  CYS148      0.2296
    145  O          3.1360   13.5430  -10.5880 O.2   148  CYS148     -0.2864
    146  CB         0.1190   12.7390  -10.2330 C.3   148  CYS148      0.0983
    147  SG        -0.6040   14.0320  -11.3280 S.3   148  CYS148     -0.0798
    148  N         -7.9280   13.6150   -6.0820 N.3   157  MET157     -0.1245
    149  CA        -8.1340   12.2540   -6.5460 C.3   157  MET157      0.1570
    150  C         -8.9460   11.5250   -5.4960 C.2   157  MET157      0.2261
    151  O         -9.1360   12.0350   -4.3990 O.2   157  MET157     -0.2867
    152  CB        -6.8110   11.5410   -6.7460 C.3   157  MET157      0.0387
    153  CG        -6.1480   11.2620   -5.4090 C.3   157  MET157      0.0595
    154  SD        -4.6570   10.2900   -5.4970 S.3   157  MET157     -0.1393
    155  CE        -5.3020    8.6670   -5.8810 C.3   157  MET157      0.0692
    156  N         -9.2000    8.4630   -2.8010 N.3   159  GLY159     -0.1210
    157  CA        -8.2630    7.6540   -2.0300 C.3   159  GLY159      0.1956
    158  C         -8.2250    7.8810   -0.5220 C.2   159  GLY159      0.2611
    159  O         -9.2100    8.3310    0.0630 O.2   159  GLY159     -0.2717
    160  N         -7.0880    7.5430    0.1000 N.am  160  HIS160     -0.1975
    161  CA        -6.8780    7.6500    1.5590 C.3   160  HIS160      0.1656
    162  C         -5.4200    7.9600    1.9170 C.2   160  HIS160      0.2291
    163  O         -4.5370    7.8350    1.0770 O.2   160  HIS160     -0.2864
    164  CB        -7.2670    6.3530    2.2700 C.3   160  HIS160      0.0771
    165  CG        -8.6460    5.8640    1.9530 C.ar  160  HIS160      0.0820
    166  ND1       -8.9700    5.2750    0.7470 N.ar  160  HIS160     -0.2267
    167  CD2       -9.7770    5.8450    2.6960 C.ar  160  HIS160      0.1154
    168  CE1      -10.2450    4.9340    0.7560 C.ar  160  HIS160      0.1986
    169  NE2      -10.7580    5.2650    1.9260 N.ar  160  HIS160     -0.2212
@<TRIPOS>BOND
     1    99   100    1
     2    80    78    1
     3   101   100    1
     4   101   102    2
     5    79    77    1
     6    97    95   ar
     7    97    98   ar
     8   147   146    1
     9   100   103    1
    10    95    94   ar
    11    78    77    1
    12    98    96   ar
    13    84    83    2
    14    91    90    1
    15    91    92    2
    16   145   144    2
    17    77    74    1
    18   146   143    1
    19    90    93    1
    20    90    89    1
    21     8     6    1
    22    94    96   ar
    23    94    93    1
    24   105   107   ar
    25   105   104   ar
    26   144   143    1
    27   103   104    1
    28    83    89   am
    29    83    82    1
    30   107   109   ar
    31   143   142    1
    32   104   106   ar
    33    74    75    1
    34    74    73    1
    35     6     5    1
    36    81    75   am
    37    81    82    1
    38    75    76    2
    39    82    85    1
    40   131   130    1
    41    73    63   am
    42   142   134   am
    43   109   110    1
    44   109   108   ar
    45    85    86    1
    46   106   108   ar
    47     5     7    1
    48     5     2    1
    49    50    51    1
    50   130   127    1
    51    63    64    2
    52    63    62    1
    53   134   135    2
    54   134   133    1
    55     1     2    1
    56   152   149    1
    57   152   153    1
    58     2     3    1
    59    86    88   am
    60    86    87    2
    61    51    52    1
    62    51    54    1
    63   149   148    1
    64   149   150    1
    65    61    52   am
    66    61    62    1
    67    52    53    2
    68    62    65    1
    69   155   154    1
    70   129   128    2
    71   128   132   am
    72   128   127    1
    73   132   133    1
    74   133   136    1
    75   127   126    1
    76   154   153    1
    77   150   151    2
    78    65    66    1
    79    54    55    1
    80     3     9   am
    81     3     4    2
    82   126   121   am
    83     9    10    1
    84    25    24    2
    85   136   137    1
    86    68    66   ar
    87    68    70   ar
    88    55    56    1
    89    24    23    1
    90    66    67   ar
    91    12    11    2
    92   121   122    2
    93   121   120    1
    94   114   113    2
    95    70    71   ar
    96    10    13    1
    97    10    11    1
    98   137   138   ar
    99   137   139   ar
   100    40    41    2
   101    40    39    1
   102   138   140   ar
   103    56    57    1
   104    13    14    1
   105    67    69   ar
   106    23    26    1
   107    23    22    1
   108    11    18   am
   109   156   157    1
   110    57    58    2
   111   120   119    1
   112   120   123    1
   113    42    39    1
   114    42    43    1
   115    39    38    1
   116    26    27    1
   117    44    43   ar
   118    44    46   ar
   119    21    20    2
   120   113   119   am
   121   113   112    1
   122   139   141   ar
   123    22    20   am
   124   140   141   ar
   125    71    69   ar
   126    71    72    1
   127    16    15    2
   128   157   158    1
   129    20    19    1
   130   116   118    1
   131   116   115    1
   132    43    45   ar
   133   111   112    1
   134    58    60    1
   135    58    59    1
   136    14    15    1
   137    46    48   ar
   138   119   125    1
   139    18    19    1
   140   123   124    1
   141    15    17   am
   142    28    27    1
   143    27    29    1
   144   112   115    1
   145    38    32   am
   146    33    32    2
   147   115   117    1
   148    45    47   ar
   149   158   159    2
   150   158   160   am
   151    32    31    1
   152    48    47   ar
   153    48    49    1
   154   124   125    1
   155   160   161    1
   156    36    34    1
   157   166   168   ar
   158   166   165   ar
   159   168   169   ar
   160    31    34    1
   161    31    30    1
   162   163   162    2
   163    34    35    1
   164   161   162    1
   165   161   164    1
   166   169   167   ar
   167   165   164    1
   168   165   167   ar
   169    35    37    1
