@<TRIPOS>MOLECULE
tmp/4z51A00.pdb
 132 125 0 0 0
SMALL
GASTEIGER

@<TRIPOS>ATOM
      1  N         32.5840   29.8490   33.8180 N.3    11  SER11      -0.1202
      2  CA        31.5050   30.5710   34.4810 C.3    11  SER11       0.2020
      3  C         32.0090   31.8560   35.1320 C.2    11  SER11       0.2619
      4  O         33.0940   31.8830   35.7190 O.2    11  SER11      -0.2717
      5  CB        30.8430   29.6800   35.5360 C.3    11  SER11       0.2103
      6  OG        29.8570   30.4060   36.2480 O.3    11  SER11      -0.2182
      7  N         31.2180   32.9160   35.0280 N.am   12  GLY12      -0.1942
      8  CA        31.5210   34.1670   35.7090 C.3    12  GLY12       0.2014
      9  C         32.4360   35.1260   34.9620 C.2    12  GLY12       0.2639
     10  O         32.9150   36.1030   35.5390 O.2    12  GLY12      -0.2714
     11  N         32.6750   34.8650   33.6810 N.am   13  LEU13      -0.1963
     12  CA        33.5800   35.7050   32.8950 C.3    13  LEU13       0.1728
     13  C         32.8810   36.8580   32.1730 C.2    13  LEU13       0.2617
     14  O         33.5330   37.6660   31.5000 O.2    13  LEU13      -0.2715
     15  CB        34.3440   34.8450   31.8730 C.3    13  LEU13       0.0311
     16  CG        35.3860   33.8880   32.4640 C.3    13  LEU13       0.0022
     17  CD1       36.1490   33.1610   31.3460 C.3    13  LEU13       0.0001
     18  CD2       36.3470   34.6200   33.3920 C.3    13  LEU13       0.0001
     19  N         31.5590   36.9280   32.2880 N.am   14  GLY14      -0.1940
     20  CA        30.8050   38.0160   31.6840 C.3    14  GLY14       0.2014
     21  C         30.2520   37.7090   30.2970 C.2    14  GLY14       0.2639
     22  O         29.9630   38.6240   29.5170 O.2    14  GLY14      -0.2714
     23  N         30.0960   36.4250   29.9930 N.am   15  LYS15      -0.1963
     24  CA        29.6050   35.9970   28.6840 C.3    15  LYS15       0.1728
     25  C         28.2020   36.5320   28.3900 C.2    15  LYS15       0.2617
     26  O         27.9760   37.1470   27.3540 O.2    15  LYS15      -0.2715
     27  CB        29.6180   34.4610   28.5870 C.3    15  LYS15       0.0311
     28  CG        31.0300   33.8610   28.6440 C.3    15  LYS15       0.0038
     29  CD        31.0170   32.3470   28.4030 C.3    15  LYS15       0.0206
     30  CE        30.0980   31.6120   29.3660 C.3    15  LYS15       0.1093
     31  NZ        30.4970   31.7940   30.7910 N.3    15  LYS15      -0.1314
     32  N         27.2640   36.2930   29.3040 N.am   16  SER16      -0.1936
     33  CA        25.8910   36.7540   29.1310 C.3    16  SER16       0.2055
     34  C         25.8030   38.2780   29.0760 C.2    16  SER16       0.2643
     35  O         24.9920   38.8310   28.3400 O.2    16  SER16      -0.2714
     36  CB        25.0000   36.2230   30.2610 C.3    16  SER16       0.2130
     37  OG        24.9350   34.8040   30.2360 O.3    16  SER16      -0.2179
     38  N         26.6400   38.9470   29.8610 N.am   17  THR17      -0.1950
     39  CA        26.6820   40.4030   29.8560 C.3    17  THR17       0.1897
     40  C         27.1450   40.8940   28.4790 C.2    17  THR17       0.2313
     41  O         26.5950   41.8550   27.9480 O.2    17  THR17      -0.2863
     42  CB        27.6050   40.9590   30.9770 C.3    17  THR17       0.1794
     43  OG1       27.1440   40.5000   32.2580 O.3    17  THR17      -0.2208
     44  CG2       27.6030   42.4890   30.9790 C.3    17  THR17       0.0378
     45  N         21.4040   40.2180   35.3070 N.3    32  ILE32      -0.1231
     46  CA        21.4790   39.0750   34.4110 C.3    32  ILE32       0.1678
     47  C         21.7170   37.8010   35.2180 C.2    32  ILE32       0.2434
     48  O         22.6840   37.7100   35.9700 O.2    32  ILE32      -0.2733
     49  CB        22.5930   39.2700   33.3650 C.3    32  ILE32       0.0265
     50  CG1       22.2830   40.4930   32.4900 C.3    32  ILE32       0.0019
     51  CG2       22.7660   38.0120   32.5200 C.3    32  ILE32       0.0020
     52  CD1       23.4010   40.8680   31.5170 C.3    32  ILE32       0.0001
     53  N         20.8250   36.8100   35.0690 N.am   33  PRO33      -0.2718
     54  CA        20.9190   35.5860   35.8700 C.3    33  PRO33       0.1535
     55  C         22.0510   34.6750   35.4150 C.2    33  PRO33       0.2598
     56  O         22.4450   34.7250   34.2510 O.2    33  PRO33      -0.2715
     57  CB        19.5600   34.9170   35.6410 C.3    33  PRO33       0.0310
     58  CG        19.1690   35.3580   34.2690 C.3    33  PRO33       0.0237
     59  CD        19.6900   36.7700   34.1290 C.3    33  PRO33       0.0939
     60  N         22.5720   33.8610   36.3290 N.am   34  LYS34      -0.1964
     61  CA        23.5430   32.8360   35.9540 C.3    34  LYS34       0.1728
     62  C         22.9000   31.9140   34.9200 C.2    34  LYS34       0.2616
     63  O         21.7330   31.5580   35.0410 O.2    34  LYS34      -0.2715
     64  CB        24.0080   32.0530   37.1840 C.3    34  LYS34       0.0311
     65  CG        25.1940   31.1310   36.9420 C.3    34  LYS34       0.0038
     66  CD        24.7560   29.6790   36.8300 C.3    34  LYS34       0.0206
     67  CE        25.9210   28.7660   36.4610 C.3    34  LYS34       0.1093
     68  NZ        26.4060   28.9910   35.0580 N.3    34  LYS34      -0.1314
     69  N         23.6580   31.5390   33.8970 N.am   35  THR35      -0.1951
     70  CA        23.1030   30.7710   32.7860 C.3    35  THR35       0.1897
     71  C         23.1110   29.2760   33.0860 C.2    35  THR35       0.2313
     72  O         24.1640   28.6970   33.3460 O.2    35  THR35      -0.2863
     73  CB        23.8890   31.0490   31.4890 C.3    35  THR35       0.1794
     74  OG1       24.0450   32.4630   31.3340 O.3    35  THR35      -0.2208
     75  CG2       23.1620   30.4820   30.2790 C.3    35  THR35       0.0378
     76  N         25.7600   30.1340   26.6190 N.3    55  THR55      -0.1218
     77  CA        26.0350   28.8080   27.1530 C.3    55  THR55       0.1862
     78  C         26.3870   28.8910   28.6330 C.2    55  THR55       0.2287
     79  O         27.0180   29.8580   29.0670 O.2    55  THR55      -0.2866
     80  CB        27.2010   28.1160   26.4020 C.3    55  THR55       0.1770
     81  OG1       28.3940   28.8960   26.5560 O.3    55  THR55      -0.2211
     82  CG2       26.8780   27.9440   24.9130 C.3    55  THR55       0.0375
     83  N         28.5790   28.5020   31.7110 N.3    57  GLY57      -0.1225
     84  CA        30.0190   28.4350   31.8410 C.3    57  GLY57       0.1811
     85  C         30.4590   27.0930   32.3930 C.2    57  GLY57       0.2280
     86  O         29.6800   26.3910   33.0410 O.2    57  GLY57      -0.2866
     87  N         36.6720   40.5400   30.8620 N.3   137  LYS137     -0.1245
     88  CA        36.8250   41.4790   31.9700 C.3   137  LYS137      0.1561
     89  C         38.1630   42.1890   31.9110 C.2   137  LYS137      0.2260
     90  O         38.9100   42.1820   32.8870 O.2   137  LYS137     -0.2867
     91  CB        36.6820   40.7520   33.3210 C.3   137  LYS137      0.0271
     92  CG        35.3230   40.0900   33.5470 C.3   137  LYS137      0.0035
     93  CD        35.1980   39.5360   34.9700 C.3   137  LYS137      0.0206
     94  CE        33.7590   39.1620   35.2890 C.3   137  LYS137      0.1093
     95  NZ        33.5830   38.6170   36.6840 N.3   137  LYS137     -0.1314
     96  N         39.0000   45.1010   32.0600 N.3   139  ASP139     -0.1225
     97  CA        39.1570   46.1790   33.0240 C.3   139  ASP139      0.1805
     98  C         39.9300   45.7200   34.2630 C.2   139  ASP139      0.2598
     99  O         40.4220   46.5380   35.0380 O.2   139  ASP139     -0.2718
    100  CB        37.7900   46.7240   33.4280 C.3   139  ASP139      0.1424
    101  CG        36.8860   45.6470   33.9810 C.2   139  ASP139      0.3668
    102  OD1       36.5790   44.6930   33.2360 O.co2 139  ASP139     -0.2456
    103  OD2       36.4840   45.7600   35.1560 O.co2 139  ASP139     -0.2456
    104  N         40.0510   44.4130   34.4520 N.am  140  THR140     -0.1953
    105  CA        40.7810   43.9330   35.6150 C.3   140  THR140      0.1897
    106  C         42.3070   43.9850   35.3970 C.2   140  THR140      0.2313
    107  O         43.0770   43.7040   36.3150 O.2   140  THR140     -0.2863
    108  CB        40.3040   42.5120   35.9990 C.3   140  THR140      0.1794
    109  OG1       40.8440   41.5540   35.1010 O.3   140  THR140     -0.2208
    110  CG2       38.7980   42.4310   35.8950 C.3   140  THR140      0.0378
    111  N         35.3840   44.5260   27.5800 N.3   189  VAL189     -0.1231
    112  CA        34.5780   44.8270   28.7550 C.3   189  VAL189      0.1692
    113  C         33.1230   44.7890   28.3160 C.2   189  VAL189      0.2592
    114  O         32.7870   45.2700   27.2270 O.2   189  VAL189     -0.2718
    115  CB        34.9290   46.2160   29.3560 C.3   189  VAL189      0.0266
    116  CG1       34.0010   46.5560   30.5270 C.3   189  VAL189      0.0020
    117  CG2       36.3800   46.2510   29.7910 C.3   189  VAL189      0.0020
    118  N         32.2690   44.1890   29.1360 N.am  190  GLY190     -0.1957
    119  CA        30.8580   44.1120   28.8320 C.3   190  GLY190      0.1869
    120  C         30.0390   44.8900   29.8430 C.2   190  GLY190      0.2309
    121  O         30.4100   44.9950   31.0130 O.2   190  GLY190     -0.2863
    122  N         30.7230   50.6000   32.9050 N.3   205  ARG205     -0.1245
    123  CA        30.7020   50.1370   34.2880 C.3   205  ARG205      0.1563
    124  C         31.1600   51.2800   35.1880 C.2   205  ARG205      0.2260
    125  O         32.1940   51.9060   34.9290 O.2   205  ARG205     -0.2867
    126  CB        31.6000   48.9000   34.4730 C.3   205  ARG205      0.0307
    127  CG        31.1220   47.6510   33.7260 C.3   205  ARG205      0.0489
    128  CD        32.0760   46.4650   33.8790 C.3   205  ARG205      0.2205
    129  NE        32.4400   46.2250   35.2700 N.pl3 205  ARG205     -0.0865
    130  CZ        31.6840   45.5690   36.1510 C.cat 205  ARG205      0.5346
    131  NH1       30.5080   45.0650   35.7950 N.pl3 205  ARG205      0.1354
    132  NH2       32.1130   45.4160   37.3970 N.pl3 205  ARG205      0.1354
@<TRIPOS>BOND
     1    82    80    1
     2    80    81    1
     3    80    77    1
     4    76    77    1
     5    77    78    1
     6   114   113    2
     7    26    25    2
     8   111   112    1
     9    41    40    2
    10   113   112    1
    11   113   118   am
    12    35    34    2
    13    25    24    1
    14    25    32   am
    15    29    28    1
    16    29    30    1
    17    40    39    1
    18    27    28    1
    19    27    24    1
    20    78    79    2
    21    24    23    1
    22   112   115    1
    23   119   118    1
    24   119   120    1
    25    34    33    1
    26    34    38   am
    27    33    32    1
    28    33    36    1
    29   115   117    1
    30   115   116    1
    31    30    31    1
    32    22    21    2
    33   120   121    2
    34    39    38    1
    35    39    42    1
    36    23    21   am
    37    37    36    1
    38    75    73    1
    39    21    20    1
    40    87    88    1
    41    42    44    1
    42    42    43    1
    43    74    73    1
    44    17    16    1
    45    73    70    1
    46    14    13    2
    47    52    50    1
    48    20    19    1
    49    83    84    1
    50    84    85    1
    51    15    16    1
    52    15    12    1
    53    89    88    1
    54    89    90    2
    55    88    91    1
    56    96    97    1
    57    13    19   am
    58    13    12    1
    59    85    86    2
    60    16    18    1
    61    50    49    1
    62    51    49    1
    63    70    71    1
    64    70    69    1
    65    12    11    1
    66   122   123    1
    67    97   100    1
    68    97    98    1
    69    71    72    2
    70   102   101   ar
    71    91    92    1
    72    49    46    1
    73   100   101    1
    74    92    93    1
    75    11     9   am
    76   127   128    1
    77   127   126    1
    78     1     2    1
    79   128   129    1
    80    69    62   am
    81   101   103   ar
    82    59    58    1
    83    59    53    1
    84    56    55    2
    85    98   104   am
    86    98    99    2
    87    58    57    1
    88   123   126    1
    89   123   124    1
    90    46    47    1
    91    46    45    1
    92   104   105    1
    93     2     3    1
    94     2     5    1
    95    62    63    2
    96    62    61    1
    97   125   124    2
    98     9    10    2
    99     9     8    1
   100    93    94    1
   101     7     3   am
   102     7     8    1
   103    68    67    1
   104    53    47   am
   105    53    54    1
   106   109   108    1
   107     3     4    2
   108    47    48    2
   109   129   130    2
   110    94    95    1
   111   106   105    1
   112   106   107    2
   113    55    54    1
   114    55    60   am
   115     5     6    1
   116   105   108    1
   117    57    54    1
   118   131   130    1
   119   110   108    1
   120    61    60    1
   121    61    64    1
   122   130   132    1
   123    67    66    1
   124    66    65    1
   125    65    64    1
