@<TRIPOS>MOLECULE
tmp/4z54A00.pdb
 149 142 0 0 0
SMALL
GASTEIGER

@<TRIPOS>ATOM
      1  N         22.8020   14.0020  -30.1270 N.3    18  SER18      -0.1202
      2  CA        21.5260   13.5320  -30.6490 C.3    18  SER18       0.2020
      3  C         21.7510   12.4880  -31.7290 C.2    18  SER18       0.2619
      4  O         22.7510   12.5350  -32.4530 O.2    18  SER18      -0.2717
      5  CB        20.6940   14.6900  -31.2060 C.3    18  SER18       0.2103
      6  OG        20.1110   15.4370  -30.1510 O.3    18  SER18      -0.2182
      7  N         20.8100   11.5620  -31.8420 N.am   19  GLY19      -0.1942
      8  CA        20.8360   10.5670  -32.9020 C.3    19  GLY19       0.2014
      9  C         21.6470    9.3340  -32.5620 C.2    19  GLY19       0.2639
     10  O         22.0600    8.5980  -33.4640 O.2    19  GLY19      -0.2714
     11  N         21.8880    9.1030  -31.2720 N.am   20  LEU20      -0.1963
     12  CA        22.7340    7.9850  -30.8520 C.3    20  LEU20       0.1728
     13  C         21.9150    6.8260  -30.2740 C.2    20  LEU20       0.2617
     14  O         22.4660    5.8040  -29.8770 O.2    20  LEU20      -0.2715
     15  CB        23.7780    8.4600  -29.8210 C.3    20  LEU20       0.0311
     16  CG        24.9350    9.2610  -30.4420 C.3    20  LEU20       0.0022
     17  CD1       26.0330    9.6050  -29.4130 C.3    20  LEU20       0.0001
     18  CD2       25.5270    8.4870  -31.5970 C.3    20  LEU20       0.0001
     19  N         20.6050    6.9880  -30.2400 N.am   21  GLY21      -0.1940
     20  CA        19.7340    5.9230  -29.7530 C.3    21  GLY21       0.2014
     21  C         19.4210    6.0440  -28.2720 C.2    21  GLY21       0.2639
     22  O         18.9770    5.0740  -27.6350 O.2    21  GLY21      -0.2714
     23  N         19.6360    7.2280  -27.7120 N.am   22  LYS22      -0.1963
     24  CA        19.4530    7.4170  -26.2730 C.3    22  LYS22       0.1728
     25  C         18.0070    7.1740  -25.8240 C.2    22  LYS22       0.2617
     26  O         17.7560    6.4140  -24.8620 O.2    22  LYS22      -0.2715
     27  CB        19.9240    8.8220  -25.8520 C.3    22  LYS22       0.0311
     28  CG        21.4330    9.0330  -26.0790 C.3    22  LYS22       0.0038
     29  CD        21.9620   10.3590  -25.4940 C.3    22  LYS22       0.0206
     30  CE        21.0160   11.5280  -25.7800 C.3    22  LYS22       0.1093
     31  NZ        20.8340   11.7210  -27.2780 N.3    22  LYS22      -0.1314
     32  N         17.0630    7.7920  -26.5230 N.am   23  SER23      -0.1936
     33  CA        15.6580    7.7490  -26.1170 C.3    23  SER23       0.2055
     34  C         15.1100    6.3480  -26.3690 C.2    23  SER23       0.2643
     35  O         14.2760    5.8450  -25.6190 O.2    23  SER23      -0.2714
     36  CB        14.8360    8.8020  -26.8770 C.3    23  SER23       0.2130
     37  OG        15.1400   10.1250  -26.4420 O.3    23  SER23      -0.2179
     38  N         15.5920    5.7290  -27.4420 N.am   24  THR24      -0.1950
     39  CA        15.2740    4.3480  -27.7410 C.3    24  THR24       0.1897
     40  C         15.7290    3.4240  -26.5960 C.2    24  THR24       0.2313
     41  O         14.9630    2.5630  -26.1500 O.2    24  THR24      -0.2863
     42  CB        15.9300    3.8890  -29.0700 C.3    24  THR24       0.1794
     43  OG1       15.4130    4.6720  -30.1580 O.3    24  THR24      -0.2208
     44  CG2       15.6390    2.4210  -29.3240 C.3    24  THR24       0.0378
     45  N          5.6510    0.0900  -31.3710 N.3    40  ARG40      -0.1245
     46  CA         5.5610    1.5170  -31.6440 C.3    40  ARG40       0.1563
     47  C          5.5520    1.7680  -33.1570 C.2    40  ARG40       0.2260
     48  O          6.3450    1.1860  -33.8920 O.2    40  ARG40      -0.2867
     49  CB         6.7390    2.2420  -30.9690 C.3    40  ARG40       0.0307
     50  CG         6.7860    3.7520  -31.1430 C.3    40  ARG40       0.0489
     51  CD         7.9170    4.3830  -30.3050 C.3    40  ARG40       0.2205
     52  NE         9.1790    3.6470  -30.4250 N.pl3  40  ARG40      -0.0865
     53  CZ         9.9690    3.6780  -31.4970 C.cat  40  ARG40       0.5346
     54  NH1        9.6360    4.4080  -32.5550 N.pl3  40  ARG40       0.1354
     55  NH2       11.0920    2.9710  -31.5160 N.pl3  40  ARG40       0.1354
     56  N          7.8830    7.3830  -34.9250 N.3    43  LYS43      -0.1231
     57  CA         9.2340    7.6060  -34.5610 C.3    43  LYS43       0.1693
     58  C          9.3110    8.3410  -33.2260 C.2    43  LYS43       0.2592
     59  O          8.4850    9.1260  -32.9270 O.2    43  LYS43      -0.2718
     60  CB         9.8340    8.4540  -35.6400 C.3    43  LYS43       0.0285
     61  CG        11.2940    8.6530  -35.5330 C.3    43  LYS43       0.0035
     62  CD        11.7540    9.7820  -36.4160 C.3    43  LYS43       0.0206
     63  CE        13.1970    9.5310  -36.8270 C.3    43  LYS43       0.1093
     64  NZ        14.1820    9.5240  -35.7040 N.3    43  LYS43      -0.1314
     65  N         10.3030    8.0430  -32.4170 N.am   44  ILE44      -0.1966
     66  CA        10.5060    8.8230  -31.2020 C.3    44  ILE44       0.1712
     67  C         10.9670   10.2340  -31.5870 C.2    44  ILE44       0.2458
     68  O         11.9410   10.3880  -32.3250 O.2    44  ILE44      -0.2730
     69  CB        11.5430    8.1680  -30.2730 C.3    44  ILE44       0.0289
     70  CG1       11.0940    6.7510  -29.8970 C.3    44  ILE44       0.0022
     71  CG2       11.7540    9.0300  -29.0030 C.3    44  ILE44       0.0023
     72  CD1       12.1560    5.9420  -29.2280 C.3    44  ILE44       0.0001
     73  N         10.2590   11.2680  -31.1070 N.am   45  PRO45      -0.2716
     74  CA        10.6720   12.6390  -31.4210 C.3    45  PRO45       0.1536
     75  C         12.0580   12.9680  -30.8810 C.2    45  PRO45       0.2598
     76  O         12.5440   12.3460  -29.9280 O.2    45  PRO45      -0.2715
     77  CB         9.6080   13.5010  -30.7180 C.3    45  PRO45       0.0310
     78  CG         8.4490   12.5980  -30.5010 C.3    45  PRO45       0.0237
     79  CD         9.0420   11.2380  -30.2790 C.3    45  PRO45       0.0939
     80  N         12.7030   13.9420  -31.5020 N.am   46  LYS46      -0.1964
     81  CA        13.9570   14.4510  -30.9800 C.3    46  LYS46       0.1728
     82  C         13.7160   14.9770  -29.5700 C.2    46  LYS46       0.2616
     83  O         12.7050   15.6230  -29.3080 O.2    46  LYS46      -0.2715
     84  CB        14.5080   15.5520  -31.9000 C.3    46  LYS46       0.0311
     85  CG        15.8100   16.1350  -31.4270 C.3    46  LYS46       0.0038
     86  CD        16.3600   17.1670  -32.4050 C.3    46  LYS46       0.0206
     87  CE        17.6670   17.7520  -31.8680 C.3    46  LYS46       0.1093
     88  NZ        18.2810   18.7310  -32.8080 N.3    46  LYS46      -0.1314
     89  N         14.6310   14.6750  -28.6580 N.am   47  THR47      -0.1951
     90  CA        14.4800   15.0850  -27.2740 C.3    47  THR47       0.1897
     91  C         14.9750   16.5140  -27.0990 C.2    47  THR47       0.2313
     92  O         16.1450   16.7980  -27.3350 O.2    47  THR47      -0.2863
     93  CB        15.2460   14.1290  -26.3460 C.3    47  THR47       0.1794
     94  OG1       14.9780   12.7820  -26.7680 O.3    47  THR47      -0.2208
     95  CG2       14.8090   14.3140  -24.8740 C.3    47  THR47       0.0378
     96  N         15.8750   11.4010  -19.5880 N.3    70  ASP70      -0.1239
     97  CA        16.2470   11.5810  -20.9910 C.3    70  ASP70       0.1674
     98  C         16.6530   13.0400  -21.1330 C.2    70  ASP70       0.2266
     99  O         16.1220   13.9100  -20.4350 O.2    70  ASP70      -0.2867
    100  CB        15.0810   11.2340  -21.9120 C.3    70  ASP70       0.1410
    101  CG        15.5210   10.8730  -23.3280 C.2    70  ASP70       0.3668
    102  OD1       16.7290   10.9890  -23.6470 O.co2  70  ASP70      -0.2456
    103  OD2       14.6310   10.4880  -24.1210 O.co2  70  ASP70      -0.2456
    104  N         24.7090    2.3200  -30.8060 N.3   153  LYS153     -0.1245
    105  CA        24.4940    1.6970  -32.1220 C.3   153  LYS153      0.1561
    106  C         25.6060    0.7320  -32.4880 C.2   153  LYS153      0.2260
    107  O         26.2050    0.8460  -33.5510 O.2   153  LYS153     -0.2867
    108  CB        24.3890    2.7650  -33.2070 C.3   153  LYS153      0.0271
    109  CG        23.3170    3.8080  -32.9750 C.3   153  LYS153      0.0035
    110  CD        23.1700    4.6780  -34.2070 C.3   153  LYS153      0.0206
    111  CE        21.9440    5.5450  -34.1350 C.3   153  LYS153      0.1093
    112  NZ        21.8790    6.5140  -35.2810 N.3   153  LYS153     -0.1314
    113  N         25.7170   -2.1550  -33.5050 N.3   155  ASP155     -0.1225
    114  CA        25.4740   -2.9700  -34.6750 C.3   155  ASP155      0.1805
    115  C         26.1340   -2.3310  -35.8870 C.2   155  ASP155      0.2598
    116  O         26.2690   -2.9670  -36.9210 O.2   155  ASP155     -0.2718
    117  CB        23.9730   -3.1260  -34.9130 C.3   155  ASP155      0.1424
    118  CG        23.2560   -1.7830  -34.9820 C.2   155  ASP155      0.3668
    119  OD1       23.3740   -0.9860  -34.0300 O.co2 155  ASP155     -0.2456
    120  OD2       22.5920   -1.5100  -36.0020 O.co2 155  ASP155     -0.2456
    121  N         26.5180   -1.0640  -35.7340 N.am  156  THR156     -0.1953
    122  CA        27.2760   -0.2920  -36.7320 C.3   156  THR156      0.1897
    123  C         28.6310   -0.9140  -37.0240 C.2   156  THR156      0.2313
    124  O         29.2290   -0.6780  -38.0790 O.2   156  THR156     -0.2863
    125  CB        27.5270    1.1950  -36.2450 C.3   156  THR156      0.1794
    126  OG1       26.2890    1.8810  -36.1110 O.3   156  THR156     -0.2208
    127  CG2       28.4030    1.9930  -37.2220 C.3   156  THR156      0.0378
    128  N         22.9750   -2.1730  -28.3580 N.3   209  VAL209     -0.1231
    129  CA        22.0200   -1.9540  -29.4230 C.3   209  VAL209      0.1692
    130  C         20.7040   -1.7240  -28.7110 C.2   209  VAL209      0.2592
    131  O         20.3970   -2.4250  -27.7590 O.2   209  VAL209     -0.2718
    132  CB        21.9480   -3.1520  -30.4020 C.3   209  VAL209      0.0266
    133  CG1       20.7130   -3.0560  -31.3080 C.3   209  VAL209      0.0020
    134  CG2       23.2470   -3.2500  -31.2250 C.3   209  VAL209      0.0020
    135  N         19.9540   -0.7090  -29.1240 N.am  210  GLY210     -0.1957
    136  CA        18.6820   -0.4410  -28.4790 C.3   210  GLY210      0.1869
    137  C         17.5110   -0.7270  -29.3970 C.2   210  GLY210      0.2309
    138  O         17.5990   -0.5460  -30.6140 O.2   210  GLY210     -0.2863
    139  N         16.1510   -5.1950  -33.4810 N.3   225  ARG225     -0.1245
    140  CA        16.0620   -4.3290  -34.6450 C.3   225  ARG225      0.1563
    141  C         15.9430   -5.1750  -35.8800 C.2   225  ARG225      0.2260
    142  O         16.7680   -6.0620  -36.1020 O.2   225  ARG225     -0.2867
    143  CB        17.2990   -3.4200  -34.7660 C.3   225  ARG225      0.0307
    144  CG        17.2070   -2.1560  -33.9760 C.3   225  ARG225      0.0489
    145  CD        18.4760   -1.3420  -34.0970 C.3   225  ARG225      0.2205
    146  NE        18.7160   -0.8200  -35.4480 N.pl3 225  ARG225     -0.0865
    147  CZ        18.0460    0.1960  -35.9880 C.cat 225  ARG225      0.5346
    148  NH1       17.0730    0.7920  -35.2950 N.pl3 225  ARG225      0.1354
    149  NH2       18.3560    0.6280  -37.2160 N.pl3 225  ARG225      0.1354
@<TRIPOS>BOND
     1   124   123    2
     2   127   125    1
     3   149   147    1
     4   123   122    1
     5   116   115    2
     6    63    62    1
     7    63    64    1
     8   122   125    1
     9   122   121    1
    10    62    61    1
    11   125   126    1
    12   142   141    2
    13   120   118   ar
    14   147   146    2
    15   147   148    1
    16   115   121   am
    17   115   114    1
    18   141   140    1
    19    60    61    1
    20    60    57    1
    21   146   145    1
    22   112   111    1
    23   118   117    1
    24   118   119   ar
    25    56    57    1
    26   117   114    1
    27   143   140    1
    28   143   144    1
    29   114   113    1
    30   140   139    1
    31    57    58    1
    32   110   111    1
    33   110   109    1
    34   145   144    1
    35    48    47    2
    36   107   106    2
    37    10     9    2
    38    58    59    2
    39    58    65   am
    40   108   109    1
    41   108   105    1
    42    47    46    1
    43     8     9    1
    44     8     7    1
    45    88    87    1
    46     9    11   am
    47    54    53    1
    48   106   105    1
    49     4     3    2
    50    65    66    1
    51    86    87    1
    52    86    85    1
    53    68    67    2
    54   105   104    1
    55    84    85    1
    56    84    81    1
    57     7     3   am
    58     3     2    1
    59    46    45    1
    60    46    49    1
    61    18    16    1
    62    67    66    1
    63    67    73   am
    64    55    53    1
    65    80    81    1
    66    80    75   am
    67    53    52    2
    68    74    73    1
    69    74    75    1
    70    74    77    1
    71   133   132    1
    72    11    12    1
    73   134   132    1
    74     5     2    1
    75     5     6    1
    76    66    69    1
    77    50    49    1
    78    50    51    1
    79    73    79    1
    80    81    82    1
    81    75    76    2
    82    12    13    1
    83    12    15    1
    84    77    78    1
    85     2     1    1
    86   138   137    2
    87    78    79    1
    88    16    15    1
    89    16    17    1
    90    52    51    1
    91   132   129    1
    92    13    19   am
    93    13    14    2
    94    69    70    1
    95    69    71    1
    96    19    20    1
    97    43    42    1
    98    70    72    1
    99    20    21    1
   100    82    83    2
   101    82    89   am
   102   129   130    1
   103   129   128    1
   104   137   136    1
   105    44    42    1
   106   135   130   am
   107   135   136    1
   108    42    39    1
   109   130   131    2
   110    89    90    1
   111    21    23   am
   112    21    22    2
   113    39    38    1
   114    39    40    1
   115    23    24    1
   116    38    34   am
   117    92    91    2
   118    31    30    1
   119    90    91    1
   120    90    93    1
   121    36    37    1
   122    36    33    1
   123    94    93    1
   124    40    41    2
   125    32    33    1
   126    32    25   am
   127    34    33    1
   128    34    35    2
   129    93    95    1
   130    24    27    1
   131    24    25    1
   132    28    27    1
   133    28    29    1
   134    25    26    2
   135    30    29    1
   136   103   101   ar
   137   102   101   ar
   138   101   100    1
   139   100    97    1
   140    98    97    1
   141    98    99    2
   142    97    96    1
