@<TRIPOS>MOLECULE
tmp/4z55A00.pdb
 187 175 0 0 0
SMALL
GASTEIGER

@<TRIPOS>ATOM
      1  N        -28.7530   12.8790    0.5350 N.3    28  ARG28      -0.1245
      2  CA       -27.8220   11.8890    1.0810 C.3    28  ARG28       0.1563
      3  C        -26.4210   12.0750    0.5370 C.2    28  ARG28       0.2260
      4  O        -26.2650   12.5660   -0.5840 O.2    28  ARG28      -0.2867
      5  CB       -28.3020   10.4470    0.7630 C.3    28  ARG28       0.0307
      6  CG       -28.4820   10.1310   -0.7380 C.3    28  ARG28       0.0489
      7  CD       -28.8700    8.6800   -1.0330 C.3    28  ARG28       0.2205
      8  NE       -30.1230    8.2950   -0.3720 N.pl3  28  ARG28      -0.0865
      9  CZ       -31.3390    8.4440   -0.8900 C.cat  28  ARG28       0.5346
     10  NH1      -31.4950    8.9570   -2.1050 N.pl3  28  ARG28       0.1354
     11  NH2      -32.4090    8.0810   -0.1980 N.pl3  28  ARG28       0.1354
     12  N        -22.8840   10.8820   -1.1110 N.3    30  LEU30      -0.1231
     13  CA       -22.5410    9.9220   -2.1660 C.3    30  LEU30       0.1693
     14  C        -21.1030    9.4410   -2.0470 C.2    30  LEU30       0.2593
     15  O        -20.6880    8.5250   -2.7600 O.2    30  LEU30      -0.2718
     16  CB       -22.7860   10.5300   -3.5600 C.3    30  LEU30       0.0284
     17  CG       -24.2320   10.9010   -3.9050 C.3    30  LEU30       0.0019
     18  CD1      -24.3260   11.4350   -5.3360 C.3    30  LEU30       0.0001
     19  CD2      -25.1730    9.7060   -3.7380 C.3    30  LEU30       0.0001
     20  N        -20.3570   10.0880   -1.1650 N.am   31  GLY31      -0.1942
     21  CA       -18.9380    9.8410   -0.9610 C.3    31  GLY31       0.2014
     22  C        -18.1460   11.1240   -1.0790 C.2    31  GLY31       0.2639
     23  O        -18.7190   12.2180   -1.0390 O.2    31  GLY31      -0.2714
     24  N        -16.8290   11.0050   -1.2370 N.am   32  HIS32      -0.1959
     25  CA       -15.9670   12.1690   -1.3170 C.3    32  HIS32       0.1787
     26  C        -15.2960   12.3580   -2.6480 C.2    32  HIS32       0.2621
     27  O        -14.8710   11.3990   -3.2800 O.2    32  HIS32      -0.2715
     28  CB       -14.9160   12.1360   -0.2010 C.3    32  HIS32       0.0785
     29  CG       -15.5000   12.3270    1.1590 C.ar   32  HIS32       0.0821
     30  ND1      -15.3320   13.5120    1.8540 N.ar   32  HIS32      -0.2267
     31  CD2      -16.2670   11.4890    1.8980 C.ar   32  HIS32       0.1154
     32  CE1      -15.9810   13.3520    2.9970 C.ar   32  HIS32       0.1986
     33  NE2      -16.5640   12.1510    3.0660 N.ar   32  HIS32      -0.2212
     34  N        -15.1890   13.6190   -3.0380 N.am   33  GLY33      -0.1940
     35  CA       -14.4710   14.0390   -4.2260 C.3    33  GLY33       0.2014
     36  C        -13.0840   14.4760   -3.8100 C.2    33  GLY33       0.2638
     37  O        -12.5540   13.9850   -2.8030 O.2    33  GLY33      -0.2714
     38  N        -12.5080   15.4370   -4.5520 N.am   34  ALA34      -0.1977
     39  CA       -11.1780   15.9600   -4.2820 C.3    34  ALA34       0.1597
     40  C        -11.1540   16.8690   -3.0410 C.2    34  ALA34       0.2287
     41  O        -10.3420   16.6360   -2.1470 O.2    34  ALA34      -0.2864
     42  CB       -10.6500   16.6960   -5.5060 C.3    34  ALA34       0.0319
     43  N        -19.6510   14.8470   -1.5960 N.3    38  VAL38      -0.1245
     44  CA       -20.5610   15.0090   -2.7360 C.3    38  VAL38       0.1561
     45  C        -21.8980   14.4580   -2.2430 C.2    38  VAL38       0.2260
     46  O        -21.9030   13.4260   -1.5660 O.2    38  VAL38      -0.2867
     47  CB       -20.0730   14.2960   -4.0310 C.3    38  VAL38       0.0252
     48  CG1      -21.0830   14.4570   -5.1670 C.3    38  VAL38       0.0019
     49  CG2      -18.6960   14.8010   -4.4580 C.3    38  VAL38       0.0019
     50  N        -26.3260   13.8030   -3.0580 N.3    40  GLU40      -0.1245
     51  CA       -27.4460   13.7270   -3.9580 C.3    40  GLU40       0.1567
     52  C        -28.3430   14.8390   -3.4210 C.2    40  GLU40       0.2260
     53  O        -28.5080   14.9470   -2.1950 O.2    40  GLU40      -0.2867
     54  CB       -28.1600   12.3820   -3.8170 C.3    40  GLU40       0.0388
     55  CG       -29.3920   12.3450   -4.6950 C.3    40  GLU40       0.1160
     56  CD       -30.2590   11.1190   -4.5480 C.2    40  GLU40       0.3649
     57  OE1      -29.7910   10.1210   -3.9560 O.co2  40  GLU40      -0.2457
     58  OE2      -31.3850   11.1350   -5.0900 O.co2  40  GLU40      -0.2457
     59  N        -26.2390   16.2760   -8.3500 N.3    49  ALA49      -0.1245
     60  CA       -25.0960   15.8820   -7.5500 C.3    49  ALA49       0.1562
     61  C        -24.5470   17.2490   -7.0800 C.2    49  ALA49       0.2260
     62  O        -24.4060   18.1760   -7.8780 O.2    49  ALA49      -0.2867
     63  CB       -24.0740   15.1480   -8.3910 C.3    49  ALA49       0.0290
     64  N        -21.4990   19.1360   -5.3710 N.3    51  LYS51      -0.1245
     65  CA       -20.1000   19.1210   -4.9450 C.3    51  LYS51       0.1561
     66  C        -19.9310   20.2620   -3.9620 C.2    51  LYS51       0.2260
     67  O        -20.4010   21.3730   -4.2170 O.2    51  LYS51      -0.2867
     68  CB       -19.1460   19.2400   -6.1450 C.3    51  LYS51       0.0271
     69  CG       -19.2550   18.0350   -7.0870 C.3    51  LYS51       0.0035
     70  CD       -18.0830   17.9240   -8.0080 C.3    51  LYS51       0.0206
     71  CE       -16.8710   17.2640   -7.4000 C.3    51  LYS51       0.1093
     72  NZ       -15.7330   17.2740   -8.3560 N.3    51  LYS51      -0.1314
     73  N        -20.9790   15.4620  -18.0740 N.3    81  VAL81      -0.1245
     74  CA       -22.0420   15.8740  -17.1160 C.3    81  VAL81       0.1561
     75  C        -22.3520   17.3710  -17.2470 C.2    81  VAL81       0.2260
     76  O        -21.4330   18.1840  -17.3820 O.2    81  VAL81      -0.2867
     77  CB       -21.7510   15.4990  -15.6380 C.3    81  VAL81       0.0252
     78  CG1      -21.6770   13.9780  -15.4580 C.3    81  VAL81       0.0019
     79  CG2      -20.4950   16.1970  -15.0900 C.3    81  VAL81       0.0019
     80  N        -24.4340   19.6340  -10.2560 N.3    97  LEU97      -0.1231
     81  CA       -24.2380   18.8930  -11.5110 C.3    97  LEU97       0.1693
     82  C        -25.3530   17.9210  -11.8050 C.2    97  LEU97       0.2592
     83  O        -26.0760   17.5120  -10.9000 O.2    97  LEU97      -0.2718
     84  CB       -22.8840   18.1140  -11.4600 C.3    97  LEU97       0.0284
     85  CG       -21.6530   18.9460  -11.1410 C.3    97  LEU97       0.0019
     86  CD1      -20.4540   18.0420  -10.8360 C.3    97  LEU97       0.0001
     87  CD2      -21.3430   19.9390  -12.2790 C.3    97  LEU97       0.0001
     88  N        -25.4570   17.5130  -13.0760 N.am   98  GLU98      -0.1966
     89  CA       -26.4030   16.5080  -13.5390 C.3    98  GLU98       0.1733
     90  C        -26.2360   15.2200  -12.6930 C.2    98  GLU98       0.2616
     91  O        -25.1460   14.6630  -12.6670 O.2    98  GLU98      -0.2715
     92  CB       -26.0880   16.2070  -15.0010 C.3    98  GLU98       0.0429
     93  CG       -26.8370   15.0250  -15.5850 C.3    98  GLU98       0.1163
     94  CD       -26.4640   14.7850  -17.0320 C.2    98  GLU98       0.3649
     95  OE1      -25.5450   15.4730  -17.5330 O.co2  98  GLU98      -0.2457
     96  OE2      -27.0810   13.8990  -17.6600 O.co2  98  GLU98      -0.2457
     97  N        -27.2890   14.7760  -11.9890 N.am   99  LEU99      -0.1963
     98  CA       -27.1530   13.5650  -11.1710 C.3    99  LEU99       0.1728
     99  C        -27.0100   12.3390  -12.0580 C.2    99  LEU99       0.2616
    100  O        -27.7990   12.1450  -12.9790 O.2    99  LEU99      -0.2715
    101  CB       -28.2990   13.3790  -10.1440 C.3    99  LEU99       0.0311
    102  CG       -28.1870   12.1220   -9.2270 C.3    99  LEU99       0.0022
    103  CD1      -27.0530   12.2490   -8.1960 C.3    99  LEU99       0.0001
    104  CD2      -29.5080   11.8230   -8.5350 C.3    99  LEU99       0.0001
    105  N        -25.9910   11.5120  -11.7820 N.am  100  MET100     -0.1963
    106  CA       -25.7700   10.2940  -12.5640 C.3   100  MET100      0.1736
    107  C        -26.1830    9.1280  -11.6950 C.2   100  MET100      0.2616
    108  O        -25.4030    8.6460  -10.8660 O.2   100  MET100     -0.2715
    109  CB       -24.3020   10.2170  -13.0210 C.3   100  MET100      0.0427
    110  CG       -23.9030   11.4160  -13.8860 C.3   100  MET100      0.0599
    111  SD       -24.7190   11.4080  -15.5040 S.3   100  MET100     -0.1393
    112  CE       -23.7970   10.1940  -16.2590 C.3   100  MET100      0.0692
    113  N        -27.4420    8.7130  -11.8740 N.am  101  ALA101     -0.1963
    114  CA       -28.1300    7.6950  -11.0590 C.3   101  ALA101      0.1728
    115  C        -27.5760    6.2610  -11.1940 C.2   101  ALA101      0.2617
    116  O        -28.0170    5.3410  -10.4860 O.2   101  ALA101     -0.2715
    117  CB       -29.6170    7.7300  -11.3430 C.3   101  ALA101      0.0334
    118  N        -26.5960    6.0760  -12.0680 N.am  102  GLY102     -0.1940
    119  CA       -25.9390    4.7780  -12.1950 C.3   102  GLY102      0.2014
    120  C        -24.6290    4.7090  -11.4320 C.2   102  GLY102      0.2639
    121  O        -23.9770    3.6650  -11.4200 O.2   102  GLY102     -0.2714
    122  N        -24.2420    5.8200  -10.8050 N.am  103  GLY103     -0.1939
    123  CA       -22.9740    5.9600  -10.0950 C.3   103  GLY103      0.2014
    124  C        -21.7670    5.9630  -11.0210 C.2   103  GLY103      0.2638
    125  O        -21.9000    6.1470  -12.2450 O.2   103  GLY103     -0.2714
    126  N        -20.5670    5.7780  -10.4470 N.am  104  ASP104     -0.1971
    127  CA       -19.3350    5.7390  -11.2440 C.3   104  ASP104      0.1709
    128  C        -19.2300    4.4230  -12.0110 C.2   104  ASP104      0.2293
    129  O        -19.8690    3.4200  -11.6520 O.2   104  ASP104     -0.2864
    130  CB       -18.0920    6.0030  -10.3770 C.3   104  ASP104      0.1436
    131  CG       -17.7340    4.8380   -9.4760 C.2   104  ASP104      0.3671
    132  OD1      -16.7480    4.1280   -9.7830 O.co2 104  ASP104     -0.2456
    133  OD2      -18.4750    4.5910   -8.5130 O.co2 104  ASP104     -0.2456
    134  N        -17.3700    1.2460  -10.0340 N.3   107  SER107     -0.1217
    135  CA       -18.2440    0.5360   -9.1050 C.3   107  SER107      0.1889
    136  C        -19.3880   -0.1750   -9.8320 C.2   107  SER107      0.2288
    137  O        -19.7410   -1.2810   -9.4390 O.2   107  SER107     -0.2866
    138  CB       -18.7440    1.4610   -8.0050 C.3   107  SER107      0.2089
    139  OG       -19.8130    2.2580   -8.4750 O.3   107  SER107     -0.2183
    140  N        -20.0530   -4.2030   -9.4750 N.3   111  GLU111     -0.1245
    141  CA       -21.3750   -4.5690   -8.9530 C.3   111  GLU111      0.1567
    142  C        -22.2870   -5.2980   -9.9380 C.2   111  GLU111      0.2260
    143  O        -23.1340   -6.0820   -9.4980 O.2   111  GLU111     -0.2867
    144  CB       -22.1090   -3.3180   -8.4200 C.3   111  GLU111      0.0388
    145  CG       -21.5180   -2.7270   -7.1430 C.3   111  GLU111      0.1160
    146  CD       -22.1840   -1.4750   -6.5960 C.2   111  GLU111      0.3649
    147  OE1      -23.3850   -1.2590   -6.8760 O.co2 111  GLU111     -0.2457
    148  OE2      -21.5110   -0.7250   -5.8520 O.co2 111  GLU111     -0.2457
    149  N        -12.8840    5.5510  -12.8840 N.3   149  ARG149     -0.1231
    150  CA       -13.3050    6.2800  -11.6620 C.3   149  ARG149      0.1694
    151  C        -13.8420    7.6900  -11.9550 C.2   149  ARG149      0.2592
    152  O        -14.5290    8.2700  -11.1040 O.2   149  ARG149     -0.2718
    153  CB       -12.1590    6.3500  -10.6130 C.3   149  ARG149      0.0321
    154  CG       -10.9840    7.2080  -11.0900 C.3   149  ARG149      0.0489
    155  CD        -9.8040    7.3290  -10.1350 C.3   149  ARG149      0.2205
    156  NE        -8.7410    8.0460  -10.8390 N.pl3 149  ARG149     -0.0865
    157  CZ        -7.8200    7.4510  -11.5880 C.cat 149  ARG149      0.5346
    158  NH1       -7.7680    6.1290  -11.6610 N.pl3 149  ARG149      0.1354
    159  NH2       -6.9330    8.1700  -12.2510 N.pl3 149  ARG149      0.1354
    160  N        -13.5020    8.2510  -13.1470 N.am  150  ASN150     -0.1974
    161  CA       -13.9270    9.5810  -13.5690 C.3   150  ASN150      0.1688
    162  C        -15.1180    9.5540  -14.5290 C.2   150  ASN150      0.2292
    163  O        -15.5730   10.6130  -14.9570 O.2   150  ASN150     -0.2864
    164  CB       -12.7320   10.3580  -14.1450 C.3   150  ASN150      0.1181
    165  CG       -11.6830   10.6980  -13.1120 C.2   150  ASN150      0.2629
    166  OD1      -10.4960   10.7840  -13.4070 O.2   150  ASN150     -0.2716
    167  ND2      -12.0810   10.8660  -11.8670 N.am  150  ASN150     -0.0877
    168  N        -19.1390    8.2910  -15.2840 N.3   152  LEU152     -0.1245
    169  CA       -20.3970    8.0560  -14.5530 C.3   152  LEU152      0.1561
    170  C        -21.4820    7.5430  -15.4840 C.2   152  LEU152      0.2260
    171  O        -21.3770    7.7170  -16.7110 O.2   152  LEU152     -0.2867
    172  CB       -20.8520    9.3850  -13.9100 C.3   152  LEU152      0.0270
    173  CG       -19.8970   10.0680  -12.9330 C.3   152  LEU152      0.0019
    174  CD1      -20.2580   11.5330  -12.7550 C.3   152  LEU152      0.0001
    175  CD2      -19.9720    9.4340  -11.5610 C.3   152  LEU152      0.0001
    176  N        -17.2290   12.7410  -15.8450 N.3   165  GLY165     -0.1210
    177  CA       -17.7630   13.5040  -14.7280 C.3   165  GLY165      0.1956
    178  C        -16.7780   14.1280  -13.7690 C.2   165  GLY165      0.2611
    179  O        -17.1870   14.5490  -12.6880 O.2   165  GLY165     -0.2717
    180  N        -15.4810   14.1970  -14.1310 N.am  166  ASP166     -0.1973
    181  CA       -14.4710   14.8260  -13.2850 C.3   166  ASP166      0.1709
    182  C        -13.4360   15.4930  -14.1670 C.2   166  ASP166      0.2293
    183  O        -13.0500   14.9070  -15.1720 O.2   166  ASP166     -0.2864
    184  CB       -13.7730   13.8090  -12.3610 C.3   166  ASP166      0.1436
    185  CG       -12.8750   14.4660  -11.3120 C.2   166  ASP166      0.3671
    186  OD1      -11.6740   14.7140  -11.6120 O.co2 166  ASP166     -0.2456
    187  OD2      -13.3550   14.7140  -10.2040 O.co2 166  ASP166     -0.2456
@<TRIPOS>BOND
     1    73    74    1
     2    96    94   ar
     3    95    94   ar
     4    76    75    2
     5    75    74    1
     6    74    77    1
     7    94    93    1
     8   171   170    2
     9   112   111    1
    10   176   177    1
    11    77    78    1
    12    77    79    1
    13    93    92    1
    14   111   110    1
    15   170   169    1
    16   168   169    1
    17   183   182    2
    18    92    89    1
    19   163   162    2
    20   177   178    1
    21   169   172    1
    22   162   161    1
    23   182   181    1
    24   164   161    1
    25   164   165    1
    26   180   178   am
    27   180   181    1
    28   172   173    1
    29   110   109    1
    30   178   179    2
    31   161   160    1
    32    89    88    1
    33    89    90    1
    34   166   165    2
    35   181   184    1
    36   160   151   am
    37   165   167   am
    38    88    82   am
    39   109   106    1
    40   100    99    2
    41   173   174    1
    42   173   175    1
    43   149   150    1
    44    90    91    2
    45    90    97   am
    46   106   105    1
    47   106   107    1
    48   184   185    1
    49    87    85    1
    50   159   157    1
    51   125   124    2
    52   119   118    1
    53   119   120    1
    54   118   115   am
    55    99   105   am
    56    99    98    1
    57   128   129    2
    58   128   127    1
    59    97    98    1
    60   151   150    1
    61   151   152    2
    62   113   107   am
    63   113   114    1
    64    82    81    1
    65    82    83    2
    66   107   108    2
    67   150   153    1
    68   158   157    1
    69   186   185   ar
    70   157   156    2
    71    81    84    1
    72    81    80    1
    73    84    85    1
    74   120   121    2
    75   120   122   am
    76   117   114    1
    77   185   187   ar
    78   127   126    1
    79   127   130    1
    80   115   114    1
    81   115   116    2
    82    98   101    1
    83    85    86    1
    84   154   153    1
    85   154   155    1
    86   124   126   am
    87   124   123    1
    88   156   155    1
    89   122   123    1
    90   130   131    1
    91   101   102    1
    92   134   135    1
    93   142   143    2
    94   142   141    1
    95   136   137    2
    96   136   135    1
    97   132   131   ar
    98   131   133   ar
    99   140   141    1
   100   102   104    1
   101   102   103    1
   102   135   138    1
   103   141   144    1
   104   139   138    1
   105   144   145    1
   106    63    60    1
   107    72    71    1
   108    59    60    1
   109    70    71    1
   110    70    69    1
   111    62    61    2
   112    60    61    1
   113   145   146    1
   114    69    68    1
   115   147   146   ar
   116   146   148   ar
   117    68    65    1
   118    42    39    1
   119    64    65    1
   120    18    17    1
   121    48    47    1
   122    58    56   ar
   123    65    66    1
   124    55    56    1
   125    55    54    1
   126    38    39    1
   127    38    36   am
   128    56    57   ar
   129    49    47    1
   130    39    40    1
   131    35    36    1
   132    35    34    1
   133    67    66    2
   134    47    44    1
   135    51    54    1
   136    51    52    1
   137    51    50    1
   138    17    19    1
   139    17    16    1
   140    36    37    2
   141    16    13    1
   142    52    53    2
   143    27    26    2
   144    40    41    2
   145    34    26   am
   146    15    14    2
   147    44    45    1
   148    44    43    1
   149    26    25    1
   150    45    46    2
   151    13    14    1
   152    13    12    1
   153    10     9    1
   154    14    20   am
   155    25    24    1
   156    25    28    1
   157    24    22   am
   158    20    21    1
   159    22    23    2
   160    22    21    1
   161     7     6    1
   162     7     8    1
   163     9     8    2
   164     9    11    1
   165     6     5    1
   166     4     3    2
   167    28    29    1
   168     1     2    1
   169     3     2    1
   170     5     2    1
   171    29    30   ar
   172    29    31   ar
   173    30    32   ar
   174    31    33   ar
   175    32    33   ar
