@<TRIPOS>MOLECULE
tmp/4z5qA02.pdb
 92 90 0 0 0
SMALL
GASTEIGER

@<TRIPOS>ATOM
      1  N         34.9560   23.7510   26.3560 N.3    29  TYR29      -0.1241
      2  CA        35.0090   25.1190   26.8510 C.3    29  TYR29       0.1605
      3  C         34.3080   26.1260   25.9360 C.2    29  TYR29       0.2264
      4  O         33.4840   26.9060   26.3760 O.2    29  TYR29      -0.2867
      5  CB        36.4750   25.4510   27.0080 C.3    29  TYR29       0.0534
      6  CG        36.8650   26.7070   27.7210 C.ar   29  TYR29      -0.0201
      7  CD1       37.0170   27.8820   27.0320 C.ar   29  TYR29      -0.0009
      8  CD2       37.2460   26.6780   29.0590 C.ar   29  TYR29      -0.0009
      9  CE1       37.4680   29.0320   27.6450 C.ar   29  TYR29       0.0417
     10  CE2       37.6810   27.8120   29.6850 C.ar   29  TYR29       0.0417
     11  CZ        37.7990   28.9830   28.9850 C.ar   29  TYR29       0.1957
     12  OH        38.2770   30.0920   29.5860 O.3    29  TYR29      -0.2866
     13  N         31.1480   28.5060   26.8780 N.3    33  ARG33      -0.1245
     14  CA        31.1180   29.9490   26.8470 C.3    33  ARG33       0.1563
     15  C         29.8140   30.4980   26.2370 C.2    33  ARG33       0.2260
     16  O         29.2750   31.5150   26.7210 O.2    33  ARG33      -0.2867
     17  CB        32.3150   30.5260   26.0880 C.3    33  ARG33       0.0307
     18  CG        33.6740   30.3640   26.7620 C.3    33  ARG33       0.0489
     19  CD        34.7740   30.7510   25.7440 C.3    33  ARG33       0.2205
     20  NE        34.8140   32.1920   25.5240 N.pl3  33  ARG33      -0.0865
     21  CZ        35.6910   32.8500   24.7870 C.cat  33  ARG33       0.5346
     22  NH1       36.6250   32.1940   24.0920 N.pl3  33  ARG33       0.1354
     23  NH2       35.5780   34.1610   24.6970 N.pl3  33  ARG33       0.1354
     24  N         26.8740   32.5630   28.4160 N.3    37  THR37      -0.1218
     25  CA        26.8370   34.0010   28.1250 C.3    37  THR37       0.1862
     26  C         25.6440   34.4420   27.3520 C.2    37  THR37       0.2287
     27  O         25.2490   35.6000   27.4570 O.2    37  THR37      -0.2866
     28  CB        28.0850   34.5590   27.3930 C.3    37  THR37       0.1770
     29  OG1       28.2760   33.8690   26.1610 O.3    37  THR37      -0.2211
     30  CG2       29.2840   34.4400   28.2360 C.3    37  THR37       0.0375
     31  N         42.2020   30.5910   32.8030 N.3   315  ARG315     -0.1231
     32  CA        40.8540   31.1170   32.8320 C.3   315  ARG315      0.1694
     33  C         39.8910   29.9310   32.9230 C.2   315  ARG315      0.2592
     34  O         39.1960   29.5990   31.9840 O.2   315  ARG315     -0.2718
     35  CB        40.5830   32.0170   31.6250 C.3   315  ARG315      0.0321
     36  CG        41.3140   33.3720   31.6930 C.3   315  ARG315      0.0489
     37  CD        40.9550   34.2500   30.5060 C.3   315  ARG315      0.2205
     38  NE        41.3450   33.6260   29.2410 N.pl3 315  ARG315     -0.0865
     39  CZ        40.5110   33.2270   28.2820 C.cat 315  ARG315      0.5346
     40  NH1       39.2020   33.4350   28.3850 N.pl3 315  ARG315      0.1354
     41  NH2       40.9960   32.6600   27.1910 N.pl3 315  ARG315      0.1354
     42  N         39.8490   29.2980   34.0880 N.am  316  HIS316     -0.1962
     43  CA        38.9220   28.1800   34.3340 C.3   316  HIS316      0.1787
     44  C         37.4930   28.6940   34.5470 C.2   316  HIS316      0.2620
     45  O         37.2540   29.8920   34.7270 O.2   316  HIS316     -0.2715
     46  CB        39.4020   27.3510   35.5360 C.3   316  HIS316      0.0785
     47  CG        39.5190   28.1560   36.7760 C.ar  316  HIS316      0.0821
     48  ND1       38.4200   28.6720   37.4290 N.ar  316  HIS316     -0.2267
     49  CD2       40.6000   28.6190   37.4370 C.ar  316  HIS316      0.1154
     50  CE1       38.8150   29.4070   38.4460 C.ar  316  HIS316      0.1986
     51  NE2       40.1350   29.3820   38.4820 N.ar  316  HIS316     -0.2212
     52  N         36.5620   27.7680   34.6090 N.am  317  MET317     -0.1977
     53  CA        35.1740   28.0460   34.8110 C.3   317  MET317      0.1605
     54  C         34.6030   27.5150   36.0850 C.2   317  MET317      0.2287
     55  O         33.3900   27.2780   36.1530 O.2   317  MET317     -0.2864
     56  CB        34.3690   27.4290   33.6430 C.3   317  MET317      0.0413
     57  CG        34.3310   28.4030   32.5150 C.3   317  MET317      0.0598
     58  SD        33.1560   27.8410   31.3130 S.3   317  MET317     -0.1393
     59  CE        33.7530   28.8440   29.9600 C.3   317  MET317      0.0692
     60  N         31.7330   29.4510   37.1600 N.3   320  GLY320     -0.1210
     61  CA        30.8600   29.7750   36.0330 C.3   320  GLY320      0.1956
     62  C         31.3840   30.9090   35.1740 C.2   320  GLY320      0.2612
     63  O         32.5970   31.1780   35.1270 O.2   320  GLY320     -0.2717
     64  N         30.4550   31.5830   34.4950 N.am  321  HIS321     -0.1961
     65  CA        30.7620   32.6060   33.5000 C.3   321  HIS321      0.1787
     66  C         29.4780   33.2950   33.1940 C.2   321  HIS321      0.2621
     67  O         28.3710   32.7180   33.4240 O.2   321  HIS321     -0.2715
     68  CB        31.2490   31.8460   32.2380 C.3   321  HIS321      0.0785
     69  CG        31.8700   32.6930   31.1840 C.ar  321  HIS321      0.0821
     70  ND1       32.8790   33.5830   31.4410 N.ar  321  HIS321     -0.2267
     71  CD2       31.6950   32.6860   29.8500 C.ar  321  HIS321      0.1154
     72  CE1       33.2600   34.1470   30.3100 C.ar  321  HIS321      0.1986
     73  NE2       32.5630   33.6120   29.3270 N.ar  321  HIS321     -0.2212
     74  N         29.5830   34.4820   32.6200 N.am  322  GLY322     -0.1940
     75  CA        28.4190   35.2410   32.2220 C.3   322  GLY322      0.2014
     76  C         27.7500   35.8280   33.4160 C.2   322  GLY322      0.2638
     77  O         28.3790   35.9880   34.4530 O.2   322  GLY322     -0.2714
     78  N         26.4540   36.0660   33.2920 N.am  323  ALA323     -0.1977
     79  CA        25.7270   36.8540   34.3190 C.3   323  ALA323      0.1597
     80  C         25.7010   36.2240   35.7000 C.2   323  ALA323      0.2287
     81  O         25.7100   36.9370   36.7170 O.2   323  ALA323     -0.2864
     82  CB        24.2960   37.0850   33.8900 C.3   323  ALA323      0.0319
     83  N         27.9370   34.2870   37.0600 N.3   325  HIS325     -0.1241
     84  CA        29.2780   34.0490   37.6200 C.3   325  HIS325      0.1621
     85  C         29.2780   34.2660   39.1650 C.2   325  HIS325      0.2264
     86  O         28.6580   35.2540   39.6630 O.2   325  HIS325     -0.2867
     87  CB        30.2820   35.0190   36.9460 C.3   325  HIS325      0.0745
     88  CG        31.6630   34.9150   37.4910 C.ar  325  HIS325      0.0817
     89  ND1       32.1680   35.8160   38.3930 N.ar  325  HIS325     -0.2268
     90  CD2       32.6460   34.0020   37.2900 C.ar  325  HIS325      0.1154
     91  CE1       33.3930   35.4640   38.7500 C.ar  325  HIS325      0.1986
     92  NE2       33.7140   34.3710   38.0860 N.ar  325  HIS325     -0.2212
@<TRIPOS>BOND
     1    22    21    1
     2    23    21    1
     3    21    20    2
     4    20    19    1
     5    19    18    1
     6     3     4    2
     7     3     2    1
     8    17    18    1
     9    17    14    1
    10    29    28    1
    11    15    16    2
    12    15    14    1
    13     1     2    1
    14    14    13    1
    15     2     5    1
    16     5     6    1
    17     7     9   ar
    18     7     6   ar
    19    41    39    1
    20    26    27    2
    21    26    25    1
    22    28    25    1
    23    28    30    1
    24     9    11   ar
    25     6     8   ar
    26    25    24    1
    27    39    40    1
    28    39    38    2
    29    11    12    1
    30    11    10   ar
    31     8    10   ar
    32    38    37    1
    33    73    71   ar
    34    73    72   ar
    35    71    69   ar
    36    59    58    1
    37    72    70   ar
    38    37    36    1
    39    69    70   ar
    40    69    68    1
    41    58    57    1
    42    35    36    1
    43    35    32    1
    44    34    33    2
    45    75    74    1
    46    75    76    1
    47    68    65    1
    48    57    56    1
    49    74    66   am
    50    31    32    1
    51    32    33    1
    52    33    42   am
    53    66    67    2
    54    66    65    1
    55    78    76   am
    56    78    79    1
    57    76    77    2
    58    65    64    1
    59    56    53    1
    60    82    79    1
    61    42    43    1
    62    79    80    1
    63    43    44    1
    64    43    46    1
    65    64    62   am
    66    44    52   am
    67    44    45    2
    68    52    53    1
    69    53    54    1
    70    63    62    2
    71    62    61    1
    72    46    47    1
    73    80    81    2
    74    61    60    1
    75    54    55    2
    76    47    48   ar
    77    47    49   ar
    78    87    88    1
    79    87    84    1
    80    83    84    1
    81    90    88   ar
    82    90    92   ar
    83    48    50   ar
    84    49    51   ar
    85    88    89   ar
    86    84    85    1
    87    92    91   ar
    88    89    91   ar
    89    50    51   ar
    90    85    86    2
