@<TRIPOS>MOLECULE
tmp/4z5qA01.pdb
 159 151 0 0 0
SMALL
GASTEIGER

@<TRIPOS>ATOM
      1  N         13.3700   17.5520   45.2580 N.3    57  ARG57      -0.1245
      2  CA        12.5140   18.7470   45.4290 C.3    57  ARG57       0.1563
      3  C         12.6480   19.6400   44.1870 C.2    57  ARG57       0.2260
      4  O         13.7550   19.7760   43.6720 O.2    57  ARG57      -0.2867
      5  CB        12.8120   19.5320   46.7210 C.3    57  ARG57       0.0307
      6  CG        13.8860   20.6260   46.6830 C.3    57  ARG57       0.0489
      7  CD        15.2610   20.0620   46.9650 C.3    57  ARG57       0.2205
      8  NE        16.2790   21.0730   46.6840 N.pl3  57  ARG57      -0.0865
      9  CZ        16.7040   21.4110   45.4670 C.cat  57  ARG57       0.5346
     10  NH1       16.2070   20.8150   44.3690 N.pl3  57  ARG57       0.1354
     11  NH2       17.6400   22.3520   45.3450 N.pl3  57  ARG57       0.1354
     12  N         13.6170   25.9750   44.1340 N.3    60  PRO60      -0.2102
     13  CA        12.9720   27.2310   44.5450 C.3    60  PRO60       0.1504
     14  C         13.4920   28.4030   43.7270 C.2    60  PRO60       0.2576
     15  O         14.6570   28.3820   43.2970 O.2    60  PRO60      -0.2718
     16  CB        13.3850   27.3830   46.0060 C.3    60  PRO60       0.0282
     17  CG        14.6490   26.6300   46.1320 C.3    60  PRO60       0.0208
     18  CD        14.6310   25.5350   45.1000 C.3    60  PRO60       0.0893
     19  N         12.6420   29.4020   43.4980 N.am   61  GLU61      -0.1966
     20  CA        13.0830   30.6310   42.8620 C.3    61  GLU61       0.1733
     21  C         14.1440   31.2820   43.7440 C.2    61  GLU61       0.2617
     22  O         14.0910   31.2300   44.9960 O.2    61  GLU61      -0.2715
     23  CB        11.9270   31.5970   42.5590 C.3    61  GLU61       0.0429
     24  CG        11.1130   31.1290   41.3620 C.3    61  GLU61       0.1163
     25  CD         9.9170   32.0110   41.0390 C.2    61  GLU61       0.3649
     26  OE1        8.8050   31.7420   41.5700 O.co2  61  GLU61      -0.2457
     27  OE2       10.0850   32.9520   40.2340 O.co2  61  GLU61      -0.2457
     28  N         15.1510   31.8380   43.1000 N.am   62  SER62      -0.1936
     29  CA        16.3050   32.4770   43.8160 C.3    62  SER62       0.2055
     30  C         17.0110   33.3060   42.7520 C.2    62  SER62       0.2643
     31  O         16.6330   33.3050   41.5710 O.2    62  SER62      -0.2714
     32  CB        17.2790   31.4460   44.3870 C.3    62  SER62       0.2130
     33  OG        18.0330   30.7700   43.3590 O.3    62  SER62      -0.2179
     34  N         18.0620   33.9700   43.1670 N.am   63  ILE63      -0.1963
     35  CA        18.8630   34.7070   42.2440 C.3    63  ILE63       0.1727
     36  C         19.3560   33.7820   41.0750 C.2    63  ILE63       0.2616
     37  O         19.4450   34.2450   39.9620 O.2    63  ILE63      -0.2715
     38  CB        20.0270   35.3970   42.9460 C.3    63  ILE63       0.0290
     39  CG1       20.7470   36.3720   41.9950 C.3    63  ILE63       0.0022
     40  CG2       21.0150   34.4070   43.5610 C.3    63  ILE63       0.0023
     41  CD1       21.7220   37.2940   42.7060 C.3    63  ILE63       0.0001
     42  N         19.6100   32.5140   41.3670 N.am   64  LEU64      -0.1977
     43  CA        20.1250   31.5580   40.3680 C.3    64  LEU64       0.1596
     44  C         19.0530   31.1320   39.3040 C.2    64  LEU64       0.2287
     45  O         19.4160   30.6410   38.2520 O.2    64  LEU64      -0.2864
     46  CB        20.7340   30.3840   41.0590 C.3    64  LEU64       0.0297
     47  CG        21.5770   29.4110   40.2230 C.3    64  LEU64       0.0022
     48  CD1       22.6110   30.1280   39.3330 C.3    64  LEU64       0.0001
     49  CD2       22.1900   28.3740   41.1260 C.3    64  LEU64       0.0001
     50  N         15.8070   23.4910   56.6090 N.3   163  PHE163     -0.1241
     51  CA        15.8080   24.5350   55.5810 C.3   163  PHE163      0.1605
     52  C         14.7900   25.6010   55.9080 C.2   163  PHE163      0.2264
     53  O         15.0800   26.8210   55.8030 O.2   163  PHE163     -0.2867
     54  CB        15.4910   23.9910   54.1640 C.3   163  PHE163      0.0534
     55  CG        15.7480   25.0140   53.1040 C.ar  163  PHE163     -0.0203
     56  CD1       17.0510   25.2900   52.6950 C.ar  163  PHE163     -0.0042
     57  CD2       14.7240   25.7880   52.6040 C.ar  163  PHE163     -0.0042
     58  CE1       17.2930   26.2900   51.7700 C.ar  163  PHE163     -0.0003
     59  CE2       14.9630   26.7970   51.6810 C.ar  163  PHE163     -0.0003
     60  CZ        16.2480   27.0380   51.2530 C.ar  163  PHE163     -0.0000
     61  N         14.9430   29.8860   56.8160 N.3   167  GLN167     -0.1245
     62  CA        14.0030   30.9600   56.5000 C.3   167  GLN167      0.1566
     63  C         13.5510   31.7240   57.7230 C.2   167  GLN167      0.2260
     64  O         13.4740   32.9530   57.7240 O.2   167  GLN167     -0.2867
     65  CB        12.7760   30.4090   55.7510 C.3   167  GLN167      0.0367
     66  CG        13.0870   29.9300   54.3630 C.3   167  GLN167      0.0905
     67  CD        11.8800   29.2100   53.7820 C.2   167  GLN167      0.2608
     68  OE1       10.7740   29.7460   53.7670 O.2   167  GLN167     -0.2717
     69  NE2       12.0610   27.9840   53.4150 N.am  167  GLN167     -0.0878
     70  N         11.2510   39.1650   51.4310 N.3   202  PRO202     -0.2116
     71  CA        11.5170   37.7850   50.9810 C.3   202  PRO202      0.1372
     72  C         12.7540   37.6380   50.0930 C.2   202  PRO202      0.2244
     73  O         13.4550   36.6110   50.1270 O.2   202  PRO202     -0.2868
     74  CB        10.2350   37.3840   50.2340 C.3   202  PRO202      0.0268
     75  CG         9.2180   38.3870   50.6100 C.3   202  PRO202      0.0207
     76  CD         9.9310   39.6490   50.9920 C.3   202  PRO202      0.0892
     77  N         15.7670   37.6200   52.6080 N.3   205  ILE205     -0.1231
     78  CA        15.8350   36.3360   53.2850 C.3   205  ILE205      0.1692
     79  C         16.4380   35.3250   52.3360 C.2   205  ILE205      0.2592
     80  O         17.3940   34.6260   52.6850 O.2   205  ILE205     -0.2718
     81  CB        14.4350   35.8950   53.7820 C.3   205  ILE205      0.0266
     82  CG1       13.9390   36.8220   54.8780 C.3   205  ILE205      0.0019
     83  CG2       14.4560   34.4540   54.2760 C.3   205  ILE205      0.0020
     84  CD1       12.4390   36.7010   55.1520 C.3   205  ILE205      0.0001
     85  N         15.9030   35.2720   51.1040 N.am  206  GLY206     -0.1957
     86  CA        16.4130   34.3420   50.0660 C.3   206  GLY206      0.1869
     87  C         17.9060   34.5680   49.7680 C.2   206  GLY206      0.2309
     88  O         18.6540   33.6070   49.6610 O.2   206  GLY206     -0.2863
     89  N         20.1710   33.2280   52.4660 N.3   209  ILE209     -0.1231
     90  CA        20.2160   31.7950   52.3270 C.3   209  ILE209      0.1692
     91  C         21.0750   31.3680   51.1470 C.2   209  ILE209      0.2592
     92  O         21.9050   30.4600   51.2830 O.2   209  ILE209     -0.2718
     93  CB        18.8220   31.1980   52.2290 C.3   209  ILE209      0.0266
     94  CG1       18.1020   31.3710   53.5840 C.3   209  ILE209      0.0019
     95  CG2       18.9170   29.7040   51.8590 C.3   209  ILE209      0.0020
     96  CD1       16.6200   30.9710   53.5680 C.3   209  ILE209      0.0001
     97  N         20.9140   32.0490   50.0160 N.am  210  SER210     -0.1952
     98  CA        21.7360   31.7570   48.8240 C.3   210  SER210      0.1924
     99  C         23.2210   31.9680   49.1210 C.2   210  SER210      0.2314
    100  O         24.0580   31.1870   48.6610 O.2   210  SER210     -0.2863
    101  CB        21.3400   32.6410   47.6360 C.3   210  SER210      0.2116
    102  OG        20.0440   32.2860   47.1750 O.3   210  SER210     -0.2180
    103  N         24.3540   28.9850   51.5600 N.3   213  ILE213     -0.1231
    104  CA        24.4100   27.7130   50.8820 C.3   213  ILE213      0.1692
    105  C         25.3620   27.7010   49.6790 C.2   213  ILE213      0.2592
    106  O         25.9230   26.6630   49.3450 O.2   213  ILE213     -0.2718
    107  CB        23.0110   27.2940   50.4360 C.3   213  ILE213      0.0266
    108  CG1       22.1500   27.0350   51.6720 C.3   213  ILE213      0.0019
    109  CG2       23.0710   26.0640   49.5400 C.3   213  ILE213      0.0020
    110  CD1       20.8300   26.3920   51.3430 C.3   213  ILE213      0.0001
    111  N         25.5430   28.8360   49.0220 N.am  214  GLY214     -0.1957
    112  CA        26.5490   28.9340   47.9560 C.3   214  GLY214      0.1869
    113  C         28.0030   28.8780   48.4260 C.2   214  GLY214      0.2309
    114  O         28.8700   28.4000   47.6950 O.2   214  GLY214     -0.2863
    115  N         29.2210   24.5280   51.5020 N.3   217  GLU217     -0.1231
    116  CA        29.6820   23.2370   51.0600 C.3   217  GLU217      0.1699
    117  C         30.7300   23.3330   49.9800 C.2   217  GLU217      0.2592
    118  O         31.6550   22.5200   49.9830 O.2   217  GLU217     -0.2718
    119  CB        28.5620   22.3540   50.5480 C.3   217  GLU217      0.0402
    120  CG        29.1000   20.9880   50.1730 C.3   217  GLU217      0.1161
    121  CD        28.0220   20.1710   49.5010 C.2   217  GLU217      0.3649
    122  OE1       27.7960   20.3550   48.2730 O.co2 217  GLU217     -0.2457
    123  OE2       27.3930   19.3480   50.1580 O.co2 217  GLU217     -0.2457
    124  N         30.5720   24.3050   49.0780 N.am  218  THR218     -0.1953
    125  CA        31.5110   24.5420   47.9790 C.3   218  THR218      0.1897
    126  C         32.9090   24.7750   48.5270 C.2   218  THR218      0.2313
    127  O         33.8190   24.0340   48.2110 O.2   218  THR218     -0.2863
    128  CB        31.0860   25.7410   47.1420 C.3   218  THR218      0.1794
    129  OG1       30.9100   26.8590   48.0030 O.3   218  THR218     -0.2208
    130  CG2       29.7910   25.4210   46.4080 C.3   218  THR218      0.0378
    131  N         34.5700   17.9960   39.9560 N.3   260  PHE260     -0.1241
    132  CA        33.2300   18.0460   40.5580 C.3   260  PHE260      0.1605
    133  C         32.6020   16.6600   40.3670 C.2   260  PHE260      0.2264
    134  O         32.7990   16.0240   39.3190 O.2   260  PHE260     -0.2867
    135  CB        32.3230   19.0810   39.8500 C.3   260  PHE260      0.0534
    136  CG        32.5020   20.5100   40.3050 C.ar  260  PHE260     -0.0203
    137  CD1       33.7650   21.0880   40.3850 C.ar  260  PHE260     -0.0042
    138  CD2       31.3950   21.2930   40.6300 C.ar  260  PHE260     -0.0042
    139  CE1       33.9110   22.3940   40.8100 C.ar  260  PHE260     -0.0003
    140  CE2       31.5450   22.6100   41.0590 C.ar  260  PHE260     -0.0003
    141  CZ        32.8020   23.1620   41.1380 C.ar  260  PHE260     -0.0000
    142  N         27.2170   18.3160   38.2540 N.3   263  ASN263     -0.1225
    143  CA        27.2540   19.6690   37.7000 C.3   263  ASN263      0.1785
    144  C         27.1040   20.7640   38.7950 C.2   263  ASN263      0.2597
    145  O         26.0290   20.9090   39.4050 O.2   263  ASN263     -0.2718
    146  CB        26.1680   19.8640   36.6570 C.3   263  ASN263      0.1169
    147  CG        24.7750   19.5870   37.2090 C.2   263  ASN263      0.2627
    148  OD1       24.5580   18.5450   37.8210 O.2   263  ASN263     -0.2716
    149  ND2       23.8390   20.5140   37.0030 N.am  263  ASN263     -0.0877
    150  N         28.1930   21.5010   39.0390 N.am  264  GLY264     -0.1957
    151  CA        28.1610   22.7110   39.8340 C.3   264  GLY264      0.1869
    152  C         27.4190   23.8280   39.1150 C.2   264  GLY264      0.2309
    153  O         26.8630   24.7240   39.7840 O.2   264  GLY264     -0.2863
    154  N         24.3110   25.1680   36.8810 N.3   266  SER266     -0.1217
    155  CA        22.9080   24.8230   36.6720 C.3   266  SER266      0.1889
    156  C         22.4910   24.7170   35.2160 C.2   266  SER266      0.2288
    157  O         23.1070   25.3500   34.3820 O.2   266  SER266     -0.2866
    158  CB        22.0460   25.9020   37.3460 C.3   266  SER266      0.2089
    159  OG        22.1100   25.6760   38.7060 O.3   266  SER266     -0.2183
@<TRIPOS>BOND
     1   157   156    2
     2   156   155    1
     3   146   147    1
     4   146   143    1
     5   155   154    1
     6   155   158    1
     7   149   147   am
     8   147   148    2
     9   158   159    1
    10   143   142    1
    11   143   144    1
    12    45    44    2
    13   144   150   am
    14   144   145    2
    15   150   151    1
    16   152   153    2
    17   152   151    1
    18    44    43    1
    19   134   133    2
    20    48    47    1
    21   135   136    1
    22   135   132    1
    23   131   132    1
    24    37    36    2
    25    47    46    1
    26    47    49    1
    27    27    25   ar
    28   136   137   ar
    29   136   138   ar
    30   133   132    1
    31    43    46    1
    32    43    42    1
    33   137   139   ar
    34   138   140   ar
    35   139   141   ar
    36    25    24    1
    37    25    26   ar
    38   140   141   ar
    39    36    42   am
    40    36    35    1
    41    24    23    1
    42    31    30    2
    43    39    41    1
    44    39    38    1
    45    35    38    1
    46    35    34    1
    47    23    20    1
    48    30    34   am
    49    30    29    1
    50    20    19    1
    51    20    21    1
    52    38    40    1
    53    28    21   am
    54    28    29    1
    55    15    14    2
    56    33    32    1
    57    19    14   am
    58     4     3    2
    59    14    13    1
    60    21    22    2
    61    29    32    1
    62    12    13    1
    63    12    18    1
    64     3     2    1
    65    10     9    1
    66    13    16    1
    67    18    17    1
    68     1     2    1
    69    11     9    1
    70     2     5    1
    71     9     8    2
    72    16    17    1
    73   130   128    1
    74     6     5    1
    75     6     7    1
    76     8     7    1
    77   128   125    1
    78   128   129    1
    79   102   101    1
    80   101    98    1
    81   114   113    2
    82   112   113    1
    83   112   111    1
    84   125   126    1
    85   125   124    1
    86   127   126    2
    87   122   121   ar
    88   100    99    2
    89    98    99    1
    90    98    97    1
    91   111   105   am
    92   124   117   am
    93   106   105    2
    94   121   123   ar
    95   121   120    1
    96   109   107    1
    97    88    87    2
    98   105   104    1
    99    87    86    1
   100   117   118    2
   101   117   116    1
   102    97    91   am
   103    86    85    1
   104    72    73    2
   105    72    71    1
   106   120   119    1
   107    74    75    1
   108    74    71    1
   109   107   104    1
   110   107   108    1
   111   119   116    1
   112    75    76    1
   113   104   103    1
   114    71    70    1
   115    76    70    1
   116   116   115    1
   117    85    79   am
   118    91    92    2
   119    91    90    1
   120    60    59   ar
   121    60    58   ar
   122   110   108    1
   123    59    57   ar
   124    58    56   ar
   125    95    93    1
   126    93    90    1
   127    93    94    1
   128    90    89    1
   129    79    80    2
   130    79    78    1
   131    57    55   ar
   132    77    78    1
   133    56    55   ar
   134    55    54    1
   135    78    81    1
   136    69    67   am
   137    96    94    1
   138    68    67    2
   139    81    83    1
   140    81    82    1
   141    67    66    1
   142    54    51    1
   143    66    65    1
   144    82    84    1
   145    51    52    1
   146    51    50    1
   147    65    62    1
   148    53    52    2
   149    62    61    1
   150    62    63    1
   151    63    64    2
