@<TRIPOS>MOLECULE
tmp/4z5xA00.pdb
 93 90 0 0 0
SMALL
GASTEIGER

@<TRIPOS>ATOM
      1  N         34.2110   31.0820   36.8510 N.3   264  ASN264     -0.1225
      2  CA        34.8920   31.1630   35.5760 C.3   264  ASN264      0.1785
      3  C         34.6380   29.9300   34.7210 C.2   264  ASN264      0.2597
      4  O         34.8890   28.8050   35.1240 O.2   264  ASN264     -0.2718
      5  CB        36.3890   31.3160   35.7900 C.3   264  ASN264      0.1169
      6  CG        36.7140   32.4850   36.6880 C.2   264  ASN264      0.2627
      7  OD1       36.1550   33.5890   36.5250 O.2   264  ASN264     -0.2716
      8  ND2       37.5740   32.2490   37.6750 N.am  264  ASN264     -0.0877
      9  N         34.1570   30.1700   33.5240 N.am  265  ASP265     -0.1960
     10  CA        33.9230   29.1170   32.5700 C.3   265  ASP265      0.1840
     11  C         35.1240   29.1810   31.6360 C.2   265  ASP265      0.2622
     12  O         35.3690   30.2150   31.0100 O.2   265  ASP265     -0.2715
     13  CB        32.6180   29.4250   31.8440 C.3   265  ASP265      0.1450
     14  CG        32.1800   28.3100   30.9370 C.2   265  ASP265      0.3671
     15  OD1       31.6160   27.3310   31.4430 O.co2 265  ASP265     -0.2456
     16  OD2       32.3840   28.4140   29.7170 O.co2 265  ASP265     -0.2456
     17  N         35.9070   28.1210   31.5490 N.am  266  ASN266     -0.1958
     18  CA        36.9670   28.0900   30.5320 C.3   266  ASN266      0.1819
     19  C         38.0050   29.2420   30.7050 C.2   266  ASN266      0.2621
     20  O         38.4500   29.8480   29.7270 O.2   266  ASN266     -0.2715
     21  CB        36.3090   28.1600   29.1260 C.3   266  ASN266      0.1195
     22  CG        36.8370   27.1140   28.1810 C.2   266  ASN266      0.2630
     23  OD1       37.6780   27.3940   27.3180 O.2   266  ASN266     -0.2716
     24  ND2       36.3430   25.8880   28.3380 N.am  266  ASN266     -0.0877
     25  N         38.3570   29.5570   31.9510 N.am  267  PHE267     -0.1974
     26  CA        39.3400   30.6010   32.2340 C.3   267  PHE267      0.1639
     27  C         40.0810   30.2980   33.5410 C.2   267  PHE267      0.2290
     28  O         39.4530   29.9810   34.5580 O.2   267  PHE267     -0.2864
     29  CB        38.6770   31.9760   32.3020 C.3   267  PHE267      0.0560
     30  CG        39.6490   33.1100   32.5030 C.ar  267  PHE267     -0.0200
     31  CD1       40.4300   33.5720   31.4430 C.ar  267  PHE267     -0.0042
     32  CD2       39.7900   33.7220   33.7540 C.ar  267  PHE267     -0.0042
     33  CE1       41.3360   34.6210   31.6300 C.ar  267  PHE267     -0.0003
     34  CE2       40.6940   34.7740   33.9420 C.ar  267  PHE267     -0.0003
     35  CZ        41.4670   35.2200   32.8790 C.ar  267  PHE267     -0.0000
     36  N         42.2580   31.3520   36.7200 N.3   269  GLU269     -0.1245
     37  CA        42.6000   32.4110   37.6510 C.3   269  GLU269      0.1567
     38  C         43.4290   31.7150   38.7400 C.2   269  GLU269      0.2260
     39  O         42.9180   30.8410   39.4560 O.2   269  GLU269     -0.2867
     40  CB        41.2930   32.9920   38.1990 C.3   269  GLU269      0.0388
     41  CG        41.3750   34.3810   38.8000 C.3   269  GLU269      0.1160
     42  CD        40.0760   34.7830   39.4860 C.2   269  GLU269      0.3649
     43  OE1       40.1390   35.6610   40.3690 O.co2 269  GLU269     -0.2457
     44  OE2       39.0010   34.2120   39.1660 O.co2 269  GLU269     -0.2457
     45  N         44.2620   30.5490   27.6330 N.3   355  GLU355     -0.1245
     46  CA        43.8130   31.1730   28.8760 C.3   355  GLU355      0.1567
     47  C         43.0600   30.2320   29.8430 C.2   355  GLU355      0.2260
     48  O         42.8680   30.5840   31.0030 O.2   355  GLU355     -0.2867
     49  CB        42.9720   32.4350   28.5910 C.3   355  GLU355      0.0388
     50  CG        41.6620   32.2120   27.8310 C.3   355  GLU355      0.1160
     51  CD        41.7850   32.3140   26.3060 C.2   355  GLU355      0.3649
     52  OE1       42.8340   31.9370   25.7260 O.co2 355  GLU355     -0.2457
     53  OE2       40.7990   32.7450   25.6770 O.co2 355  GLU355     -0.2457
     54  N         31.0130   34.4720   25.9310 N.3   544  HIS544     -0.1226
     55  CA        32.4560   34.4700   25.6450 C.3   544  HIS544      0.1752
     56  C         32.6730   35.1080   24.2920 C.2   544  HIS544      0.2595
     57  O         31.8130   35.0060   23.4220 O.2   544  HIS544     -0.2718
     58  CB        32.9950   33.0410   25.5120 C.3   544  HIS544      0.0759
     59  CG        33.3070   32.3690   26.8040 C.ar  544  HIS544      0.0818
     60  ND1       32.3980   31.5570   27.4530 N.ar  544  HIS544     -0.2268
     61  CD2       34.4410   32.3330   27.5420 C.ar  544  HIS544      0.1154
     62  CE1       32.9460   31.0790   28.5550 C.ar  544  HIS544      0.1986
     63  NE2       34.1870   31.5290   28.6310 N.ar  544  HIS544     -0.2212
     64  N         33.8370   35.7070   24.0870 N.am  545  GLU545     -0.1979
     65  CA        34.2060   36.1710   22.7490 C.3   545  GLU545      0.1602
     66  C         34.2750   35.0220   21.7210 C.2   545  GLU545      0.2287
     67  O         33.8780   35.1990   20.5750 O.2   545  GLU545     -0.2864
     68  CB        35.5390   36.9100   22.7800 C.3   545  GLU545      0.0415
     69  CG        35.4440   38.2890   23.3850 C.3   545  GLU545      0.1163
     70  CD        36.7570   38.7200   24.0100 C.2   545  GLU545      0.3649
     71  OE1       37.5660   39.3320   23.2930 O.co2 545  GLU545     -0.2457
     72  OE2       36.9910   38.3950   25.1890 O.co2 545  GLU545     -0.2457
     73  N         31.2450   35.8900   33.4310 N.3   583  ALA583     -0.1245
     74  CA        32.0080   35.8600   34.6830 C.3   583  ALA583      0.1562
     75  C         32.0760   37.3010   35.2180 C.2   583  ALA583      0.2260
     76  O         32.1720   38.2370   34.4220 O.2   583  ALA583     -0.2867
     77  CB        33.3980   35.3060   34.4690 C.3   583  ALA583      0.0290
     78  N         34.2560   39.3210   36.5890 N.3   585  GLY585     -0.1210
     79  CA        35.3700   40.1820   36.1650 C.3   585  GLY585      0.1956
     80  C         35.6670   40.2120   34.6700 C.2   585  GLY585      0.2611
     81  O         36.6850   40.7680   34.2730 O.2   585  GLY585     -0.2717
     82  N         34.8040   39.6050   33.8430 N.am  586  TYR586     -0.1976
     83  CA        35.0130   39.5200   32.3880 C.3   586  TYR586      0.1639
     84  C         34.2780   40.7270   31.7910 C.2   586  TYR586      0.2290
     85  O         33.0930   40.6500   31.4150 O.2   586  TYR586     -0.2864
     86  CB        34.4670   38.1780   31.8770 C.3   586  TYR586      0.0560
     87  CG        34.7920   37.7470   30.4440 C.ar  586  TYR586     -0.0198
     88  CD1       35.4770   38.5780   29.5390 C.ar  586  TYR586     -0.0009
     89  CD2       34.3510   36.4930   29.9820 C.ar  586  TYR586     -0.0009
     90  CE1       35.7370   38.1600   28.2440 C.ar  586  TYR586      0.0417
     91  CE2       34.6110   36.0620   28.6810 C.ar  586  TYR586      0.0417
     92  CZ        35.2980   36.8930   27.8090 C.ar  586  TYR586      0.1957
     93  OH        35.5370   36.4410   26.5200 O.3   586  TYR586     -0.2866
@<TRIPOS>BOND
     1    67    66    2
     2    66    65    1
     3    65    68    1
     4    65    64    1
     5    68    69    1
     6    71    70   ar
     7    69    70    1
     8    57    56    2
     9    70    72   ar
    10    64    56   am
    11    56    55    1
    12    58    55    1
    13    58    59    1
    14    55    54    1
    15    53    51   ar
    16    52    51   ar
    17    51    50    1
    18    93    92    1
    19    59    60   ar
    20    59    61   ar
    21    23    22    2
    22    60    62   ar
    23    61    63   ar
    24    45    46    1
    25    92    90   ar
    26    92    91   ar
    27    50    49    1
    28    22    24   am
    29    22    21    1
    30    90    88   ar
    31    62    63   ar
    32    49    46    1
    33    91    89   ar
    34    46    47    1
    35    21    18    1
    36    88    87   ar
    37    16    14   ar
    38    20    19    2
    39    47    48    2
    40    89    87   ar
    41    87    86    1
    42    18    19    1
    43    18    17    1
    44    19    25   am
    45    14    15   ar
    46    14    13    1
    47    12    11    2
    48    85    84    2
    49    31    33   ar
    50    31    30   ar
    51    17    11   am
    52    33    35   ar
    53    11    10    1
    54    84    83    1
    55    13    10    1
    56    86    83    1
    57    25    26    1
    58    26    29    1
    59    26    27    1
    60    29    30    1
    61    83    82    1
    62    30    32   ar
    63    10     9    1
    64    35    34   ar
    65    73    74    1
    66     9     3   am
    67    27    28    2
    68    32    34   ar
    69    82    80   am
    70    81    80    2
    71    76    75    2
    72    77    74    1
    73    80    79    1
    74    74    75    1
    75     3     4    2
    76     3     2    1
    77     2     5    1
    78     2     1    1
    79     5     6    1
    80    79    78    1
    81     7     6    2
    82     6     8   am
    83    36    37    1
    84    37    40    1
    85    37    38    1
    86    40    41    1
    87    38    39    2
    88    41    42    1
    89    44    42   ar
    90    42    43   ar
