@<TRIPOS>MOLECULE
tmp/4z61A01.pdb
 85 75 0 0 0
SMALL
GASTEIGER

@<TRIPOS>ATOM
      1  N        -74.0790   18.0970    4.3290 N.3    66  GLU66      -0.1245
      2  CA       -75.0980   18.1950    5.3810 C.3    66  GLU66       0.1567
      3  C        -75.0040   19.5140    6.1400 C.2    66  GLU66       0.2260
      4  O        -74.1330   19.7030    6.9960 O.2    66  GLU66      -0.2867
      5  CB       -74.9690   17.0180    6.3560 C.3    66  GLU66       0.0388
      6  CG       -75.2880   15.6710    5.7330 C.3    66  GLU66       0.1160
      7  CD       -74.5020   14.5300    6.3550 C.2    66  GLU66       0.3649
      8  OE1      -73.7700   14.7780    7.3380 O.co2  66  GLU66      -0.2457
      9  OE2      -74.6130   13.3840    5.8590 O.co2  66  GLU66      -0.2457
     10  N        -77.9210   21.0400    7.7050 N.3    68  GLY68      -0.1210
     11  CA       -79.1000   21.2800    8.5260 C.3    68  GLY68       0.1956
     12  C        -78.8720   22.2400    9.6830 C.2    68  GLY68       0.2611
     13  O        -77.8660   22.1450   10.3740 O.2    68  GLY68      -0.2717
     14  N        -79.7900   23.1890    9.8500 N.am   69  ARG69      -0.1979
     15  CA       -79.7690   24.1400   10.9630 C.3    69  ARG69       0.1597
     16  C        -78.5240   25.0070   11.0510 C.2    69  ARG69       0.2287
     17  O        -78.0200   25.2520   12.1450 O.2    69  ARG69      -0.2864
     18  CB       -79.9740   23.4170   12.2910 C.3    69  ARG69       0.0334
     19  CG       -81.3810   22.9330   12.4810 C.3    69  ARG69       0.0492
     20  CD       -81.5040   21.8990   13.5940 C.3    69  ARG69       0.2205
     21  NE       -82.9070   21.7120   13.9850 N.pl3  69  ARG69      -0.0865
     22  CZ       -83.6860   20.7110   13.5740 C.cat  69  ARG69       0.5346
     23  NH1      -83.2090   19.7690   12.7520 N.pl3  69  ARG69       0.1354
     24  NH2      -84.9470   20.6470   14.0020 N.pl3  69  ARG69       0.1354
     25  N        -75.7270   12.2050   -0.1960 N.3    88  VAL88      -0.1245
     26  CA       -76.6180   12.9380    0.6980 C.3    88  VAL88       0.1561
     27  C        -76.5580   14.4500    0.4720 C.2    88  VAL88       0.2260
     28  O        -75.4800   15.0510    0.5340 O.2    88  VAL88      -0.2867
     29  CB       -76.2680   12.6640    2.1890 C.3    88  VAL88       0.0252
     30  CG1      -77.1420   13.4860    3.0970 C.3    88  VAL88       0.0019
     31  CG2      -76.4040   11.2100    2.5080 C.3    88  VAL88       0.0019
     32  N        -78.4040   17.3120    2.6120 N.3    90  ASN90      -0.1240
     33  CA       -79.3020   17.7090    3.6990 C.3    90  ASN90       0.1653
     34  C        -79.2100   19.2080    4.0460 C.2    90  ASN90       0.2266
     35  O        -78.2860   19.6500    4.7340 O.2    90  ASN90      -0.2867
     36  CB       -79.0070   16.8570    4.9440 C.3    90  ASN90       0.1155
     37  CG       -80.1390   16.8830    5.9740 C.2    90  ASN90       0.2627
     38  OD1      -80.9300   17.8210    6.0260 O.2    90  ASN90      -0.2716
     39  ND2      -80.2060   15.8350    6.8030 N.am   90  ASN90      -0.0877
     40  N        -81.9160   20.8150    5.6490 N.3    92  THR92      -0.1218
     41  CA       -83.0940   21.0120    6.4990 C.3    92  THR92       0.1862
     42  C        -83.0250   22.1590    7.5150 C.2    92  THR92       0.2287
     43  O        -81.9640   22.4860    8.0440 O.2    92  THR92      -0.2866
     44  CB       -83.4700   19.7240    7.2450 C.3    92  THR92       0.1770
     45  OG1      -84.7760   19.8780    7.8060 O.3    92  THR92      -0.2211
     46  CG2      -82.4640   19.4220    8.3570 C.3    92  THR92       0.0375
     47  N        -80.1310   10.4510   -0.2650 N.3   112  VAL112     -0.1245
     48  CA       -81.0010   11.3080    0.5220 C.3   112  VAL112      0.1561
     49  C        -81.0620   12.7470   -0.0360 C.2   112  VAL112      0.2260
     50  O        -80.0390   13.4440   -0.1090 O.2   112  VAL112     -0.2867
     51  CB       -80.4650   11.3830    1.9590 C.3   112  VAL112      0.0252
     52  CG1      -81.2840   12.3650    2.8020 C.3   112  VAL112      0.0019
     53  CG2      -80.4150    9.9840    2.5700 C.3   112  VAL112      0.0019
     54  N        -82.8800   15.8590    1.4420 N.3   114  ASP114     -0.1239
     55  CA       -83.7190   16.5080    2.4520 C.3   114  ASP114      0.1674
     56  C        -83.6620   18.0470    2.3850 C.2   114  ASP114      0.2266
     57  O        -82.7040   18.6680    2.8470 O.2   114  ASP114     -0.2867
     58  CB       -83.2630   16.0540    3.8310 C.3   114  ASP114      0.1410
     59  CG       -84.2450   16.4200    4.9110 C.2   114  ASP114      0.3668
     60  OD1      -85.3900   16.7830    4.5660 O.co2 114  ASP114     -0.2456
     61  OD2      -83.8730   16.3490    6.1040 O.co2 114  ASP114     -0.2456
     62  N        -84.6640    8.5830    0.0280 N.3   135  VAL135     -0.1245
     63  CA       -85.4880    9.5470    0.7420 C.3   135  VAL135      0.1561
     64  C        -85.6220   10.8910    0.0320 C.2   135  VAL135      0.2260
     65  O        -84.6250   11.5470   -0.2490 O.2   135  VAL135     -0.2867
     66  CB       -84.9060    9.8180    2.1600 C.3   135  VAL135      0.0252
     67  CG1      -85.6820   10.9250    2.8520 C.3   135  VAL135      0.0019
     68  CG2      -84.8870    8.5460    2.9830 C.3   135  VAL135      0.0019
     69  N        -87.4610   14.4330    0.8670 N.3   137  ASN137     -0.1240
     70  CA       -88.1890   15.2190    1.8580 C.3   137  ASN137      0.1653
     71  C        -88.1890   16.7000    1.5080 C.2   137  ASN137      0.2266
     72  O        -87.1610   17.3510    1.6200 O.2   137  ASN137     -0.2867
     73  CB       -87.5320   15.0160    3.2290 C.3   137  ASN137      0.1155
     74  CG       -88.3640   15.5780    4.3930 C.2   137  ASN137      0.2627
     75  OD1      -89.5870   15.6850    4.3120 O.2   137  ASN137     -0.2716
     76  ND2      -87.6900   15.9120    5.4920 N.am  137  ASN137     -0.0877
     77  N        -89.0340    6.7780    1.5270 N.3   160  GLU160     -0.1245
     78  CA       -89.8780    7.8310    2.1120 C.3   160  GLU160      0.1567
     79  C        -90.1280    8.9660    1.1260 C.2   160  GLU160      0.2260
     80  O        -89.1810    9.5420    0.5890 O.2   160  GLU160     -0.2867
     81  CB       -89.2170    8.4330    3.3530 C.3   160  GLU160      0.0388
     82  CG       -88.6790    7.3960    4.3340 C.3   160  GLU160      0.1160
     83  CD       -87.9070    8.0120    5.4940 C.2   160  GLU160      0.3649
     84  OE1      -87.7010    9.2570    5.4900 O.co2 160  GLU160     -0.2457
     85  OE2      -87.5120    7.2400    6.4070 O.co2 160  GLU160     -0.2457
@<TRIPOS>BOND
     1    47    48    1
     2    65    64    2
     3    25    26    1
     4    50    49    2
     5    49    48    1
     6    62    63    1
     7    64    63    1
     8    27    28    2
     9    27    26    1
    10    48    51    1
    11    80    79    2
    12    26    29    1
    13    63    66    1
    14    69    70    1
    15    79    78    1
    16    54    55    1
    17    71    72    2
    18    71    70    1
    19    77    78    1
    20    70    73    1
    21    51    53    1
    22    51    52    1
    23    78    81    1
    24    66    67    1
    25    66    68    1
    26    29    31    1
    27    29    30    1
    28    56    55    1
    29    56    57    2
    30    55    58    1
    31    32    33    1
    32    73    74    1
    33    81    82    1
    34    33    34    1
    35    33    36    1
    36    58    59    1
    37    34    35    2
    38    75    74    2
    39     1     2    1
    40    82    83    1
    41    74    76   am
    42    60    59   ar
    43    59    61   ar
    44    36    37    1
    45     2     3    1
    46     2     5    1
    47    84    83   ar
    48    83    85   ar
    49    40    41    1
    50     6     7    1
    51     6     5    1
    52     9     7   ar
    53    37    38    2
    54    37    39   am
    55     3     4    2
    56     7     8   ar
    57    41    44    1
    58    41    42    1
    59    44    45    1
    60    44    46    1
    61    42    43    2
    62    10    11    1
    63    11    12    1
    64    12    14   am
    65    12    13    2
    66    14    15    1
    67    15    16    1
    68    15    18    1
    69    16    17    2
    70    18    19    1
    71    19    20    1
    72    23    22    1
    73    22    21    2
    74    22    24    1
    75    20    21    1
