@<TRIPOS>MOLECULE
tmp/4z61A00.pdb
 230 220 0 0 0
SMALL
GASTEIGER

@<TRIPOS>ATOM
      1  N       -113.1650   11.3730   16.3070 N.3   284  ARG284     -0.1245
      2  CA      -113.9400   12.5210   16.8140 C.3   284  ARG284      0.1563
      3  C       -114.3930   13.5220   15.7570 C.2   284  ARG284      0.2260
      4  O       -113.7250   13.7060   14.7610 O.2   284  ARG284     -0.2867
      5  CB      -113.1730   13.2650   17.9070 C.3   284  ARG284      0.0307
      6  CG      -111.8500   13.8380   17.4510 C.3   284  ARG284      0.0489
      7  CD      -111.3910   14.9680   18.3610 C.3   284  ARG284      0.2205
      8  NE      -112.2700   16.1370   18.3070 N.pl3 284  ARG284     -0.0865
      9  CZ      -112.1350   17.1400   17.4410 C.cat 284  ARG284      0.5346
     10  NH1     -112.9800   18.1690   17.4650 N.pl3 284  ARG284      0.1354
     11  NH2     -111.1680   17.1060   16.5380 N.pl3 284  ARG284      0.1354
     12  N       -115.2660   11.5250   20.6850 N.3   308  ALA308     -0.1231
     13  CA      -115.9500   12.7700   21.0470 C.3   308  ALA308      0.1694
     14  C       -116.6120   13.4670   19.8590 C.2   308  ALA308      0.2592
     15  O       -116.1930   13.2950   18.7290 O.2   308  ALA308     -0.2718
     16  CB      -114.9880   13.7230   21.7490 C.3   308  ALA308      0.0304
     17  N       -117.6950   14.1880   20.1160 N.am  309  SER309     -0.1952
     18  CA      -118.3490   15.0100   19.1010 C.3   309  SER309      0.1924
     19  C       -118.8800   14.2170   17.9250 C.2   309  SER309      0.2314
     20  O       -118.6290   14.5620   16.7610 O.2   309  SER309     -0.2863
     21  CB      -117.4150   16.1060   18.5990 C.3   309  SER309      0.2116
     22  OG      -116.7810   16.7180   19.6990 O.3   309  SER309     -0.2180
     23  N       -111.6610    9.8560   25.3240 N.3   330  ASN330     -0.1240
     24  CA      -112.3480   11.1210   25.1220 C.3   330  ASN330      0.1653
     25  C       -113.7150   10.7740   24.5840 C.2   330  ASN330      0.2266
     26  O       -113.8560   10.3810   23.4320 O.2   330  ASN330     -0.2867
     27  CB      -111.5950   11.9930   24.1180 C.3   330  ASN330      0.1155
     28  CG      -112.1250   13.4030   24.0650 C.2   330  ASN330      0.2627
     29  OD1     -112.7550   13.8690   25.0010 O.2   330  ASN330     -0.2716
     30  ND2     -111.8670   14.0950   22.9730 N.am  330  ASN330     -0.0877
     31  N       -116.1840   13.1140   25.1230 N.3   332  ALA332     -0.1231
     32  CA      -116.8390   14.4200   25.1990 C.3   332  ALA332      0.1694
     33  C       -117.8780   14.6250   24.1000 C.2   332  ALA332      0.2591
     34  O       -117.8090   14.0120   23.0460 O.2   332  ALA332     -0.2718
     35  CB      -115.8080   15.5430   25.1840 C.3   332  ALA332      0.0304
     36  N       -118.8990   15.4140   24.3980 N.am  333  LYS333     -0.1980
     37  CA      -119.8900   15.7980   23.3900 C.3   333  LYS333      0.1596
     38  C       -120.6370   14.6430   22.7100 C.2   333  LYS333      0.2287
     39  O       -121.0760   14.7790   21.5730 O.2   333  LYS333     -0.2864
     40  CB      -119.2520   16.6720   22.3120 C.3   333  LYS333      0.0298
     41  CG      -118.9910   18.1250   22.7050 C.3   333  LYS333      0.0038
     42  CD      -118.9380   18.9470   21.4340 C.3   333  LYS333      0.0206
     43  CE      -118.2930   20.2920   21.6260 C.3   333  LYS333      0.1093
     44  NZ      -118.3670   21.0630   20.3480 N.3   333  LYS333     -0.1314
     45  N       -112.5580   11.7840   29.6420 N.3   354  SER354     -0.1217
     46  CA      -113.3820   12.9610   29.4720 C.3   354  SER354      0.1889
     47  C       -114.7980   12.6060   29.0690 C.2   354  SER354      0.2288
     48  O       -115.0150   11.9580   28.0550 O.2   354  SER354     -0.2866
     49  CB      -112.7890   13.9070   28.4460 C.3   354  SER354      0.2089
     50  OG      -113.6910   14.9720   28.2260 O.3   354  SER354     -0.2183
     51  N       -116.8530   15.3730   29.1730 N.3   356  SER356     -0.1217
     52  CA      -117.2870   16.7600   29.0510 C.3   356  SER356      0.1889
     53  C       -118.4730   16.9340   28.1030 C.2   356  SER356      0.2288
     54  O       -118.4780   16.4080   26.9900 O.2   356  SER356     -0.2866
     55  CB      -116.1150   17.6420   28.6100 C.3   356  SER356      0.2089
     56  OG      -116.5360   18.7680   27.8550 O.3   356  SER356     -0.2183
     57  N       -112.0940   14.8660   33.4140 N.3   380  VAL380     -0.1245
     58  CA      -112.8370   16.0170   32.9420 C.3   380  VAL380      0.1561
     59  C       -114.3080   15.6640   32.9470 C.2   380  VAL380      0.2260
     60  O       -114.7550   14.8250   32.1660 O.2   380  VAL380     -0.2867
     61  CB      -112.4650   16.3570   31.4970 C.3   380  VAL380      0.0252
     62  CG1     -113.1530   17.6470   31.0630 C.3   380  VAL380      0.0019
     63  CG2     -110.9520   16.4510   31.3450 C.3   380  VAL380      0.0019
     64  N       -116.6720   18.3290   32.9100 N.3   382  THR382     -0.1203
     65  CA      -117.2970   19.6080   32.5720 C.3   382  THR382      0.1994
     66  C       -118.6420   19.4860   31.8780 C.2   382  THR382      0.2617
     67  O       -118.8020   18.6670   30.9790 O.2   382  THR382     -0.2717
     68  CB      -116.3860   20.3990   31.6280 C.3   382  THR382      0.1784
     69  OG1     -115.2600   20.8830   32.3590 O.3   382  THR382     -0.2211
     70  CG2     -117.1030   21.5770   31.0220 C.3   382  THR382      0.0376
     71  N       -119.6020   20.3080   32.3040 N.am  383  LEU383     -0.1979
     72  CA      -120.8990   20.4410   31.6340 C.3   383  LEU383      0.1596
     73  C       -121.7710   19.1940   31.7270 C.2   383  LEU383      0.2287
     74  O       -122.4360   18.8100   30.7700 O.2   383  LEU383     -0.2864
     75  CB      -120.7240   20.8630   30.1710 C.3   383  LEU383      0.0297
     76  CG      -120.5110   22.3600   29.9400 C.3   383  LEU383      0.0022
     77  CD1     -119.8600   22.5970   28.5820 C.3   383  LEU383      0.0001
     78  CD2     -121.8350   23.0940   30.0310 C.3   383  LEU383      0.0001
     79  N       -111.2650   18.4960   36.4590 N.3   405  ILE405     -0.1245
     80  CA      -112.0220   19.6140   35.9450 C.3   405  ILE405      0.1561
     81  C       -113.4990   19.2370   35.9860 C.2   405  ILE405      0.2260
     82  O       -113.9490   18.3860   35.2320 O.2   405  ILE405     -0.2867
     83  CB      -111.5710   19.9310   34.5020 C.3   405  ILE405      0.0252
     84  CG1     -110.0880   20.3420   34.4970 C.3   405  ILE405      0.0019
     85  CG2     -112.4290   21.0230   33.8750 C.3   405  ILE405      0.0019
     86  CD1     -109.3850   20.2200   33.1470 C.3   405  ILE405      0.0001
     87  N       -116.6150   21.6570   35.7310 N.3   407  ALA407     -0.1231
     88  CA      -116.7920   23.0890   35.5840 C.3   407  ALA407      0.1694
     89  C       -118.1400   23.2680   34.9570 C.2   407  ALA407      0.2592
     90  O       -118.6500   22.3340   34.3700 O.2   407  ALA407     -0.2718
     91  CB      -115.6940   23.6610   34.6940 C.3   407  ALA407      0.0304
     92  N       -118.7290   24.4440   35.0980 N.am  408  SER408     -0.1952
     93  CA      -119.9960   24.7320   34.4220 C.3   408  SER408      0.1924
     94  C       -121.0690   23.6500   34.6300 C.2   408  SER408      0.2314
     95  O       -121.8240   23.3280   33.7160 O.2   408  SER408     -0.2863
     96  CB      -119.7470   24.9510   32.9240 C.3   408  SER408      0.2116
     97  OG      -120.8530   25.5670   32.3020 O.3   408  SER408     -0.2180
     98  N       -103.7900   20.5600   38.6740 N.3   427  LEU427     -0.1245
     99  CA      -104.7760   21.4100   38.0120 C.3   427  LEU427      0.1561
    100  C       -106.2140   21.1930   38.5070 C.2   427  LEU427      0.2260
    101  O       -106.7470   20.0860   38.3950 O.2   427  LEU427     -0.2867
    102  CB      -104.7210   21.1190   36.5110 C.3   427  LEU427      0.0270
    103  CG      -105.3230   22.1540   35.5580 C.3   427  LEU427      0.0019
    104  CD1     -104.6210   22.0560   34.2220 C.3   427  LEU427      0.0001
    105  CD2     -106.8420   21.9940   35.4000 C.3   427  LEU427      0.0001
    106  N       -110.2090   22.8020   38.2790 N.3   429  ASP429     -0.1239
    107  CA      -111.1900   23.7330   37.7270 C.3   429  ASP429      0.1674
    108  C       -112.6020   23.3830   38.2420 C.2   429  ASP429      0.2266
    109  O       -113.2240   22.4160   37.8000 O.2   429  ASP429     -0.2867
    110  CB      -111.1380   23.6160   36.1960 C.3   429  ASP429      0.1410
    111  CG      -112.0000   24.6600   35.4660 C.2   429  ASP429      0.3668
    112  OD1     -112.7950   25.3830   36.1110 O.co2 429  ASP429     -0.2456
    113  OD2     -111.8830   24.7410   34.2200 O.co2 429  ASP429     -0.2456
    114  N       -114.7760   26.0710   38.3320 N.3   431  SER431     -0.1202
    115  CA      -115.3780   27.3340   37.9270 C.3   431  SER431      0.2020
    116  C       -116.7620   27.1670   37.3090 C.2   431  SER431      0.2618
    117  O       -117.1500   26.0730   36.8650 O.2   431  SER431     -0.2717
    118  CB      -114.4310   28.1180   36.9840 C.3   431  SER431      0.2103
    119  OG      -114.3100   27.5270   35.6980 O.3   431  SER431     -0.2182
    120  N       -117.5170   28.2580   37.3190 N.am  432  TRP432     -0.1975
    121  CA      -118.8960   28.2530   36.8290 C.3   432  TRP432      0.1640
    122  C       -119.8080   27.2430   37.5410 C.2   432  TRP432      0.2290
    123  O       -120.4850   26.4400   36.8990 O.2   432  TRP432     -0.2864
    124  CB      -118.9600   28.0150   35.3120 C.3   432  TRP432      0.0576
    125  CG      -118.3990   29.1050   34.4520 C.ar  432  TRP432      0.0006
    126  CD1     -117.2550   29.8100   34.6620 C.ar  432  TRP432      0.0946
    127  CD2     -118.9580   29.6030   33.2330 C.ar  432  TRP432      0.0152
    128  NE1     -117.0610   30.7110   33.6510 N.ar  432  TRP432     -0.2442
    129  CE2     -118.0950   30.6050   32.7580 C.ar  432  TRP432      0.0810
    130  CE3     -120.1010   29.2940   32.4930 C.ar  432  TRP432      0.0012
    131  CZ2     -118.3410   31.3040   31.5750 C.ar  432  TRP432      0.0191
    132  CZ3     -120.3450   30.0010   31.3160 C.ar  432  TRP432      0.0001
    133  CH2     -119.4720   30.9880   30.8770 C.ar  432  TRP432      0.0015
    134  N       -102.4340   25.4900   38.8920 N.3   451  TYR451     -0.1241
    135  CA      -103.5850   26.1010   38.2300 C.3   451  TYR451      0.1605
    136  C       -104.8510   25.8970   39.0590 C.2   451  TYR451      0.2264
    137  O       -105.3330   24.7680   39.2090 O.2   451  TYR451     -0.2867
    138  CB      -103.7520   25.4740   36.8520 C.3   451  TYR451      0.0534
    139  CG      -104.8440   26.0460   35.9760 C.ar  451  TYR451     -0.0201
    140  CD1     -106.1770   25.7260   36.1870 C.ar  451  TYR451     -0.0009
    141  CD2     -104.5360   26.8700   34.8990 C.ar  451  TYR451     -0.0009
    142  CE1     -107.1700   26.2230   35.3650 C.ar  451  TYR451      0.0417
    143  CE2     -105.5250   27.3730   34.0720 C.ar  451  TYR451      0.0417
    144  CZ      -106.8370   27.0350   34.3100 C.ar  451  TYR451      0.1957
    145  OH      -107.8240   27.5260   33.5050 O.3   451  TYR451     -0.2866
    146  N       -108.7730   27.2610   39.3740 N.3   453  ASP453     -0.1239
    147  CA      -109.9090   28.0630   38.9260 C.3   453  ASP453      0.1674
    148  C       -111.1580   27.8260   39.8040 C.2   453  ASP453      0.2266
    149  O       -111.8500   26.8150   39.6940 O.2   453  ASP453     -0.2867
    150  CB      -110.2040   27.7700   37.4390 C.3   453  ASP453      0.1410
    151  CG      -110.9320   28.9260   36.7330 C.2   453  ASP453      0.3668
    152  OD1     -111.3580   29.8700   37.4390 O.co2 453  ASP453     -0.2456
    153  OD2     -111.0850   28.8910   35.4810 O.co2 453  ASP453     -0.2456
    154  N       -104.0690   14.2280   25.2300 N.3   479  PHE479     -0.1228
    155  CA      -105.4020   14.5080   25.6970 C.3   479  PHE479      0.1721
    156  C       -105.6440   16.0140   25.6160 C.2   479  PHE479      0.2437
    157  O       -105.5980   16.7000   26.6380 O.2   479  PHE479     -0.2733
    158  CB      -105.4910   14.0370   27.1510 C.3   479  PHE479      0.0547
    159  CG      -106.8520   13.6180   27.5620 C.ar  479  PHE479     -0.0202
    160  CD1     -107.3900   12.4320   27.0940 C.ar  479  PHE479     -0.0042
    161  CD2     -107.5940   14.4000   28.4150 C.ar  479  PHE479     -0.0042
    162  CE1     -108.6570   12.0380   27.4560 C.ar  479  PHE479     -0.0003
    163  CE2     -108.8660   14.0090   28.7900 C.ar  479  PHE479     -0.0003
    164  CZ      -109.3970   12.8230   28.3140 C.ar  479  PHE479     -0.0000
    165  N       -105.8930   16.5400   24.4060 N.am  480  PRO480     -0.2718
    166  CA      -106.0510   17.9900   24.2640 C.3   480  PRO480      0.1535
    167  C       -107.1650   18.5690   25.1360 C.2   480  PRO480      0.2599
    168  O       -108.2100   17.9390   25.3060 O.2   480  PRO480     -0.2715
    169  CB      -106.3690   18.1700   22.7680 C.3   480  PRO480      0.0310
    170  CG      -106.8270   16.8570   22.2960 C.3   480  PRO480      0.0237
    171  CD      -106.0990   15.8380   23.1250 C.3   480  PRO480      0.0939
    172  N       -106.9200   19.7480   25.7050 N.am  481  PHE481     -0.1960
    173  CA      -107.9400   20.4860   26.4460 C.3   481  PHE481      0.1771
    174  C       -108.2110   21.7670   25.7030 C.2   481  PHE481      0.2620
    175  O       -107.3280   22.3130   25.0660 O.2   481  PHE481     -0.2715
    176  CB      -107.4570   20.8730   27.8410 C.3   481  PHE481      0.0574
    177  CG      -107.0090   19.7150   28.6980 C.ar  481  PHE481     -0.0200
    178  CD1     -107.9300   18.8920   29.3150 C.ar  481  PHE481     -0.0042
    179  CD2     -105.6550   19.4880   28.9240 C.ar  481  PHE481     -0.0042
    180  CE1     -107.5120   17.8470   30.1220 C.ar  481  PHE481     -0.0003
    181  CE2     -105.2340   18.4450   29.7310 C.ar  481  PHE481     -0.0003
    182  CZ      -106.1650   17.6250   30.3310 C.ar  481  PHE481     -0.0000
    183  N       -109.4270   22.2680   25.8040 N.am  482  PHE482     -0.1960
    184  CA      -109.7650   23.5340   25.1800 C.3   482  PHE482      0.1771
    185  C       -110.2610   24.4920   26.2270 C.2   482  PHE482      0.2619
    186  O       -110.9940   24.1030   27.1130 O.2   482  PHE482     -0.2715
    187  CB      -110.8300   23.3390   24.1200 C.3   482  PHE482      0.0574
    188  CG      -110.3220   22.6850   22.9050 C.ar  482  PHE482     -0.0200
    189  CD1     -110.1640   21.3150   22.8600 C.ar  482  PHE482     -0.0042
    190  CD2     -109.9560   23.4440   21.8010 C.ar  482  PHE482     -0.0042
    191  CE1     -109.6750   20.7120   21.7280 C.ar  482  PHE482     -0.0003
    192  CE2     -109.4610   22.8360   20.6620 C.ar  482  PHE482     -0.0003
    193  CZ      -109.3190   21.4730   20.6330 C.ar  482  PHE482     -0.0000
    194  N       -109.8620   25.7500   26.1240 N.am  483  LYS483     -0.1963
    195  CA      -110.2800   26.7200   27.1160 C.3   483  LYS483      0.1728
    196  C       -111.2570   27.7090   26.5160 C.2   483  LYS483      0.2616
    197  O       -110.9470   28.3980   25.5420 O.2   483  LYS483     -0.2715
    198  CB      -109.0810   27.4460   27.7280 C.3   483  LYS483      0.0311
    199  CG      -109.3310   27.9760   29.1210 C.3   483  LYS483      0.0038
    200  CD      -108.1650   28.8090   29.6240 C.3   483  LYS483      0.0206
    201  CE      -108.5190   29.4220   30.9780 C.3   483  LYS483      0.1093
    202  NZ      -107.3410   30.0010   31.7070 N.3   483  LYS483     -0.1314
    203  N       -112.4500   27.7210   27.1090 N.am  484  LYS484     -0.1977
    204  CA      -113.4980   28.7100   26.8730 C.3   484  LYS484      0.1596
    205  C       -112.9390   30.1340   27.0440 C.2   484  LYS484      0.2287
    206  O       -112.3800   30.7320   26.1130 O.2   484  LYS484     -0.2864
    207  CB      -114.6480   28.4630   27.8750 C.3   484  LYS484      0.0298
    208  CG      -116.0630   28.8710   27.4090 C.3   484  LYS484      0.0038
    209  CD      -116.7010   27.8340   26.4720 C.3   484  LYS484      0.0206
    210  CE      -117.9290   28.4030   25.7330 C.3   484  LYS484      0.1093
    211  NZ      -118.4590   27.5410   24.6050 N.3   484  LYS484     -0.1314
    212  N       -112.7180   31.8950   19.6100 N.3   485  GLY485     -0.1210
    213  CA      -112.9610   30.4740   19.7880 C.3   485  GLY485      0.1956
    214  C       -111.9970   29.8600   20.7940 C.2   485  GLY485      0.2612
    215  O       -110.9380   30.4310   21.0860 O.2   485  GLY485     -0.2717
    216  N       -112.3710   28.6930   21.3200 N.am  486  GLY486     -0.1956
    217  CA      -111.5650   27.9940   22.2940 C.3   486  GLY486      0.1869
    218  C       -110.1750   27.7120   21.7670 C.2   486  GLY486      0.2309
    219  O       -110.0050   27.2910   20.6280 O.2   486  GLY486     -0.2863
    220  N       -100.9580   25.3350   30.2750 N.3   495  PHE495     -0.1241
    221  CA      -101.7310   26.4040   30.9000 C.3   495  PHE495      0.1605
    222  C       -100.8100   27.2660   31.7300 C.2   495  PHE495      0.2264
    223  O       -100.0330   26.7430   32.5320 O.2   495  PHE495     -0.2867
    224  CB      -102.8230   25.8470   31.8180 C.3   495  PHE495      0.0534
    225  CG      -103.8660   25.0500   31.1100 C.ar  495  PHE495     -0.0203
    226  CD1     -104.9230   25.6830   30.4760 C.ar  495  PHE495     -0.0042
    227  CD2     -103.8040   23.6680   31.0990 C.ar  495  PHE495     -0.0042
    228  CE1     -105.8990   24.9570   29.8360 C.ar  495  PHE495     -0.0003
    229  CE2     -104.7690   22.9330   30.4580 C.ar  495  PHE495     -0.0003
    230  CZ      -105.8290   23.5760   29.8270 C.ar  495  PHE495     -0.0000
@<TRIPOS>BOND
     1     4     3    2
     2     3     2    1
     3     1     2    1
     4    11     9    1
     5    20    19    2
     6     2     5    1
     7     9    10    1
     8     9     8    2
     9     6     5    1
    10     6     7    1
    11    19    18    1
    12     8     7    1
    13    21    18    1
    14    21    22    1
    15    15    14    2
    16    18    17    1
    17   212   213    1
    18   213   214    1
    19    14    17   am
    20    14    13    1
    21    44    43    1
    22   219   218    2
    23   193   192   ar
    24   193   191   ar
    25   192   190   ar
    26    12    13    1
    27   214   215    2
    28   214   216   am
    29    13    16    1
    30   216   217    1
    31    42    43    1
    32    42    41    1
    33    39    38    2
    34   191   189   ar
    35   218   217    1
    36   190   188   ar
    37   170   169    1
    38   170   171    1
    39    40    41    1
    40    40    37    1
    41    38    37    1
    42   169   166    1
    43   189   188   ar
    44   188   187    1
    45    30    28   am
    46    34    33    2
    47   171   165    1
    48    37    36    1
    49    26    25    2
    50    28    27    1
    51    28    29    2
    52    33    36   am
    53    33    32    1
    54    27    24    1
    55   187   184    1
    56   166   165    1
    57   166   167    1
    58   165   156   am
    59    25    24    1
    60   211   210    1
    61   175   174    2
    62    24    23    1
    63    31    32    1
    64   167   168    2
    65   167   172   am
    66   184   183    1
    67   184   185    1
    68    35    32    1
    69   154   155    1
    70   197   196    2
    71   156   155    1
    72   156   157    2
    73   155   158    1
    74   174   183   am
    75   174   173    1
    76   172   173    1
    77   210   209    1
    78   206   205    2
    79   194   185   am
    80   194   195    1
    81   185   186    2
    82   173   176    1
    83   209   208    1
    84   196   203   am
    85   196   195    1
    86   204   205    1
    87   204   203    1
    88   204   207    1
    89    54    53    2
    90   160   162   ar
    91   160   159   ar
    92   195   198    1
    93   158   159    1
    94   208   207    1
    95   162   164   ar
    96   159   161   ar
    97   198   199    1
    98   176   177    1
    99    56    55    1
   100    48    47    2
   101    53    52    1
   102    50    49    1
   103   164   163   ar
   104   161   163   ar
   105    49    46    1
   106    77    76    1
   107    55    52    1
   108   177   179   ar
   109   177   178   ar
   110   179   181   ar
   111    52    51    1
   112    47    46    1
   113   199   200    1
   114   178   180   ar
   115    46    45    1
   116   200   201    1
   117   181   182   ar
   118   230   228   ar
   119   230   229   ar
   120   228   226   ar
   121    76    78    1
   122    76    75    1
   123   180   182   ar
   124    75    72    1
   125   220   221    1
   126   229   227   ar
   127   226   225   ar
   128    74    73    2
   129   133   132   ar
   130   133   131   ar
   131   221   222    1
   132   221   224    1
   133   201   202    1
   134    67    66    2
   135    70    68    1
   136    62    61    1
   137   227   225   ar
   138   225   224    1
   139   132   130   ar
   140    63    61    1
   141    61    58    1
   142   131   129   ar
   143    68    69    1
   144    68    65    1
   145    72    73    1
   146    72    71    1
   147   222   223    2
   148    66    71   am
   149    66    65    1
   150    60    59    2
   151    97    96    1
   152   130   127   ar
   153    65    64    1
   154   129   127   ar
   155   129   128   ar
   156    96    93    1
   157    58    59    1
   158    58    57    1
   159    86    84    1
   160   127   125   ar
   161   145   144    1
   162   128   126   ar
   163    95    94    2
   164    85    83    1
   165   143   144   ar
   166   143   141   ar
   167   113   111   ar
   168   104   103    1
   169   144   142   ar
   170    90    89    2
   171    93    94    1
   172    93    92    1
   173   125   126   ar
   174   125   124    1
   175    84    83    1
   176    83    80    1
   177    91    88    1
   178   141   139   ar
   179    89    92   am
   180    89    88    1
   181    82    81    2
   182   124   121    1
   183   142   140   ar
   184   105   103    1
   185   111   112   ar
   186   111   110    1
   187   153   151   ar
   188   103   102    1
   189    88    87    1
   190   119   118    1
   191    80    81    1
   192    80    79    1
   193   139   140   ar
   194   139   138    1
   195   110   107    1
   196   102    99    1
   197   151   150    1
   198   151   152   ar
   199   121   120    1
   200   121   122    1
   201   138   135    1
   202   117   116    2
   203   123   122    2
   204   118   115    1
   205   116   120   am
   206   116   115    1
   207   150   147    1
   208   107   108    1
   209   107   106    1
   210   109   108    2
   211   115   114    1
   212    99   100    1
   213    99    98    1
   214   135   134    1
   215   135   136    1
   216   101   100    2
   217   147   146    1
   218   147   148    1
   219   136   137    2
   220   149   148    2
