@<TRIPOS>MOLECULE
tmp/4z63A04.pdb
 90 82 0 0 0
SMALL
GASTEIGER

@<TRIPOS>ATOM
      1  N        -17.7830   56.6150  -11.2450 N.3    53  GLU53      -0.1245
      2  CA       -17.6990   56.3510   -9.8020 C.3    53  GLU53       0.1567
      3  C        -18.5210   57.3630   -9.0300 C.2    53  GLU53       0.2260
      4  O        -18.0650   58.4550   -8.7470 O.2    53  GLU53      -0.2867
      5  CB       -16.2390   56.4400   -9.3390 C.3    53  GLU53       0.0388
      6  CG       -15.2550   55.5730  -10.1600 C.3    53  GLU53       0.1160
      7  CD       -13.7810   55.8120   -9.8100 C.2    53  GLU53       0.3649
      8  OE1      -13.1280   56.6560  -10.4670 O.co2  53  GLU53      -0.2457
      9  OE2      -13.2640   55.1520   -8.8810 O.co2  53  GLU53      -0.2457
     10  N        -20.2100   56.5090   -5.9770 N.3    55  GLY55      -0.1210
     11  CA       -20.4300   56.0490   -4.6240 C.3    55  GLY55       0.1956
     12  C        -20.7590   57.1350   -3.6160 C.2    55  GLY55       0.2611
     13  O        -20.2170   58.2380   -3.6740 O.2    55  GLY55      -0.2717
     14  N        -21.6730   56.8110   -2.6980 N.am   56  ASN56      -0.1974
     15  CA       -21.9930   57.6670   -1.5560 C.3    56  ASN56       0.1688
     16  C        -22.4340   59.0620   -1.9910 C.2    56  ASN56       0.2292
     17  O        -22.0040   60.0670   -1.4470 O.2    56  ASN56      -0.2864
     18  CB       -20.8030   57.7290   -0.5940 C.3    56  ASN56       0.1181
     19  CG       -21.1810   58.2460    0.7870 C.2    56  ASN56       0.2629
     20  OD1      -22.3110   58.0770    1.2460 O.2    56  ASN56      -0.2716
     21  ND2      -20.2310   58.8860    1.4510 N.am   56  ASN56      -0.0877
     22  N        -14.6420   50.5460  -14.9130 N.3    75  VAL75      -0.1245
     23  CA       -15.0000   50.6310  -13.4980 C.3    75  VAL75       0.1561
     24  C        -16.3820   51.2570  -13.3260 C.2    75  VAL75       0.2260
     25  O        -16.5870   52.4020  -13.7170 O.2    75  VAL75      -0.2867
     26  CB       -13.9880   51.4960  -12.6960 C.3    75  VAL75       0.0252
     27  CG1      -14.4090   51.6340  -11.2250 C.3    75  VAL75       0.0019
     28  CG2      -12.5650   50.9650  -12.8180 C.3    75  VAL75       0.0019
     29  N        -18.8660   52.1250  -10.1830 N.3    77  ASN77      -0.1240
     30  CA       -19.0440   52.1800   -8.7340 C.3    77  ASN77       0.1653
     31  C        -20.2360   53.0500   -8.3490 C.2    77  ASN77       0.2266
     32  O        -20.1940   54.2810   -8.4380 O.2    77  ASN77      -0.2867
     33  CB       -17.7590   52.7190   -8.0970 C.3    77  ASN77       0.1155
     34  CG       -17.7380   52.5840   -6.5720 C.2    77  ASN77       0.2627
     35  OD1      -18.7760   52.5900   -5.9170 O.2    77  ASN77      -0.2716
     36  ND2      -16.5240   52.4870   -6.0120 N.am   77  ASN77      -0.0877
     37  N        -21.7900   52.2260   -5.2240 N.3    79  SER79      -0.1202
     38  CA       -22.0240   51.7900   -3.8540 C.3    79  SER79       0.2020
     39  C        -22.4880   52.9180   -2.9190 C.2    79  SER79       0.2618
     40  O        -22.2760   54.1030   -3.1980 O.2    79  SER79      -0.2717
     41  CB       -20.7500   51.1810   -3.2940 C.3    79  SER79       0.2103
     42  OG       -19.7690   52.1880   -3.1460 O.3    79  SER79      -0.2182
     43  N        -23.1430   52.5280   -1.8240 N.am   80  ARG80      -0.1979
     44  CA       -23.6440   53.4570   -0.7940 C.3    80  ARG80       0.1597
     45  C        -24.5890   54.5060   -1.3590 C.2    80  ARG80       0.2287
     46  O        -24.3760   55.7090   -1.2090 O.2    80  ARG80      -0.2864
     47  CB       -22.5150   54.1430    0.0030 C.3    80  ARG80       0.0334
     48  CG       -21.2000   53.3660    0.0810 C.3    80  ARG80       0.0492
     49  CD       -20.6440   53.2990    1.5050 C.3    80  ARG80       0.2205
     50  NE       -20.4280   54.6200    2.0960 N.pl3  80  ARG80      -0.0865
     51  CZ       -19.2340   55.2030    2.2590 C.cat  80  ARG80       0.5346
     52  NH1      -18.0990   54.5950    1.8840 N.pl3  80  ARG80       0.1354
     53  NH2      -19.1740   56.4100    2.8120 N.pl3  80  ARG80       0.1354
     54  N        -14.0940   46.2050  -12.7060 N.3    99  THR99      -0.1203
     55  CA       -14.5230   46.4170  -11.3340 C.3    99  THR99       0.1994
     56  C        -15.9880   46.8330  -11.2830 C.2    99  THR99       0.2618
     57  O        -16.3660   47.8710  -11.8440 O.2    99  THR99      -0.2717
     58  CB       -13.7130   47.5550  -10.7110 C.3    99  THR99       0.1784
     59  OG1      -12.3170   47.2550  -10.8160 O.3    99  THR99      -0.2211
     60  CG2      -14.1000   47.7670   -9.2490 C.3    99  THR99       0.0376
     61  N        -16.8180   46.0230  -10.6330 N.am  100  LEU100     -0.1965
     62  CA       -18.2270   46.3640  -10.4620 C.3   100  LEU100      0.1728
     63  C        -18.5750   46.4430   -8.9640 C.2   100  LEU100      0.2616
     64  O        -18.5700   45.4210   -8.2720 O.2   100  LEU100     -0.2715
     65  CB       -19.0980   45.3150  -11.1440 C.3   100  LEU100      0.0311
     66  CG       -20.6170   45.4400  -10.9900 C.3   100  LEU100      0.0022
     67  CD1      -21.1380   46.7170  -11.6260 C.3   100  LEU100      0.0001
     68  CD2      -21.3090   44.2370  -11.5970 C.3   100  LEU100      0.0001
     69  N        -18.8520   47.6440   -8.4540 N.am  101  ASP101     -0.1971
     70  CA       -19.2760   47.7600   -7.0630 C.3   101  ASP101      0.1709
     71  C        -20.6430   48.3980   -7.0280 C.2   101  ASP101      0.2293
     72  O        -20.7810   49.6050   -7.2270 O.2   101  ASP101     -0.2864
     73  CB       -18.2760   48.6110   -6.2790 C.3   101  ASP101      0.1436
     74  CG       -18.5150   48.5840   -4.7700 C.2   101  ASP101      0.3671
     75  OD1      -19.5800   48.1150   -4.3240 O.co2 101  ASP101     -0.2456
     76  OD2      -17.6280   49.0610   -4.0240 O.co2 101  ASP101     -0.2456
     77  N        -13.1910   42.2490   -9.8830 N.3   122  SER122     -0.1217
     78  CA       -13.9680   42.2530   -8.6520 C.3   122  SER122      0.1889
     79  C        -15.4480   42.5620   -8.8950 C.2   122  SER122      0.2288
     80  O        -15.7980   43.4630   -9.6560 O.2   122  SER122     -0.2866
     81  CB       -13.3800   43.2420   -7.6420 C.3   122  SER122      0.2089
     82  OG       -13.6330   44.5710   -8.0550 O.3   122  SER122     -0.2183
     83  N        -18.9560   43.1470   -6.6410 N.3   124  ASP124     -0.1239
     84  CA       -19.4810   43.4030   -5.3010 C.3   124  ASP124      0.1674
     85  C        -20.9240   43.8690   -5.3450 C.2   124  ASP124      0.2266
     86  O        -21.2190   45.0090   -5.7240 O.2   124  ASP124     -0.2867
     87  CB       -18.6180   44.4480   -4.5850 C.3   124  ASP124      0.1410
     88  CG       -18.9720   44.5930   -3.1020 C.2   124  ASP124      0.3668
     89  OD1      -20.0130   44.0500   -2.6820 O.co2 124  ASP124     -0.2456
     90  OD2      -18.2180   45.2590   -2.3520 O.co2 124  ASP124     -0.2456
@<TRIPOS>BOND
     1    22    23    1
     2    25    24    2
     3    23    24    1
     4    23    26    1
     5    28    26    1
     6    54    55    1
     7    26    27    1
     8    57    56    2
     9    67    66    1
    10    68    66    1
    11    55    56    1
    12    55    58    1
    13    56    61   am
    14     1     2    1
    15    65    66    1
    16    65    62    1
    17    59    58    1
    18    58    60    1
    19    61    62    1
    20     8     7   ar
    21    62    63    1
    22    29    30    1
    23     6     7    1
    24     6     5    1
    25    77    78    1
    26     7     9   ar
    27     2     5    1
    28     2     3    1
    29    80    79    2
    30     3     4    2
    31    63    69   am
    32    63    64    2
    33    79    78    1
    34    30    31    1
    35    30    33    1
    36    78    81    1
    37    69    70    1
    38    32    31    2
    39    33    34    1
    40    82    81    1
    41    72    71    2
    42    70    71    1
    43    70    73    1
    44    83    84    1
    45    34    36   am
    46    34    35    2
    47    73    74    1
    48    10    11    1
    49    86    85    2
    50    85    84    1
    51    84    87    1
    52    37    38    1
    53    74    75   ar
    54    74    76   ar
    55    11    12    1
    56    87    88    1
    57    38    41    1
    58    38    39    1
    59    13    12    2
    60    12    14   am
    61    41    42    1
    62    40    39    2
    63    88    89   ar
    64    88    90   ar
    65    39    43   am
    66    14    15    1
    67    16    15    1
    68    16    17    2
    69    43    44    1
    70    15    18    1
    71    45    46    2
    72    45    44    1
    73    44    47    1
    74    18    19    1
    75    47    48    1
    76    48    49    1
    77    19    20    2
    78    19    21   am
    79    49    50    1
    80    52    51    1
    81    50    51    2
    82    51    53    1
