@<TRIPOS>MOLECULE
tmp/4z63A02.pdb
 98 95 0 0 0
SMALL
GASTEIGER

@<TRIPOS>ATOM
      1  N        -20.5270   37.1890   42.4040 N.3   395  ASN395     -0.1240
      2  CA       -21.3210   35.9810   42.5670 C.3   395  ASN395      0.1653
      3  C        -20.4200   34.7800   42.8290 C.2   395  ASN395      0.2266
      4  O        -20.6430   33.6800   42.3130 O.2   395  ASN395     -0.2867
      5  CB       -22.2170   35.7530   41.3440 C.3   395  ASN395      0.1155
      6  CG       -23.3440   34.7770   41.6260 C.2   395  ASN395      0.2627
      7  OD1      -23.5100   34.3150   42.7550 O.2   395  ASN395     -0.2716
      8  ND2      -24.1310   34.4660   40.6010 N.am  395  ASN395     -0.0877
      9  N        -19.7980   34.2700   46.1170 N.3   397  ARG397     -0.1245
     10  CA       -20.1310   34.1240   47.5420 C.3   397  ARG397      0.1563
     11  C        -18.8910   34.2000   48.4260 C.2   397  ARG397      0.2260
     12  O        -18.7380   33.3960   49.3420 O.2   397  ARG397     -0.2867
     13  CB       -20.9360   32.8310   47.8180 C.3   397  ARG397      0.0307
     14  CG       -22.2950   32.7790   47.0730 C.3   397  ARG397      0.0489
     15  CD       -23.1630   31.5710   47.4460 C.3   397  ARG397      0.2205
     16  NE       -23.4360   31.4850   48.8860 N.pl3 397  ARG397     -0.0865
     17  CZ       -24.3500   32.2090   49.5300 C.cat 397  ARG397      0.5346
     18  NH1      -25.0960   33.0910   48.8780 N.pl3 397  ARG397      0.1354
     19  NH2      -24.5150   32.0550   50.8350 N.pl3 397  ARG397      0.1354
     20  N        -22.7800   40.3600   44.8640 N.3   419  TRP419     -0.1227
     21  CA       -23.2480   38.9940   45.0750 C.3   419  TRP419      0.1737
     22  C        -22.2180   38.1290   45.7630 C.2   419  TRP419      0.2595
     23  O        -22.1130   36.9390   45.4930 O.2   419  TRP419     -0.2718
     24  CB       -23.6810   38.3400   43.7730 C.3   419  TRP419      0.0564
     25  CG       -24.8900   38.9460   43.1800 C.ar  419  TRP419      0.0003
     26  CD1      -25.2090   40.2740   43.1290 C.ar  419  TRP419      0.0946
     27  CD2      -25.9630   38.2480   42.5470 C.ar  419  TRP419      0.0152
     28  NE1      -26.4110   40.4400   42.4990 N.ar  419  TRP419     -0.2442
     29  CE2      -26.8980   39.2140   42.1300 C.ar  419  TRP419      0.0810
     30  CE3      -26.2200   36.8990   42.2870 C.ar  419  TRP419      0.0012
     31  CZ2      -28.0740   38.8760   41.4640 C.ar  419  TRP419      0.0191
     32  CZ3      -27.3910   36.5650   41.6190 C.ar  419  TRP419      0.0001
     33  CH2      -28.3030   37.5500   41.2190 C.ar  419  TRP419      0.0015
     34  N        -21.4440   38.7470   46.6370 N.am  420  ASN420     -0.1960
     35  CA       -20.6170   38.0080   47.5660 C.3   420  ASN420      0.1819
     36  C        -21.1870   38.0460   48.9890 C.2   420  ASN420      0.2621
     37  O        -22.3040   38.5180   49.2150 O.2   420  ASN420     -0.2715
     38  CB       -19.1780   38.5180   47.5370 C.3   420  ASN420      0.1195
     39  CG       -18.5050   38.2390   46.2240 C.2   420  ASN420      0.2630
     40  OD1      -18.2250   37.0850   45.8970 O.2   420  ASN420     -0.2716
     41  ND2      -18.2510   39.2910   45.4470 N.am  420  ASN420     -0.0877
     42  N        -20.4350   37.4620   49.9150 N.am  421  ARG421     -0.1977
     43  CA       -20.7250   37.4750   51.3510 C.3   421  ARG421      0.1597
     44  C        -19.9080   38.5130   52.1240 C.2   421  ARG421      0.2287
     45  O        -19.6610   38.3360   53.3000 O.2   421  ARG421     -0.2864
     46  CB       -20.6300   36.0790   51.9800 C.3   421  ARG421      0.0334
     47  CG       -21.5880   35.0310   51.3980 C.3   421  ARG421      0.0492
     48  CD       -22.9880   35.5780   51.1050 C.3   421  ARG421      0.2205
     49  NE       -23.5330   36.3850   52.1980 N.pl3 421  ARG421     -0.0865
     50  CZ       -24.6640   37.0910   52.1330 C.cat 421  ARG421      0.5346
     51  NH1      -25.3970   37.0920   51.0270 N.pl3 421  ARG421      0.1354
     52  NH2      -25.0680   37.7950   53.1850 N.pl3 421  ARG421      0.1354
     53  N        -25.7060   43.4920   47.0850 N.3   443  ASN443     -0.1240
     54  CA       -25.9500   42.1140   47.4920 C.3   443  ASN443      0.1653
     55  C        -24.7660   41.5330   48.2660 C.2   443  ASN443      0.2266
     56  O        -24.2690   40.4460   47.9690 O.2   443  ASN443     -0.2867
     57  CB       -26.3060   41.2540   46.2810 C.3   443  ASN443      0.1155
     58  CG       -26.8530   39.8930   46.6670 C.2   443  ASN443      0.2627
     59  OD1      -27.1450   39.6280   47.8410 O.2   443  ASN443     -0.2716
     60  ND2      -27.0010   39.0240   45.6720 N.am  443  ASN443     -0.0877
     61  N        -29.4510   41.4440   36.2220 N.3   480  ARG480     -0.1231
     62  CA       -30.1390   42.0590   37.3590 C.3   480  ARG480      0.1694
     63  C        -30.4060   41.0550   38.5000 C.2   480  ARG480      0.2592
     64  O        -30.0160   41.2910   39.6370 O.2   480  ARG480     -0.2718
     65  CB       -31.4440   42.7110   36.8890 C.3   480  ARG480      0.0321
     66  CG       -31.8510   43.9640   37.6410 C.3   480  ARG480      0.0489
     67  CD       -33.2870   44.3530   37.3180 C.3   480  ARG480      0.2205
     68  NE       -33.6740   45.6420   37.8990 N.pl3 480  ARG480     -0.0865
     69  CZ       -34.0840   45.8200   39.1550 C.cat 480  ARG480      0.5346
     70  NH1      -34.4100   47.0380   39.5810 N.pl3 480  ARG480      0.1354
     71  NH2      -34.1600   44.7850   39.9870 N.pl3 480  ARG480      0.1354
     72  N        -31.0760   39.9470   38.1910 N.am  481  ASN481     -0.1960
     73  CA       -31.2540   38.8440   39.1480 C.3   481  ASN481      0.1819
     74  C        -30.9680   37.4940   38.4840 C.2   481  ASN481      0.2621
     75  O        -30.5600   37.4620   37.3240 O.2   481  ASN481     -0.2715
     76  CB       -32.6340   38.8740   39.8630 C.3   481  ASN481      0.1195
     77  CG       -33.8250   38.6250   38.9230 C.2   481  ASN481      0.2630
     78  OD1      -33.7250   37.9100   37.9190 O.2   481  ASN481     -0.2716
     79  ND2      -34.9720   39.2080   39.2720 N.am  481  ASN481     -0.0877
     80  N        -31.1790   36.4130   39.1770 N.am  482  GLU482     -0.1977
     81  CA       -30.8490   35.1370   38.6420 C.3   482  GLU482      0.1602
     82  C        -31.7760   34.7480   37.4520 C.2   482  GLU482      0.2287
     83  O        -31.4260   33.9780   36.6350 O.2   482  GLU482     -0.2864
     84  CB       -30.8110   34.1530   39.8230 C.3   482  GLU482      0.0415
     85  CG       -30.4560   32.7160   39.5200 C.3   482  GLU482      0.1163
     86  CD       -31.6450   31.9410   39.0490 C.2   482  GLU482      0.3649
     87  OE1      -32.7850   32.3670   39.3130 O.co2 482  GLU482     -0.2457
     88  OE2      -31.4300   30.9450   38.3650 O.co2 482  GLU482     -0.2457
     89  N        -29.1750   46.1210   48.5510 N.3   503  HIS503     -0.1241
     90  CA       -29.1420   44.8650   49.2990 C.3   503  HIS503      0.1621
     91  C        -27.9000   44.7050   50.1470 C.2   503  HIS503      0.2264
     92  O        -27.1620   43.7450   49.9980 O.2   503  HIS503     -0.2867
     93  CB       -29.2830   43.6710   48.3760 C.3   503  HIS503      0.0745
     94  CG       -30.5900   43.6220   47.6590 C.ar  503  HIS503      0.0817
     95  ND1      -31.6380   42.8380   48.0840 N.ar  503  HIS503     -0.2268
     96  CD2      -31.0200   44.2600   46.5440 C.ar  503  HIS503      0.1154
     97  CE1      -32.6600   42.9900   47.2600 C.ar  503  HIS503      0.1986
     98  NE2      -32.3110   43.8480   46.3170 N.ar  503  HIS503     -0.2212
@<TRIPOS>BOND
     1    61    62    1
     2    83    82    2
     3    65    62    1
     4    65    66    1
     5    67    66    1
     6    67    68    1
     7    75    74    2
     8    62    63    1
     9    82    81    1
    10    68    69    2
    11    78    77    2
    12    72    63   am
    13    72    73    1
    14    88    86   ar
    15    74    73    1
    16    74    80   am
    17    63    64    2
    18    81    80    1
    19    81    84    1
    20    77    79   am
    21    77    76    1
    22    86    87   ar
    23    86    85    1
    24    73    76    1
    25    69    70    1
    26    69    71    1
    27    85    84    1
    28     8     6   am
    29    33    31   ar
    30    33    32   ar
    31     5     6    1
    32     5     2    1
    33    31    29   ar
    34    32    30   ar
    35     6     7    2
    36    29    28   ar
    37    29    27   ar
    38    30    27   ar
    39     4     3    2
    40     1     2    1
    41    28    26   ar
    42    27    25   ar
    43     2     3    1
    44    26    25   ar
    45    25    24    1
    46    24    21    1
    47    20    21    1
    48    21    22    1
    49    41    39   am
    50    23    22    2
    51    60    58   am
    52    22    34   am
    53    40    39    2
    54     9    10    1
    55    39    38    1
    56    57    58    1
    57    57    54    1
    58    98    96   ar
    59    98    97   ar
    60    96    94   ar
    61    34    35    1
    62    58    59    2
    63    14    15    1
    64    14    13    1
    65    53    54    1
    66    97    95   ar
    67    15    16    1
    68    54    55    1
    69    38    35    1
    70    10    13    1
    71    10    11    1
    72    35    36    1
    73    94    95   ar
    74    94    93    1
    75    56    55    2
    76    93    90    1
    77    11    12    2
    78    89    90    1
    79    18    17    1
    80    16    17    2
    81    36    37    2
    82    36    42   am
    83    90    91    1
    84    17    19    1
    85    42    43    1
    86    92    91    2
    87    51    50    1
    88    48    47    1
    89    48    49    1
    90    43    46    1
    91    43    44    1
    92    47    46    1
    93    44    45    2
    94    50    49    2
    95    50    52    1
