@<TRIPOS>MOLECULE
tmp/4z65A00.pdb
 163 154 0 0 0
SMALL
GASTEIGER

@<TRIPOS>ATOM
      1  N         29.0010  -19.3170    8.0320 N.3    64  HIS64      -0.1241
      2  CA        30.0020  -18.6520    8.8720 C.3    64  HIS64       0.1621
      3  C         29.4060  -17.4310    9.5060 C.2    64  HIS64       0.2264
      4  O         28.8480  -16.5660    8.8090 O.2    64  HIS64      -0.2867
      5  CB        31.2110  -18.3050    8.0030 C.3    64  HIS64       0.0745
      6  CG        32.0290  -19.5160    7.6210 C.ar   64  HIS64       0.0817
      7  ND1       32.6040  -19.6750    6.3970 N.ar   64  HIS64      -0.2268
      8  CD2       32.3370  -20.6550    8.3520 C.ar   64  HIS64       0.1154
      9  CE1       33.2550  -20.8530    6.3690 C.ar   64  HIS64       0.1986
     10  NE2       33.0840  -21.4550    7.5600 N.ar   64  HIS64      -0.2212
     11  N         29.8710  -13.6150    8.4450 N.3    67  GLU67      -0.1245
     12  CA        29.6780  -13.2430    7.0370 C.3    67  GLU67       0.1567
     13  C         28.2600  -12.7180    6.8040 C.2    67  GLU67       0.2260
     14  O         27.4750  -13.3030    6.0700 O.2    67  GLU67      -0.2867
     15  CB        30.0400  -14.4290    6.1270 C.3    67  GLU67       0.0388
     16  CG        31.5490  -14.6950    6.1520 C.3    67  GLU67       0.1160
     17  CD        31.9550  -16.0990    5.7440 C.2    67  GLU67       0.3649
     18  OE1       33.0010  -16.5950    6.2330 O.co2  67  GLU67      -0.2457
     19  OE2       31.2590  -16.7450    4.9070 O.co2  67  GLU67      -0.2457
     20  N         33.2630  -17.0840   13.8350 N.3   122  ARG122     -0.1245
     21  CA        33.1310  -17.8350   12.5700 C.3   122  ARG122      0.1563
     22  C         32.3710  -19.1700   12.7390 C.2   122  ARG122      0.2260
     23  O         31.4520  -19.4910   11.9570 O.2   122  ARG122     -0.2867
     24  CB        34.5300  -18.1400   12.0310 C.3   122  ARG122      0.0307
     25  CG        34.5790  -19.0670   10.8200 C.3   122  ARG122      0.0489
     26  CD        36.0290  -19.3550   10.4620 C.3   122  ARG122      0.2205
     27  NE        36.2290  -20.3610    9.4090 N.pl3 122  ARG122     -0.0865
     28  CZ        36.1500  -20.1060    8.1030 C.cat 122  ARG122      0.5346
     29  NH1       35.7950  -18.8940    7.6620 N.pl3 122  ARG122      0.1354
     30  NH2       36.4200  -21.0660    7.2300 N.pl3 122  ARG122      0.1354
     31  N         32.0900  -25.5240    7.5680 N.3   139  ASN139     -0.1225
     32  CA        32.5710  -25.8030    6.2220 C.3   139  ASN139      0.1785
     33  C         33.8810  -26.5800    6.1960 C.2   139  ASN139      0.2597
     34  O         34.5560  -26.6280    5.1620 O.2   139  ASN139     -0.2718
     35  CB        32.6380  -24.5670    5.3300 C.3   139  ASN139      0.1169
     36  CG        32.3270  -24.9190    3.8950 C.2   139  ASN139      0.2627
     37  OD1       31.5150  -25.8220    3.6420 O.2   139  ASN139     -0.2716
     38  ND2       32.9300  -24.2090    2.9440 N.am  139  ASN139     -0.0877
     39  N         34.2170  -27.1980    7.3300 N.am  140  ARG140     -0.1979
     40  CA        35.2750  -28.2100    7.3810 C.3   140  ARG140      0.1597
     41  C         34.7100  -29.5190    7.9390 C.2   140  ARG140      0.2287
     42  O         35.4640  -30.4680    8.2020 O.2   140  ARG140     -0.2864
     43  CB        36.4490  -27.7460    8.2460 C.3   140  ARG140      0.0334
     44  CG        37.1200  -26.4610    7.7900 C.3   140  ARG140      0.0492
     45  CD        37.7880  -26.5980    6.4260 C.3   140  ARG140      0.2205
     46  NE        38.4760  -25.3570    6.0500 N.pl3 140  ARG140     -0.0865
     47  CZ        37.8610  -24.3140    5.4770 C.cat 140  ARG140      0.5346
     48  NH1       36.5620  -24.3800    5.1990 N.pl3 140  ARG140      0.1354
     49  NH2       38.5270  -23.2140    5.1750 N.pl3 140  ARG140      0.1354
     50  N         28.8120  -17.3540    0.8760 N.3   192  HIS192     -0.1226
     51  CA        29.8480  -16.9530    1.8270 C.3   192  HIS192      0.1752
     52  C         30.3020  -15.5340    1.5060 C.2   192  HIS192      0.2597
     53  O         29.8900  -14.9330    0.4990 O.2   192  HIS192     -0.2718
     54  CB        31.0470  -17.9080    1.7110 C.3   192  HIS192      0.0759
     55  CG        30.8150  -19.2600    2.3230 C.ar  192  HIS192      0.0818
     56  ND1       31.3090  -19.5940    3.5360 N.ar  192  HIS192     -0.2268
     57  CD2       30.1220  -20.3690    1.8610 C.ar  192  HIS192      0.1154
     58  CE1       30.9490  -20.8640    3.8270 C.ar  192  HIS192      0.1986
     59  NE2       30.2000  -21.3290    2.8210 N.ar  192  HIS192     -0.2212
     60  N         31.1860  -14.9850    2.3400 N.am  193  SER193     -0.1938
     61  CA        31.9770  -13.8050    1.9560 C.3   193  SER193      0.2055
     62  C         33.3340  -13.9730    2.6270 C.2   193  SER193      0.2643
     63  O         33.4810  -14.8430    3.5040 O.2   193  SER193     -0.2714
     64  CB        31.3120  -12.4900    2.3710 C.3   193  SER193      0.2130
     65  OG        31.4000  -12.2780    3.7720 O.3   193  SER193     -0.2179
     66  N         34.3510  -13.1990    2.2670 N.am  194  TYR194     -0.1973
     67  CA        34.3570  -12.2300    1.1690 C.3   194  TYR194      0.1639
     68  C         35.4080  -12.6760    0.1490 C.2   194  TYR194      0.2290
     69  O         35.9730  -13.7620    0.2850 O.2   194  TYR194     -0.2864
     70  CB        34.6440  -10.8240    1.7220 C.3   194  TYR194      0.0560
     71  CG        35.9900  -10.6980    2.4230 C.ar  194  TYR194     -0.0198
     72  CD1       36.1200  -11.0120    3.7800 C.ar  194  TYR194     -0.0009
     73  CD2       37.1290  -10.2930    1.7270 C.ar  194  TYR194     -0.0009
     74  CE1       37.3390  -10.9250    4.4270 C.ar  194  TYR194      0.0417
     75  CE2       38.3530  -10.2000    2.3690 C.ar  194  TYR194      0.0417
     76  CZ        38.4530  -10.5130    3.7170 C.ar  194  TYR194      0.1957
     77  OH        39.6630  -10.4220    4.3620 O.3   194  TYR194     -0.2866
     78  N         33.1710  -20.2610   -6.9860 N.3   199  LEU199     -0.1245
     79  CA        34.0190  -21.4330   -6.8440 C.3   199  LEU199      0.1561
     80  C         33.2080  -22.6870   -7.0950 C.2   199  LEU199      0.2260
     81  O         32.0360  -22.7410   -6.7440 O.2   199  LEU199     -0.2867
     82  CB        34.5770  -21.4890   -5.4250 C.3   199  LEU199      0.0270
     83  CG        35.2970  -20.2430   -4.9270 C.3   199  LEU199      0.0019
     84  CD1       35.5420  -20.3300   -3.4360 C.3   199  LEU199      0.0001
     85  CD2       36.6150  -20.0590   -5.6540 C.3   199  LEU199      0.0001
     86  N         37.8750  -28.4820   -3.7220 N.3   203  SER203     -0.1217
     87  CA        38.7650  -27.8530   -2.7550 C.3   203  SER203      0.1889
     88  C         39.5300  -28.8610   -1.8950 C.2   203  SER203      0.2288
     89  O         40.6330  -28.5570   -1.4390 O.2   203  SER203     -0.2866
     90  CB        37.9620  -26.9290   -1.8470 C.3   203  SER203      0.2089
     91  OG        37.4850  -25.7940   -2.5480 O.3   203  SER203     -0.2183
     92  N         40.9220  -20.2040   -4.5630 N.3   243  ILE243     -0.1231
     93  CA        41.0470  -19.5640   -3.2630 C.3   243  ILE243      0.1692
     94  C         42.1370  -20.2340   -2.4140 C.2   243  ILE243      0.2592
     95  O         43.1190  -19.5960   -2.0550 O.2   243  ILE243     -0.2718
     96  CB        39.6710  -19.3590   -2.5650 C.3   243  ILE243      0.0266
     97  CG1       39.7940  -18.3070   -1.4550 C.3   243  ILE243      0.0019
     98  CG2       39.0610  -20.6730   -2.0830 C.3   243  ILE243      0.0020
     99  CD1       38.4830  -18.0050   -0.7400 C.3   243  ILE243      0.0001
    100  N         41.9850  -21.5270   -2.1400 N.am  244  TYR244     -0.1976
    101  CA        42.9750  -22.3140   -1.3880 C.3   244  TYR244      0.1639
    102  C         42.4490  -23.7350   -1.2870 C.2   244  TYR244      0.2290
    103  O         41.2410  -23.9490   -1.3820 O.2   244  TYR244     -0.2864
    104  CB        43.2460  -21.7690    0.0360 C.3   244  TYR244      0.0560
    105  CG        42.0410  -21.2510    0.7980 C.ar  244  TYR244     -0.0198
    106  CD1       41.0020  -22.0960    1.1990 C.ar  244  TYR244     -0.0009
    107  CD2       41.9610  -19.9110    1.1520 C.ar  244  TYR244     -0.0009
    108  CE1       39.9010  -21.6070    1.8980 C.ar  244  TYR244      0.0417
    109  CE2       40.8830  -19.4210    1.8540 C.ar  244  TYR244      0.0417
    110  CZ        39.8470  -20.2620    2.2210 C.ar  244  TYR244      0.1957
    111  OH        38.7690  -19.7570    2.9230 O.3   244  TYR244     -0.2866
    112  N         41.1110  -26.7740    0.7770 N.3   246  ALA246     -0.1245
    113  CA        40.4160  -26.8790    2.0550 C.3   246  ALA246      0.1562
    114  C         39.4640  -28.0390    1.9880 C.2   246  ALA246      0.2260
    115  O         38.6020  -28.1030    1.1080 O.2   246  ALA246     -0.2867
    116  CB        39.6580  -25.5970    2.4130 C.3   246  ALA246      0.0290
    117  N         34.3200  -29.3600    2.8910 N.3   249  GLY249     -0.1225
    118  CA        33.3090  -28.3720    2.5310 C.3   249  GLY249      0.1811
    119  C         32.0550  -28.9710    1.9410 C.2   249  GLY249      0.2280
    120  O         32.0740  -30.0400    1.3200 O.2   249  GLY249     -0.2866
    121  N         30.1810  -27.8280   -0.5800 N.3   251  ASP251     -0.1225
    122  CA        30.1230  -27.8320   -2.0330 C.3   251  ASP251      0.1805
    123  C         30.6900  -29.1270   -2.6300 C.2   251  ASP251      0.2597
    124  O         30.0590  -29.7580   -3.4860 O.2   251  ASP251     -0.2718
    125  CB        30.7620  -26.5790   -2.6490 C.3   251  ASP251      0.1424
    126  CG        32.1960  -26.3450   -2.2220 C.2   251  ASP251      0.3668
    127  OD1       32.7560  -27.1290   -1.4260 O.co2 251  ASP251     -0.2456
    128  OD2       32.7630  -25.3410   -2.6970 O.co2 251  ASP251     -0.2456
    129  N         31.8630  -29.5400   -2.1590 N.am  252  ASP252     -0.1974
    130  CA        32.5060  -30.7540   -2.6340 C.3   252  ASP252      0.1709
    131  C         31.6950  -31.9850   -2.2520 C.2   252  ASP252      0.2293
    132  O         31.5260  -32.9180   -3.0560 O.2   252  ASP252     -0.2864
    133  CB        33.8990  -30.8680   -2.0240 C.3   252  ASP252      0.1436
    134  CG        34.9180  -29.8990   -2.6350 C.2   252  ASP252      0.3671
    135  OD1       34.6330  -29.2320   -3.6560 O.co2 252  ASP252     -0.2456
    136  OD2       36.0310  -29.8400   -2.0680 O.co2 252  ASP252     -0.2456
    137  N         30.2490  -22.4320   -4.5220 N.3   264  THR264     -0.1218
    138  CA        30.4030  -21.5280   -3.3930 C.3   264  THR264      0.1862
    139  C         30.5450  -20.1100   -3.9440 C.2   264  THR264      0.2287
    140  O         31.4060  -19.8540   -4.7950 O.2   264  THR264     -0.2866
    141  CB        31.6490  -21.8670   -2.5480 C.3   264  THR264      0.1770
    142  OG1       31.4870  -23.1460   -1.9500 O.3   264  THR264     -0.2211
    143  CG2       31.8370  -20.8400   -1.4460 C.3   264  THR264      0.0375
    144  N         31.5640  -16.2630   -2.9850 N.3   266  GLU266     -0.1245
    145  CA        32.1610  -15.3180   -2.0400 C.3   266  GLU266      0.1567
    146  C         31.7190  -13.9400   -2.4730 C.2   266  GLU266      0.2260
    147  O         32.1070  -13.4750   -3.5440 O.2   266  GLU266     -0.2867
    148  CB        33.6890  -15.3700   -2.0530 C.3   266  GLU266      0.0388
    149  CG        34.3120  -16.7110   -1.7280 C.3   266  GLU266      0.1160
    150  CD        34.3720  -17.0450   -0.2660 C.2   266  GLU266      0.3649
    151  OE1       33.7940  -16.3530    0.6140 O.co2 266  GLU266     -0.2457
    152  OE2       35.0570  -18.0560    0.0190 O.co2 266  GLU266     -0.2457
    153  N         34.5980   -8.7690    6.4220 N.3   275  PHE275     -0.1241
    154  CA        33.3350   -9.2710    7.0030 C.3   275  PHE275      0.1605
    155  C         32.3990   -8.1860    7.4850 C.2   275  PHE275      0.2264
    156  O         31.1870   -8.4150    7.5720 O.2   275  PHE275     -0.2867
    157  CB        33.6200  -10.2500    8.1380 C.3   275  PHE275      0.0534
    158  CG        34.4890  -11.3820    7.7030 C.ar  275  PHE275     -0.0203
    159  CD1       34.0510  -12.2270    6.6820 C.ar  275  PHE275     -0.0042
    160  CD2       35.7650  -11.5730    8.2260 C.ar  275  PHE275     -0.0042
    161  CE1       34.8560  -13.2520    6.2030 C.ar  275  PHE275     -0.0003
    162  CE2       36.5810  -12.5940    7.7490 C.ar  275  PHE275     -0.0003
    163  CZ        36.1270  -13.4340    6.7380 C.ar  275  PHE275     -0.0000
@<TRIPOS>BOND
     1    80    79    1
     2    80    81    2
     3    78    79    1
     4    79    82    1
     5    85    83    1
     6    82    83    1
     7    83    84    1
     8   140   139    2
     9    92    93    1
    10   137   138    1
    11   139   138    1
    12    86    87    1
    13   135   134   ar
    14   147   146    2
    15   124   123    2
    16   138   141    1
    17    93    96    1
    18    93    94    1
    19   132   131    2
    20   144   145    1
    21    87    88    1
    22    87    90    1
    23   128   126   ar
    24   125   126    1
    25   125   122    1
    26   134   136   ar
    27   134   133    1
    28   130   131    1
    29   130   129    1
    30   130   133    1
    31   123   129   am
    32   123   122    1
    33    96    98    1
    34    96    97    1
    35   141   142    1
    36   141   143    1
    37    91    90    1
    38   146   145    1
    39    94   100   am
    40    94    95    2
    41   126   127   ar
    42   100   101    1
    43   148   145    1
    44   148   149    1
    45   122   121    1
    46    88    89    2
    47   149   150    1
    48    97    99    1
    49   101   102    1
    50   101   104    1
    51   103   102    2
    52   150   152   ar
    53   150   151   ar
    54   104   105    1
    55    68    69    2
    56    68    67    1
    57    53    52    2
    58   112   113    1
    59   105   107   ar
    60   105   106   ar
    61    50    51    1
    62   115   114    2
    63   107   109   ar
    64    67    70    1
    65    67    66    1
    66   106   108   ar
    67   120   119    2
    68    52    51    1
    69    52    60   am
    70    54    51    1
    71    54    55    1
    72    70    71    1
    73    73    75   ar
    74    73    71   ar
    75   109   110   ar
    76    57    55   ar
    77    57    59   ar
    78   108   110   ar
    79   119   118    1
    80    61    60    1
    81    61    64    1
    82    61    62    1
    83   114   113    1
    84   113   116    1
    85   110   111    1
    86    66    62   am
    87    55    56   ar
    88    75    76   ar
    89    64    65    1
    90    71    72   ar
    91   118   117    1
    92    62    63    2
    93    59    58   ar
    94    38    36   am
    95    56    58   ar
    96    37    36    2
    97    76    77    1
    98    76    74   ar
    99    72    74   ar
   100    36    35    1
   101    19    17   ar
   102    34    33    2
   103    49    47    1
   104    48    47    1
   105    35    32    1
   106    47    46    2
   107    17    16    1
   108    17    18   ar
   109    46    45    1
   110    14    13    2
   111    15    16    1
   112    15    12    1
   113    33    32    1
   114    33    39   am
   115   161   159   ar
   116   161   163   ar
   117    32    31    1
   118     9     7   ar
   119     9    10   ar
   120     7     6   ar
   121   153   154    1
   122    45    44    1
   123   159   158   ar
   124   163   162   ar
   125    13    12    1
   126   154   155    1
   127   154   157    1
   128    12    11    1
   129    30    28    1
   130    39    40    1
   131    40    41    1
   132    40    43    1
   133   155   156    2
   134    10     8   ar
   135     6     5    1
   136     6     8   ar
   137    29    28    1
   138   158   157    1
   139   158   160   ar
   140   162   160   ar
   141    44    43    1
   142    41    42    2
   143     5     2    1
   144     1     2    1
   145    28    27    2
   146     4     3    2
   147     2     3    1
   148    27    26    1
   149    26    25    1
   150    25    24    1
   151    23    22    2
   152    24    21    1
   153    21    22    1
   154    21    20    1
