@<TRIPOS>MOLECULE
tmp/4z67A00.pdb
 88 80 0 0 0
SMALL
GASTEIGER

@<TRIPOS>ATOM
      1  N         20.9610  -11.6670   14.0980 N.3    11  ALA11      -0.1231
      2  CA        22.1400  -12.4850   14.1770 C.3    11  ALA11       0.1694
      3  C         22.4870  -12.7340   15.6530 C.2    11  ALA11       0.2592
      4  O         21.8010  -12.2810   16.5860 O.2    11  ALA11      -0.2718
      5  CB        23.2910  -11.7430   13.4910 C.3    11  ALA11       0.0304
      6  N         23.5810  -13.4530   15.8750 N.am   12  GLY12      -0.1957
      7  CA        24.0370  -13.6950   17.2460 C.3    12  GLY12       0.1869
      8  C         24.1070  -12.3990   18.0220 C.2    12  GLY12       0.2309
      9  O         24.5980  -11.3690   17.4950 O.2    12  GLY12      -0.2863
     10  N         26.3460  -23.6470   15.4990 N.3    91  GLN91      -0.1245
     11  CA        26.6370  -22.3910   16.1850 C.3    91  GLN91       0.1566
     12  C         25.8210  -22.2570   17.4800 C.2    91  GLN91       0.2260
     13  O         24.6960  -22.7680   17.5880 O.2    91  GLN91      -0.2867
     14  CB        26.2290  -21.2330   15.2690 C.3    91  GLN91       0.0367
     15  CG        26.9860  -21.1530   13.9380 C.3    91  GLN91       0.0905
     16  CD        28.2870  -20.4990   14.0470 C.2    91  GLN91       0.2608
     17  OE1       28.4610  -19.5890   14.8490 O.2    91  GLN91      -0.2717
     18  NE2       29.2280  -20.9150   13.2140 N.am   91  GLN91      -0.0878
     19  N         24.2300  -19.7080   18.6200 N.3    93  ASP93      -0.1239
     20  CA        22.9480  -19.0400   18.4310 C.3    93  ASP93       0.1674
     21  C         21.8620  -19.9090   17.8120 C.2    93  ASP93       0.2266
     22  O         20.6830  -19.5120   17.8090 O.2    93  ASP93      -0.2867
     23  CB        23.1230  -17.6930   17.6520 C.3    93  ASP93       0.1410
     24  CG        23.5680  -17.8530   16.1770 C.2    93  ASP93       0.3668
     25  OD1       23.7340  -18.9970   15.6540 O.co2  93  ASP93      -0.2456
     26  OD2       23.7760  -16.7920   15.5280 O.co2  93  ASP93      -0.2456
     27  N         23.1800  -10.4550    7.4800 N.3   223  THR223     -0.1218
     28  CA        23.9590  -10.0800    8.6780 C.3   223  THR223      0.1862
     29  C         24.4780   -8.6480    8.6540 C.2   223  THR223      0.2287
     30  O         24.2420   -7.8640    9.6070 O.2   223  THR223     -0.2866
     31  CB        25.1410  -11.0760    8.8920 C.3   223  THR223      0.1770
     32  OG1       24.6020  -12.3960    8.8910 O.3   223  THR223     -0.2211
     33  CG2       25.8260  -10.8690   10.2340 C.3   223  THR223      0.0375
     34  N         31.5540   -4.0420   11.3300 N.3   230  MET230     -0.1245
     35  CA        31.8650   -4.0690   12.7580 C.3   230  MET230      0.1570
     36  C         32.9490   -3.0410   13.0970 C.2   230  MET230      0.2261
     37  O         32.8660   -2.3680   14.1390 O.2   230  MET230     -0.2867
     38  CB        32.1870   -5.4830   13.2540 C.3   230  MET230      0.0387
     39  CG        30.8730   -6.2740   13.6410 C.3   230  MET230      0.0595
     40  SD        31.1390   -8.0660   13.5470 S.3   230  MET230     -0.1393
     41  CE        29.5110   -8.7450   13.6240 C.3   230  MET230      0.0692
     42  N         36.2560   -7.9970   13.2970 N.3   238  ARG238     -0.1245
     43  CA        35.9150   -9.0960   12.4110 C.3   238  ARG238      0.1563
     44  C         35.2360   -8.5720   11.1640 C.2   238  ARG238      0.2260
     45  O         34.4370   -7.6400   11.2100 O.2   238  ARG238     -0.2867
     46  CB        35.0030  -10.1150   13.0960 C.3   238  ARG238      0.0307
     47  CG        35.6550  -10.8720   14.2590 C.3   238  ARG238      0.0489
     48  CD        34.5830  -11.6880   14.9860 C.3   238  ARG238      0.2205
     49  NE        33.5150  -10.8140   15.4870 N.pl3 238  ARG238     -0.0865
     50  CZ        32.3510  -11.2460   15.9730 C.cat 238  ARG238      0.5346
     51  NH1       32.0900  -12.5500   16.0180 N.pl3 238  ARG238      0.1354
     52  NH2       31.4360  -10.3770   16.4070 N.pl3 238  ARG238      0.1354
     53  N         33.7780  -14.1370    8.9640 N.3   243  MET243     -0.1245
     54  CA        32.6940  -14.8140    9.6730 C.3   243  MET243      0.1570
     55  C         31.8150  -15.6680    8.7870 C.2   243  MET243      0.2261
     56  O         30.8630  -16.2950    9.2720 O.2   243  MET243     -0.2867
     57  CB        31.8430  -13.8030   10.4350 C.3   243  MET243      0.0387
     58  CG        32.5950  -13.1270   11.5780 C.3   243  MET243      0.0595
     59  SD        31.6620  -11.7720   12.3240 S.3   243  MET243     -0.1393
     60  CE        31.1270  -10.8990   10.8380 C.3   243  MET243      0.0692
     61  N         29.9770  -14.5000    6.0340 N.3   245  HIS245     -0.1241
     62  CA        28.7570  -13.7730    5.6320 C.3   245  HIS245      0.1621
     63  C         29.0220  -12.8970    4.4510 C.2   245  HIS245      0.2264
     64  O         29.9490  -12.0790    4.4830 O.2   245  HIS245     -0.2867
     65  CB        28.2460  -12.8800    6.7660 C.3   245  HIS245      0.0745
     66  CG        27.8760  -13.6470    7.9770 C.ar  245  HIS245      0.0817
     67  ND1       26.8300  -14.5480    7.9920 N.ar  245  HIS245     -0.2268
     68  CD2       28.4200  -13.6770    9.2210 C.ar  245  HIS245      0.1154
     69  CE1       26.7540  -15.1100    9.1890 C.ar  245  HIS245      0.1986
     70  NE2       27.6960  -14.5860    9.9540 N.ar  245  HIS245     -0.2212
     71  N         18.5950  -13.0240    9.9620 N.3   270  HIS270     -0.1241
     72  CA        19.8960  -13.1200   10.6880 C.3   270  HIS270      0.1621
     73  C         20.6540  -11.8040   10.4920 C.2   270  HIS270      0.2264
     74  O         21.7090  -11.7340    9.8690 O.2   270  HIS270     -0.2867
     75  CB        20.6820  -14.3670   10.2610 C.3   270  HIS270      0.0745
     76  CG        21.9380  -14.6310   11.0510 C.ar  270  HIS270      0.0817
     77  ND1       23.1310  -14.0070   10.7560 N.ar  270  HIS270     -0.2268
     78  CD2       22.2130  -15.5100   12.0500 C.ar  270  HIS270      0.1154
     79  CE1       24.0830  -14.4540   11.5590 C.ar  270  HIS270      0.1986
     80  NE2       23.5560  -15.3820   12.3570 N.ar  270  HIS270     -0.2212
     81  N         22.5540   -8.5260   11.8660 N.3   272  ASN272     -0.1240
     82  CA        23.3150   -8.1120   13.0630 C.3   272  ASN272      0.1653
     83  C         22.8480   -6.7700   13.6430 C.2   272  ASN272      0.2266
     84  O         22.3330   -5.8800   12.9340 O.2   272  ASN272     -0.2867
     85  CB        24.8070   -7.9870   12.7410 C.3   272  ASN272      0.1155
     86  CG        25.6460   -8.1400   13.9580 C.2   272  ASN272      0.2627
     87  OD1       25.4840   -9.1060   14.7230 O.2   272  ASN272     -0.2716
     88  ND2       26.5440   -7.2010   14.1770 N.am  272  ASN272     -0.0877
@<TRIPOS>BOND
     1    63    64    2
     2    63    62    1
     3    62    61    1
     4    62    65    1
     5    65    66    1
     6    27    28    1
     7    66    67   ar
     8    66    68   ar
     9    67    69   ar
    10    29    28    1
    11    29    30    2
    12    28    31    1
    13    55    56    2
    14    55    54    1
    15    32    31    1
    16    31    33    1
    17    53    54    1
    18    69    70   ar
    19    68    70   ar
    20    54    57    1
    21    74    73    2
    22    71    72    1
    23    75    72    1
    24    75    76    1
    25    57    58    1
    26    73    72    1
    27    77    76   ar
    28    77    79   ar
    29    60    59    1
    30    76    78   ar
    31    44    45    2
    32    44    43    1
    33    34    35    1
    34    79    80   ar
    35    58    59    1
    36    81    82    1
    37    78    80   ar
    38    43    46    1
    39    43    42    1
    40    85    82    1
    41    85    86    1
    42    35    36    1
    43    35    38    1
    44    84    83    2
    45    82    83    1
    46    46    47    1
    47    36    37    2
    48    18    16   am
    49    38    39    1
    50     5     2    1
    51    40    41    1
    52    40    39    1
    53    15    16    1
    54    15    14    1
    55    86    88   am
    56    86    87    2
    57    16    17    2
    58     1     2    1
    59     2     3    1
    60    47    48    1
    61    48    49    1
    62    14    11    1
    63    49    50    2
    64    10    11    1
    65    26    24   ar
    66     3     6   am
    67     3     4    2
    68    25    24   ar
    69     6     7    1
    70    50    51    1
    71    50    52    1
    72    24    23    1
    73    11    12    1
    74     7     8    1
    75    12    13    2
    76     9     8    2
    77    23    20    1
    78    22    21    2
    79    21    20    1
    80    20    19    1
