@<TRIPOS>MOLECULE
tmp/4z69A07.pdb
 104 100 0 0 0
SMALL
GASTEIGER

@<TRIPOS>ATOM
      1  N         -5.0700    4.7790   -1.7080 N.3   197  LYS197     -0.1245
      2  CA        -4.8130    6.2200   -1.7420 C.3   197  LYS197      0.1561
      3  C         -5.8950    6.9450   -2.5260 C.2   197  LYS197      0.2260
      4  O         -6.2520    8.0800   -2.2080 O.2   197  LYS197     -0.2867
      5  CB        -3.4380    6.5440   -2.3360 C.3   197  LYS197      0.0271
      6  CG        -2.2660    6.1590   -1.4510 C.3   197  LYS197      0.0035
      7  CD        -0.9440    6.5680   -2.0920 C.3   197  LYS197      0.0206
      8  CE         0.2340    6.0340   -1.2910 C.3   197  LYS197      0.1093
      9  NZ         1.5640    6.3290   -1.9120 N.3   197  LYS197     -0.1314
     10  N         -9.0310    7.1760   -0.4970 N.3   200  SER200     -0.1202
     11  CA        -8.8260    8.1490    0.5610 C.3   200  SER200      0.2020
     12  C         -9.0880    9.5480    0.0080 C.2   200  SER200      0.2618
     13  O         -9.7140   10.3740    0.6740 O.2   200  SER200     -0.2717
     14  CB        -7.4090    8.0430    1.1330 C.3   200  SER200      0.2103
     15  OG        -7.0840    6.7050    1.4830 O.3   200  SER200     -0.2182
     16  N         -8.6280    9.8050   -1.2160 N.am  201  LEU201     -0.1979
     17  CA        -8.8220   11.1150   -1.8490 C.3   201  LEU201      0.1596
     18  C        -10.3050   11.4190   -1.9750 C.2   201  LEU201      0.2287
     19  O        -10.7620   12.5020   -1.6040 O.2   201  LEU201     -0.2864
     20  CB        -8.1880   11.1570   -3.2430 C.3   201  LEU201      0.0297
     21  CG        -7.8430   12.5010   -3.9110 C.3   201  LEU201      0.0022
     22  CD1       -7.8770   12.3670   -5.4280 C.3   201  LEU201      0.0001
     23  CD2       -8.7300   13.6620   -3.4710 C.3   201  LEU201      0.0001
     24  N        -12.0160   11.5620    1.8530 N.3   204  PHE204     -0.1227
     25  CA       -11.6220   12.5900    2.8140 C.3   204  PHE204      0.1736
     26  C        -11.3360   13.9540    2.1890 C.2   204  PHE204      0.2596
     27  O        -11.3710   14.9730    2.8790 O.2   204  PHE204     -0.2718
     28  CB       -10.4360   12.1210    3.6450 C.3   204  PHE204      0.0547
     29  CG       -10.6840   10.8400    4.4030 C.ar  204  PHE204     -0.0202
     30  CD1       -9.9580    9.6950    4.1150 C.ar  204  PHE204     -0.0042
     31  CD2      -11.6250   10.7900    5.4220 C.ar  204  PHE204     -0.0042
     32  CE1      -10.1710    8.5170    4.8210 C.ar  204  PHE204     -0.0003
     33  CE2      -11.8400    9.6140    6.1360 C.ar  204  PHE204     -0.0003
     34  CZ       -11.1110    8.4770    5.8310 C.ar  204  PHE204     -0.0000
     35  N        -11.0490   13.9780    0.8940 N.am  205  GLY205     -0.1957
     36  CA       -10.9910   15.2350    0.1660 C.3   205  GLY205      0.1869
     37  C         -9.5770   15.7060   -0.1150 C.2   205  GLY205      0.2309
     38  O         -8.6290   15.2490    0.5200 O.2   205  GLY205     -0.2863
     39  N         -7.2570   17.0890    2.9760 N.3   208  ALA208     -0.1231
     40  CA        -6.5770   16.0590    3.7490 C.3   208  ALA208      0.1694
     41  C         -5.4360   15.4380    2.9350 C.2   208  ALA208      0.2592
     42  O         -4.3180   15.3000    3.4200 O.2   208  ALA208     -0.2718
     43  CB        -7.5600   14.9930    4.2420 C.3   208  ALA208      0.0304
     44  N         -5.7010   15.0790    1.6880 N.am  209  PHE209     -0.1976
     45  CA        -4.6370   14.4760    0.9120 C.3   209  PHE209      0.1639
     46  C         -3.4200   15.4140    0.8990 C.2   209  PHE209      0.2290
     47  O         -2.2950   14.9770    1.1230 O.2   209  PHE209     -0.2864
     48  CB        -5.0820   14.1050   -0.5100 C.3   209  PHE209      0.0560
     49  CG        -3.9650   13.5820   -1.3460 C.ar  209  PHE209     -0.0200
     50  CD1       -3.5950   12.2500   -1.2720 C.ar  209  PHE209     -0.0042
     51  CD2       -3.2440   14.4280   -2.1620 C.ar  209  PHE209     -0.0042
     52  CE1       -2.5440   11.7670   -2.0200 C.ar  209  PHE209     -0.0003
     53  CE2       -2.1920   13.9620   -2.9180 C.ar  209  PHE209     -0.0003
     54  CZ        -1.8390   12.6260   -2.8510 C.ar  209  PHE209     -0.0000
     55  N         -1.3690   15.1320    3.9420 N.3   212  TRP212     -0.1241
     56  CA        -0.6010   13.9110    3.9150 C.3   212  TRP212      0.1605
     57  C          0.6390   14.1680    3.0450 C.2   212  TRP212      0.2264
     58  O          1.7600   13.8650    3.4470 O.2   212  TRP212     -0.2867
     59  CB        -1.4780   12.7980    3.3620 C.3   212  TRP212      0.0550
     60  CG        -0.7680   11.5530    3.1840 C.ar  212  TRP212      0.0003
     61  CD1       -0.5130   10.6050    4.1360 C.ar  212  TRP212      0.0946
     62  CD2       -0.1740   11.0900    1.9820 C.ar  212  TRP212      0.0152
     63  NE1        0.2160    9.5790    3.5920 N.ar  212  TRP212     -0.2442
     64  CE2        0.4390    9.8520    2.2620 C.ar  212  TRP212      0.0810
     65  CE3       -0.0900   11.6060    0.6820 C.ar  212  TRP212      0.0012
     66  CZ2        1.1120    9.1090    1.2970 C.ar  212  TRP212      0.0191
     67  CZ3        0.5850   10.8780   -0.2770 C.ar  212  TRP212      0.0001
     68  CH2        1.1770    9.6400    0.0350 C.ar  212  TRP212      0.0015
     69  N          1.4220    9.2440    9.5080 N.3   342  VAL342     -0.1245
     70  CA         0.1960    9.4130   10.2790 C.3   342  VAL342      0.1561
     71  C          0.3800   10.0480   11.6690 C.2   342  VAL342      0.2260
     72  O         -0.4720   10.8030   12.1230 O.2   342  VAL342     -0.2867
     73  CB        -0.6230    8.1130   10.3510 C.3   342  VAL342      0.0252
     74  CG1       -1.2550    7.8270    8.9890 C.3   342  VAL342      0.0019
     75  CG2        0.2420    6.9540   10.7860 C.3   342  VAL342      0.0019
     76  N          0.3930   13.7480   11.1440 N.3   345  LEU345     -0.1245
     77  CA        -0.9630   14.2680   10.9380 C.3   345  LEU345      0.1561
     78  C         -1.7650   14.3650   12.2520 C.2   345  LEU345      0.2260
     79  O         -2.5110   15.3190   12.4590 O.2   345  LEU345     -0.2867
     80  CB        -1.7140   13.4290    9.8950 C.3   345  LEU345      0.0270
     81  CG        -1.1400   13.4800    8.4750 C.3   345  LEU345      0.0019
     82  CD1       -1.7620   12.4470    7.5690 C.3   345  LEU345      0.0001
     83  CD2       -1.3230   14.8600    7.8750 C.3   345  LEU345      0.0001
     84  N        -11.4680    7.2800   10.2990 N.3   478  SER478     -0.1202
     85  CA       -10.2710    7.9630    9.8310 C.3   478  SER478      0.2020
     86  C         -9.1910    6.9550    9.4970 C.2   478  SER478      0.2619
     87  O         -8.9970    5.9800   10.2250 O.2   478  SER478     -0.2717
     88  CB        -9.7410    8.9350   10.8840 C.3   478  SER478      0.2103
     89  OG        -8.6430    9.6570   10.3550 O.3   478  SER478     -0.2182
     90  N         -8.4960    7.1790    8.3900 N.am  479  LEU479     -0.1965
     91  CA        -7.3400    6.3510    8.0570 C.3   479  LEU479      0.1728
     92  C         -6.1460    6.7130    8.9660 C.2   479  LEU479      0.2616
     93  O         -5.1610    5.9830    9.0600 O.2   479  LEU479     -0.2715
     94  CB        -6.9740    6.5100    6.5810 C.3   479  LEU479      0.0311
     95  CG        -6.6750    5.2630    5.7530 C.3   479  LEU479      0.0022
     96  CD1       -6.0290    5.6550    4.4270 C.3   479  LEU479      0.0001
     97  CD2       -5.7830    4.3330    6.5220 C.3   479  LEU479      0.0001
     98  N         -6.2290    7.8580    9.6320 N.am  480  VAL480     -0.1977
     99  CA        -5.1350    8.2810   10.4910 C.3   480  VAL480      0.1596
    100  C         -5.2960    7.5400   11.8090 C.2   480  VAL480      0.2287
    101  O         -4.3040    7.1150   12.4150 O.2   480  VAL480     -0.2864
    102  CB        -5.0880    9.8160   10.6520 C.3   480  VAL480      0.0276
    103  CG1       -6.0360   10.2820   11.7430 C.3   480  VAL480      0.0022
    104  CG2       -3.6880   10.2650   10.9570 C.3   480  VAL480      0.0022
@<TRIPOS>BOND
     1    22    21    1
     2    21    23    1
     3    21    20    1
     4    20    17    1
     5    53    54   ar
     6    53    51   ar
     7    54    52   ar
     8     3     4    2
     9     3     2    1
    10     5     2    1
    11     5     6    1
    12    51    49   ar
    13     7     6    1
    14     7     8    1
    15    52    50   ar
    16    18    17    1
    17    18    19    2
    18     9     8    1
    19    17    16    1
    20     2     1    1
    21    49    50   ar
    22    49    48    1
    23    16    12   am
    24    48    45    1
    25    10    11    1
    26    67    68   ar
    27    67    65   ar
    28    37    36    1
    29    37    38    2
    30    12    11    1
    31    12    13    2
    32    68    66   ar
    33    36    35    1
    34    11    14    1
    35    65    62   ar
    36    35    26   am
    37    46    45    1
    38    46    47    2
    39    45    44    1
    40    14    15    1
    41    66    64   ar
    42    44    41   am
    43    24    25    1
    44    62    64   ar
    45    62    60   ar
    46    26    25    1
    47    26    27    2
    48    64    63   ar
    49    25    28    1
    50    41    42    2
    51    41    40    1
    52    39    40    1
    53    57    58    2
    54    57    56    1
    55    60    59    1
    56    60    61   ar
    57    59    56    1
    58    63    61   ar
    59    28    29    1
    60    40    43    1
    61    56    55    1
    62    30    29   ar
    63    30    32   ar
    64    29    31   ar
    65    96    95    1
    66    32    34   ar
    67    31    33   ar
    68    95    97    1
    69    95    94    1
    70    34    33   ar
    71    94    91    1
    72    82    81    1
    73    83    81    1
    74    91    90    1
    75    91    92    1
    76    90    86   am
    77    81    80    1
    78    92    93    2
    79    92    98   am
    80    74    73    1
    81    86    85    1
    82    86    87    2
    83    69    70    1
    84    98    99    1
    85    85    84    1
    86    85    88    1
    87    80    77    1
    88    70    73    1
    89    70    71    1
    90    73    75    1
    91    89    88    1
    92    99   102    1
    93    99   100    1
    94   102   104    1
    95   102   103    1
    96    77    76    1
    97    77    78    1
    98    71    72    2
    99   100   101    2
   100    78    79    2
