@<TRIPOS>MOLECULE
tmp/4z69A05.pdb
 117 111 0 0 0
SMALL
GASTEIGER

@<TRIPOS>ATOM
      1  N         -4.2020  -17.2410  -11.0680 N.3   113  LEU113     -0.1245
      2  CA        -2.9510  -17.5040  -11.7780 C.3   113  LEU113      0.1561
      3  C         -2.0880  -18.4940  -11.0100 C.2   113  LEU113      0.2260
      4  O         -1.6790  -18.2250   -9.8640 O.2   113  LEU113     -0.2867
      5  CB        -2.1790  -16.2110  -12.0420 C.3   113  LEU113      0.0270
      6  CG        -2.3670  -15.5950  -13.4300 C.3   113  LEU113      0.0019
      7  CD1       -1.3330  -14.4860  -13.6520 C.3   113  LEU113      0.0001
      8  CD2       -2.2270  -16.6680  -14.5040 C.3   113  LEU113      0.0001
      9  N         -1.0800  -10.7610  -15.8270 N.3   140  ILE140     -0.1245
     10  CA        -1.1770   -9.9100  -14.6500 C.3   140  ILE140      0.1561
     11  C         -1.9110   -8.6200  -15.0100 C.2   140  ILE140      0.2260
     12  O         -2.8600   -8.2440  -14.3580 O.2   140  ILE140     -0.2867
     13  CB         0.2080   -9.5740  -14.1360 C.3   140  ILE140      0.0252
     14  CG1        0.9270  -10.8560  -13.7110 C.3   140  ILE140      0.0019
     15  CG2        0.1170   -8.6240  -12.9730 C.3   140  ILE140      0.0019
     16  CD1        0.6040  -11.2830  -12.3030 C.3   140  ILE140      0.0001
     17  N         -5.7070   -8.7710  -15.4490 N.3   143  ARG143     -0.1231
     18  CA        -6.4310   -9.0050  -14.1980 C.3   143  ARG143      0.1694
     19  C         -6.4000   -7.7830  -13.2820 C.2   143  ARG143      0.2592
     20  O         -6.9930   -7.8190  -12.2020 O.2   143  ARG143     -0.2718
     21  CB        -5.8550  -10.2040  -13.4420 C.3   143  ARG143      0.0321
     22  CG        -6.0530  -11.5530  -14.1170 C.3   143  ARG143      0.0489
     23  CD        -5.3510  -12.6490  -13.3220 C.3   143  ARG143      0.2205
     24  NE        -5.7360  -13.9790  -13.7720 N.pl3 143  ARG143     -0.0865
     25  CZ        -5.4160  -14.4990  -14.9540 C.cat 143  ARG143      0.5346
     26  NH1       -4.6980  -13.8080  -15.8230 N.pl3 143  ARG143      0.1354
     27  NH2       -5.8150  -15.7210  -15.2660 N.pl3 143  ARG143      0.1354
     28  N         -5.6860   -6.7280  -13.6930 N.am  144  HIS144     -0.1976
     29  CA        -5.6760   -5.4400  -12.9680 C.3   144  HIS144      0.1656
     30  C         -5.6390   -4.2410  -13.9260 C.2   144  HIS144      0.2291
     31  O         -4.6060   -3.6050  -14.0950 O.2   144  HIS144     -0.2864
     32  CB        -4.4770   -5.3520  -12.0360 C.3   144  HIS144      0.0771
     33  CG        -4.3860   -6.4870  -11.0780 C.ar  144  HIS144      0.0820
     34  ND1       -3.8770   -7.7170  -11.4340 N.ar  144  HIS144     -0.2267
     35  CD2       -4.7400   -6.5860   -9.7760 C.ar  144  HIS144      0.1154
     36  CE1       -3.9330   -8.5290  -10.3930 C.ar  144  HIS144      0.1986
     37  NE2       -4.4460   -7.8650   -9.3720 N.ar  144  HIS144     -0.2212
     38  N         -3.8030   -0.9840  -12.6270 N.3   147  PHE147     -0.1241
     39  CA        -2.4530   -1.0110  -12.0670 C.3   147  PHE147      0.1605
     40  C         -1.5620   -0.1690  -12.9710 C.2   147  PHE147      0.2264
     41  O         -1.4860   -0.4190  -14.1750 O.2   147  PHE147     -0.2867
     42  CB        -1.9210   -2.4540  -11.9740 C.3   147  PHE147      0.0534
     43  CG        -0.7610   -2.6270  -11.0090 C.ar  147  PHE147     -0.0203
     44  CD1        0.4570   -2.0130  -11.2420 C.ar  147  PHE147     -0.0042
     45  CD2       -0.8870   -3.4230   -9.8790 C.ar  147  PHE147     -0.0042
     46  CE1        1.5140   -2.1780  -10.3590 C.ar  147  PHE147     -0.0003
     47  CE2        0.1740   -3.5950   -8.9970 C.ar  147  PHE147     -0.0003
     48  CZ         1.3730   -2.9700   -9.2400 C.ar  147  PHE147     -0.0000
     49  N          4.1760   -1.9480  -13.6880 N.3   152  LEU152     -0.1245
     50  CA         3.9630   -3.3400  -14.0410 C.3   152  LEU152      0.1561
     51  C          5.1550   -3.8070  -14.8820 C.2   152  LEU152      0.2260
     52  O          5.6890   -4.8820  -14.6730 O.2   152  LEU152     -0.2867
     53  CB         2.6480   -3.4710  -14.8050 C.3   152  LEU152      0.0270
     54  CG         1.6080   -4.5260  -14.4210 C.3   152  LEU152      0.0019
     55  CD1        1.5190   -4.7360  -12.9090 C.3   152  LEU152      0.0001
     56  CD2        0.2550   -4.1780  -15.0290 C.3   152  LEU152      0.0001
     57  N          8.0750   -4.3260  -12.4350 N.3   155  PHE155     -0.1241
     58  CA         8.0390   -5.6690  -11.8710 C.3   155  PHE155      0.1605
     59  C          8.5720   -6.7360  -12.8330 C.2   155  PHE155      0.2264
     60  O          9.3590   -7.5770  -12.4500 O.2   155  PHE155     -0.2867
     61  CB         6.6260   -6.0260  -11.4020 C.3   155  PHE155      0.0534
     62  CG         6.3180   -5.5180  -10.0220 C.ar  155  PHE155     -0.0203
     63  CD1        6.7640   -6.2040   -8.9030 C.ar  155  PHE155     -0.0042
     64  CD2        5.5870   -4.3560   -9.8410 C.ar  155  PHE155     -0.0042
     65  CE1        6.4850   -5.7310   -7.6360 C.ar  155  PHE155     -0.0003
     66  CE2        5.3120   -3.8720   -8.5770 C.ar  155  PHE155     -0.0003
     67  CZ         5.7520   -4.5610   -7.4730 C.ar  155  PHE155     -0.0000
     68  N         11.3570   -9.6480  -12.4090 N.3   159  TYR159     -0.1241
     69  CA        11.1510  -11.0740  -12.5990 C.3   159  TYR159      0.1605
     70  C         12.2300  -11.6120  -13.5140 C.2   159  TYR159      0.2264
     71  O         12.8200  -12.6660  -13.2290 O.2   159  TYR159     -0.2867
     72  CB         9.7800  -11.3600  -13.1870 C.3   159  TYR159      0.0534
     73  CG         8.7190  -11.4320  -12.1270 C.ar  159  TYR159     -0.0201
     74  CD1        8.5470  -12.5810  -11.3660 C.ar  159  TYR159     -0.0009
     75  CD2        7.9200  -10.3360  -11.8520 C.ar  159  TYR159     -0.0009
     76  CE1        7.5820  -12.6370  -10.3610 C.ar  159  TYR159      0.0417
     77  CE2        6.9740  -10.3780  -10.8660 C.ar  159  TYR159      0.0417
     78  CZ         6.7980  -11.5310  -10.1240 C.ar  159  TYR159      0.1957
     79  OH         5.8260  -11.5490   -9.1470 O.3   159  TYR159     -0.2866
     80  N          8.4860  -10.6640   -4.7840 N.3   183  LEU183     -0.1231
     81  CA         7.7840   -9.9730   -5.8620 C.3   183  LEU183      0.1693
     82  C          6.2560   -9.9890   -5.7200 C.2   183  LEU183      0.2591
     83  O          5.5960   -8.9390   -5.8090 O.2   183  LEU183     -0.2718
     84  CB         8.1910  -10.5640   -7.2100 C.3   183  LEU183      0.0284
     85  CG         9.4570   -9.9120   -7.7660 C.3   183  LEU183      0.0019
     86  CD1       10.2320   -9.2090   -6.6640 C.3   183  LEU183      0.0001
     87  CD2       10.3250  -10.9350   -8.4630 C.3   183  LEU183      0.0001
     88  N          5.6990  -11.1770   -5.5160 N.am  184  ARG184     -0.1980
     89  CA         4.2520  -11.3270   -5.3890 C.3   184  ARG184      0.1597
     90  C          3.7010  -10.4960   -4.2350 C.2   184  ARG184      0.2287
     91  O          2.6950   -9.7990   -4.3700 O.2   184  ARG184     -0.2864
     92  CB         3.8810  -12.7960   -5.2120 C.3   184  ARG184      0.0334
     93  CG         2.3970  -13.0490   -4.9520 C.3   184  ARG184      0.0492
     94  CD         2.1820  -14.3700   -4.1930 C.3   184  ARG184      0.2205
     95  NE         2.5990  -14.2720   -2.7930 N.pl3 184  ARG184     -0.0865
     96  CZ         2.6740  -15.3090   -1.9680 C.cat 184  ARG184      0.5346
     97  NH1        2.3540  -16.5200   -2.3970 N.pl3 184  ARG184      0.1354
     98  NH2        3.0530  -15.1400   -0.7130 N.pl3 184  ARG184      0.1354
     99  N          3.8290   -6.7350   -5.2560 N.3   187  GLY187     -0.1210
    100  CA         2.8420   -6.3360   -6.2450 C.3   187  GLY187      0.1956
    101  C          1.4640   -6.2290   -5.6250 C.2   187  GLY187      0.2611
    102  O          0.7350   -5.2740   -5.8780 O.2   187  GLY187     -0.2717
    103  N          1.1040   -7.2260   -4.8210 N.am  188  LYS188     -0.1979
    104  CA        -0.1510   -7.2190   -4.0750 C.3   188  LYS188      0.1596
    105  C         -0.2490   -5.9320   -3.2810 C.2   188  LYS188      0.2287
    106  O         -1.2640   -5.2370   -3.3140 O.2   188  LYS188     -0.2864
    107  CB        -0.2170   -8.3930   -3.0880 C.3   188  LYS188      0.0298
    108  CG        -0.6080   -9.7160   -3.6800 C.3   188  LYS188      0.0038
    109  CD        -1.1140  -10.6600   -2.5880 C.3   188  LYS188      0.0206
    110  CE        -0.1740  -10.6970   -1.3860 C.3   188  LYS188      0.1093
    111  NZ        -0.6930  -11.5860   -0.3030 N.3   188  LYS188     -0.1314
    112  N         -0.5650   -2.7600   -5.5990 N.3   191  SER191     -0.1217
    113  CA        -1.9450   -2.7360   -6.1060 C.3   191  SER191      0.1889
    114  C         -2.9630   -2.2050   -5.0760 C.2   191  SER191      0.2288
    115  O         -3.8040   -1.3620   -5.3960 O.2   191  SER191     -0.2866
    116  CB        -2.3650   -4.1230   -6.6210 C.3   191  SER191      0.2089
    117  OG        -3.7070   -4.1560   -7.0840 O.3   191  SER191     -0.2183
@<TRIPOS>BOND
     1     9    10    1
     2    26    25    1
     3    17    18    1
     4    27    25    1
     5    56    54    1
     6    11    10    1
     7    11    12    2
     8    25    24    2
     9    51    52    2
    10    51    50    1
    11    53    54    1
    12    53    50    1
    13    10    13    1
    14     8     6    1
    15    54    55    1
    16    18    21    1
    17    18    19    1
    18    41    40    2
    19    13    14    1
    20    13    15    1
    21    22    21    1
    22    22    23    1
    23    31    30    2
    24    50    49    1
    25    30    29    1
    26    24    23    1
    27    14    16    1
    28    28    19   am
    29    28    29    1
    30     7     6    1
    31    70    71    2
    32    70    69    1
    33     6     5    1
    34    19    20    2
    35    72    69    1
    36    72    73    1
    37    40    39    1
    38    29    32    1
    39    59    60    2
    40    59    58    1
    41    38    39    1
    42    69    68    1
    43    57    58    1
    44    73    75   ar
    45    73    74   ar
    46    39    42    1
    47     5     2    1
    48    32    33    1
    49    42    43    1
    50    58    61    1
    51    75    77   ar
    52     2     1    1
    53     2     3    1
    54    34    33   ar
    55    34    36   ar
    56    61    62    1
    57    74    76   ar
    58    44    43   ar
    59    44    46   ar
    60    33    35   ar
    61     3     4    2
    62    43    45   ar
    63    77    78   ar
    64    36    37   ar
    65    76    78   ar
    66    46    48   ar
    67    78    79    1
    68    62    64   ar
    69    62    63   ar
    70    45    47   ar
    71    64    66   ar
    72    35    37   ar
    73    48    47   ar
    74    63    65   ar
    75    66    67   ar
    76    87    85    1
    77    85    84    1
    78    85    86    1
    79    65    67   ar
    80    84    81    1
    81   117   116    1
    82   116   113    1
    83   100   101    1
    84   100    99    1
    85   113   112    1
    86   113   114    1
    87   102   101    2
    88    81    82    1
    89    81    80    1
    90    83    82    2
    91    82    88   am
    92   101   103   am
    93    88    89    1
    94   115   114    2
    95    89    92    1
    96    89    90    1
    97    92    93    1
    98    93    94    1
    99   103   104    1
   100    91    90    2
   101    94    95    1
   102   104   105    1
   103   104   107    1
   104   108   107    1
   105   108   109    1
   106   106   105    2
   107    95    96    2
   108   109   110    1
   109    97    96    1
   110    96    98    1
   111   110   111    1
