@<TRIPOS>MOLECULE
tmp/4z69A06.pdb
 149 140 0 0 0
SMALL
GASTEIGER

@<TRIPOS>ATOM
      1  N         -5.0700    4.7790   -1.7080 N.3   197  LYS197     -0.1245
      2  CA        -4.8130    6.2200   -1.7420 C.3   197  LYS197      0.1561
      3  C         -5.8950    6.9450   -2.5260 C.2   197  LYS197      0.2260
      4  O         -6.2520    8.0800   -2.2080 O.2   197  LYS197     -0.2867
      5  CB        -3.4380    6.5440   -2.3360 C.3   197  LYS197      0.0271
      6  CG        -2.2660    6.1590   -1.4510 C.3   197  LYS197      0.0035
      7  CD        -0.9440    6.5680   -2.0920 C.3   197  LYS197      0.0206
      8  CE         0.2340    6.0340   -1.2910 C.3   197  LYS197      0.1093
      9  NZ         1.5640    6.3290   -1.9120 N.3   197  LYS197     -0.1314
     10  N         -5.7010   15.0790    1.6880 N.3   209  PHE209     -0.1241
     11  CA        -4.6370   14.4760    0.9120 C.3   209  PHE209      0.1605
     12  C         -3.4200   15.4140    0.8990 C.2   209  PHE209      0.2264
     13  O         -2.2950   14.9770    1.1230 O.2   209  PHE209     -0.2867
     14  CB        -5.0820   14.1050   -0.5100 C.3   209  PHE209      0.0534
     15  CG        -3.9650   13.5820   -1.3460 C.ar  209  PHE209     -0.0203
     16  CD1       -3.5950   12.2500   -1.2720 C.ar  209  PHE209     -0.0042
     17  CD2       -3.2440   14.4280   -2.1620 C.ar  209  PHE209     -0.0042
     18  CE1       -2.5440   11.7670   -2.0200 C.ar  209  PHE209     -0.0003
     19  CE2       -2.1920   13.9620   -2.9180 C.ar  209  PHE209     -0.0003
     20  CZ        -1.8390   12.6260   -2.8510 C.ar  209  PHE209     -0.0000
     21  N         -1.3690   15.1320    3.9420 N.3   212  TRP212     -0.1241
     22  CA        -0.6010   13.9110    3.9150 C.3   212  TRP212      0.1605
     23  C          0.6390   14.1680    3.0450 C.2   212  TRP212      0.2264
     24  O          1.7600   13.8650    3.4470 O.2   212  TRP212     -0.2867
     25  CB        -1.4780   12.7980    3.3620 C.3   212  TRP212      0.0550
     26  CG        -0.7680   11.5530    3.1840 C.ar  212  TRP212      0.0003
     27  CD1       -0.5130   10.6050    4.1360 C.ar  212  TRP212      0.0946
     28  CD2       -0.1740   11.0900    1.9820 C.ar  212  TRP212      0.0152
     29  NE1        0.2160    9.5790    3.5920 N.ar  212  TRP212     -0.2442
     30  CE2        0.4390    9.8520    2.2620 C.ar  212  TRP212      0.0810
     31  CE3       -0.0900   11.6060    0.6820 C.ar  212  TRP212      0.0012
     32  CZ2        1.1120    9.1090    1.2970 C.ar  212  TRP212      0.0191
     33  CZ3        0.5850   10.8780   -0.2770 C.ar  212  TRP212      0.0001
     34  CH2        1.1770    9.6400    0.0350 C.ar  212  TRP212      0.0015
     35  N          4.8050   13.9810    3.9760 N.3   216  ARG216     -0.1231
     36  CA         5.5740   13.0320    3.1930 C.3   216  ARG216      0.1694
     37  C          6.7270   13.6610    2.4120 C.2   216  ARG216      0.2591
     38  O          7.8460   13.1220    2.3810 O.2   216  ARG216     -0.2718
     39  CB         4.6150   12.3710    2.2150 C.3   216  ARG216      0.0321
     40  CG         5.1590   11.1440    1.5600 C.3   216  ARG216      0.0489
     41  CD         4.4340    9.9170    2.0390 C.3   216  ARG216      0.2205
     42  NE         4.7860    8.8440    1.1400 N.pl3 216  ARG216     -0.0865
     43  CZ         5.7000    7.9300    1.4240 C.cat 216  ARG216      0.5346
     44  NH1        6.3070    7.9530    2.6010 N.pl3 216  ARG216      0.1354
     45  NH2        5.9820    6.9800    0.5450 N.pl3 216  ARG216      0.1354
     46  N          6.4500   14.7900    1.7600 N.am  217  LEU217     -0.1980
     47  CA         7.4590   15.4700    0.9560 C.3   217  LEU217      0.1596
     48  C          8.4750   16.2040    1.8240 C.2   217  LEU217      0.2287
     49  O          9.6120   16.4030    1.3950 O.2   217  LEU217     -0.2864
     50  CB         6.8110   16.4540   -0.0040 C.3   217  LEU217      0.0297
     51  CG         6.0620   15.8560   -1.1940 C.3   217  LEU217      0.0022
     52  CD1        5.4240   16.9850   -2.0030 C.3   217  LEU217      0.0001
     53  CD2        7.0150   15.0490   -2.0540 C.3   217  LEU217      0.0001
     54  N         11.1390   13.8200    3.1920 N.3   220  ARG220     -0.1231
     55  CA        12.0370   13.4060    2.1300 C.3   220  ARG220      0.1694
     56  C         12.9730   14.5250    1.6910 C.2   220  ARG220      0.2592
     57  O         14.1270   14.2770    1.3240 O.2   220  ARG220     -0.2718
     58  CB        11.2140   12.9520    0.9310 C.3   220  ARG220      0.0321
     59  CG        12.0310   12.3490   -0.1940 C.3   220  ARG220      0.0489
     60  CD        12.4250   10.9330    0.1500 C.3   220  ARG220      0.2205
     61  NE        11.3900   10.2820    0.9420 N.pl3 220  ARG220     -0.0865
     62  CZ        10.5280    9.3890    0.4630 C.cat 220  ARG220      0.5346
     63  NH1       10.5730    9.0130   -0.8220 N.pl3 220  ARG220      0.1354
     64  NH2        9.6180    8.8670    1.2790 N.pl3 220  ARG220      0.1354
     65  N         12.4670   15.7550    1.7140 N.am  221  PHE221     -0.1976
     66  CA        13.2120   16.8900    1.1900 C.3   221  PHE221      0.1639
     67  C         13.3940   17.9800    2.2410 C.2   221  PHE221      0.2290
     68  O         13.0010   19.1360    2.0150 O.2   221  PHE221     -0.2864
     69  CB        12.4680   17.4620   -0.0020 C.3   221  PHE221      0.0560
     70  CG        12.1810   16.4480   -1.0670 C.ar  221  PHE221     -0.0200
     71  CD1       13.1370   15.5000   -1.4070 C.ar  221  PHE221     -0.0042
     72  CD2       10.9730   16.4590   -1.7470 C.ar  221  PHE221     -0.0042
     73  CE1       12.8930   14.5900   -2.4060 C.ar  221  PHE221     -0.0003
     74  CE2       10.7060   15.5360   -2.7450 C.ar  221  PHE221     -0.0003
     75  CZ        11.6640   14.6000   -3.0790 C.ar  221  PHE221     -0.0000
     76  N          5.2110   21.6470   -4.7620 N.3   232  LEU232     -0.1245
     77  CA         5.2220   20.2170   -5.0560 C.3   232  LEU232      0.1561
     78  C          3.9160   19.5620   -4.6020 C.2   232  LEU232      0.2260
     79  O          3.3380   18.7400   -5.3370 O.2   232  LEU232     -0.2867
     80  CB         6.4440   19.5330   -4.4250 C.3   232  LEU232      0.0270
     81  CG         7.7550   20.1350   -4.9270 C.3   232  LEU232      0.0019
     82  CD1        8.9160   19.8000   -4.0100 C.3   232  LEU232      0.0001
     83  CD2        8.0330   19.6980   -6.3500 C.3   232  LEU232      0.0001
     84  N          1.5070   17.5100   -6.9760 N.3   236  LEU236     -0.1245
     85  CA         1.2670   16.1230   -6.6070 C.3   236  LEU236      0.1561
     86  C         -0.2380   15.8420   -6.5060 C.2   236  LEU236      0.2260
     87  O         -0.7670   14.9150   -7.1230 O.2   236  LEU236     -0.2867
     88  CB         1.9300   15.8350   -5.2690 C.3   236  LEU236      0.0270
     89  CG         2.4780   14.4480   -5.0020 C.3   236  LEU236      0.0019
     90  CD1        1.8720   13.8780   -3.7270 C.3   236  LEU236      0.0001
     91  CD2        2.2410   13.5270   -6.1760 C.3   236  LEU236      0.0001
     92  N         -1.6210   15.4460   -9.8670 N.3   239  VAL239     -0.1245
     93  CA        -1.1660   14.1650  -10.4070 C.3   239  VAL239      0.1561
     94  C         -2.0410   13.0140   -9.8850 C.2   239  VAL239      0.2260
     95  O         -2.5530   12.1900  -10.6610 O.2   239  VAL239     -0.2867
     96  CB         0.3240   13.8890  -10.0400 C.3   239  VAL239      0.0252
     97  CG1        0.7280   12.4700  -10.4580 C.3   239  VAL239      0.0019
     98  CG2        1.2470   14.9390  -10.6830 C.3   239  VAL239      0.0019
     99  N          2.8860   12.8270  -14.3330 N.3   255  ARG255     -0.1245
    100  CA         3.9520   12.3940  -13.4390 C.3   255  ARG255      0.1563
    101  C          5.2970   12.8260  -14.0100 C.2   255  ARG255      0.2260
    102  O          6.1560   13.3050  -13.2810 O.2   255  ARG255     -0.2867
    103  CB         3.9360   10.8870  -13.2190 C.3   255  ARG255      0.0307
    104  CG         2.7280   10.3560  -12.4430 C.3   255  ARG255      0.0489
    105  CD         2.7550    8.8290  -12.4490 C.3   255  ARG255      0.2205
    106  NE         3.6050    8.2750  -11.3890 N.pl3 255  ARG255     -0.0865
    107  CZ         4.8350    7.8150  -11.5660 C.cat 255  ARG255      0.5346
    108  NH1        5.3710    7.8460  -12.7750 N.pl3 255  ARG255      0.1354
    109  NH2        5.5300    7.3220  -10.5420 N.pl3 255  ARG255      0.1354
    110  N          6.0230   16.5970  -13.4640 N.3   258  LEU258     -0.1231
    111  CA         6.4260   16.8630  -12.0930 C.3   258  LEU258      0.1693
    112  C          7.8740   16.4470  -11.8810 C.2   258  LEU258      0.2591
    113  O          8.6310   17.1490  -11.2220 O.2   258  LEU258     -0.2718
    114  CB         5.5180   16.1200  -11.1090 C.3   258  LEU258      0.0284
    115  CG         5.8150   16.4450   -9.6470 C.3   258  LEU258      0.0019
    116  CD1        6.2030   17.9160   -9.4910 C.3   258  LEU258      0.0001
    117  CD2        4.6520   16.0740   -8.7080 C.3   258  LEU258      0.0001
    118  N          8.2530   15.3000  -12.4400 N.am  259  ALA259     -0.1980
    119  CA         9.5950   14.7610  -12.2300 C.3   259  ALA259      0.1597
    120  C         10.6320   15.6530  -12.9140 C.2   259  ALA259      0.2287
    121  O         11.7110   15.8900  -12.3720 O.2   259  ALA259     -0.2864
    122  CB         9.6850   13.3180  -12.7300 C.3   259  ALA259      0.0319
    123  N         11.0250   18.7330  -10.7610 N.3   262  ILE262     -0.1245
    124  CA        11.8640   18.3980   -9.6360 C.3   262  ILE262      0.1561
    125  C         13.3340   18.3630  -10.0650 C.2   262  ILE262      0.2260
    126  O         14.2070   18.9140   -9.3880 O.2   262  ILE262     -0.2867
    127  CB        11.4270   17.0690   -9.0490 C.3   262  ILE262      0.0252
    128  CG1       10.0150   17.2160   -8.4530 C.3   262  ILE262      0.0019
    129  CG2       12.4160   16.5770   -8.0020 C.3   262  ILE262      0.0019
    130  CD1        9.6720   16.1280   -7.4460 C.3   262  ILE262      0.0001
    131  N         10.3210    9.4490  -12.4900 N.3   285  SER285     -0.1217
    132  CA         9.4180    9.7130  -11.3810 C.3   285  SER285      0.1889
    133  C          9.3910    8.5060  -10.4330 C.2   285  SER285      0.2288
    134  O          9.2850    8.6560   -9.2050 O.2   285  SER285     -0.2866
    135  CB         8.0070   10.0570  -11.8970 C.3   285  SER285      0.2089
    136  OG         7.4880    9.0570  -12.7600 O.3   285  SER285     -0.2183
    137  N         12.5260    8.8790   -8.3360 N.3   288  ILE288     -0.1231
    138  CA        12.3410    9.9760   -7.3880 C.3   288  ILE288      0.1692
    139  C         11.4590    9.5520   -6.2060 C.2   288  ILE288      0.2591
    140  O         11.6960    9.9700   -5.0730 O.2   288  ILE288     -0.2718
    141  CB        11.7690   11.2550   -8.0800 C.3   288  ILE288      0.0266
    142  CG1       12.7990   11.8790   -9.0430 C.3   288  ILE288      0.0019
    143  CG2       11.3250   12.3000   -7.0340 C.3   288  ILE288      0.0020
    144  CD1       12.1990   12.9770   -9.9720 C.3   288  ILE288      0.0001
    145  N         10.4550    8.7170   -6.4690 N.am  289  ALA289     -0.1980
    146  CA         9.5370    8.2540   -5.4220 C.3   289  ALA289      0.1597
    147  C         10.2420    7.3280   -4.4540 C.2   289  ALA289      0.2287
    148  O          9.9050    7.2650   -3.2820 O.2   289  ALA289     -0.2864
    149  CB         8.3400    7.5500   -6.0240 C.3   289  ALA289      0.0319
@<TRIPOS>BOND
     1    99   100    1
     2   101   100    1
     3   101   102    2
     4   110   111    1
     5   100   103    1
     6   103   104    1
     7   120   121    2
     8   120   119    1
     9   108   107    1
    10   136   135    1
    11   122   119    1
    12   131   132    1
    13   105   104    1
    14   105   106    1
    15   118   119    1
    16   118   112   am
    17   111   112    1
    18   111   114    1
    19   135   132    1
    20   112   113    2
    21   107   106    2
    22   107   109    1
    23   132   133    1
    24   114   115    1
    25   123   124    1
    26    98    96    1
    27    95    94    2
    28    97    96    1
    29   133   134    2
    30    93    96    1
    31    93    94    1
    32    93    92    1
    33   125   124    1
    34   125   126    2
    35   144   142    1
    36   115   116    1
    37   115   117    1
    38   124   127    1
    39   127   128    1
    40   127   129    1
    41   142   141    1
    42   128   130    1
    43   137   138    1
    44   141   138    1
    45   141   143    1
    46   138   139    1
    47    87    86    2
    48    84    85    1
    49    85    86    1
    50    85    88    1
    51   145   139   am
    52   145   146    1
    53    83    81    1
    54   139   140    2
    55    91    89    1
    56   149   146    1
    57   146   147    1
    58    79    78    2
    59    88    89    1
    60    77    76    1
    61    77    78    1
    62    77    80    1
    63    89    90    1
    64    81    80    1
    65    81    82    1
    66   147   148    2
    67    75    74   ar
    68    75    73   ar
    69    19    20   ar
    70    19    17   ar
    71    20    18   ar
    72    74    72   ar
    73     3     4    2
    74     3     2    1
    75    73    71   ar
    76     5     2    1
    77     5     6    1
    78    17    15   ar
    79     7     6    1
    80     7     8    1
    81    53    51    1
    82    18    16   ar
    83    52    51    1
    84     9     8    1
    85    72    70   ar
    86     2     1    1
    87    71    70   ar
    88    15    16   ar
    89    15    14    1
    90    51    50    1
    91    70    69    1
    92    63    62    1
    93    14    11    1
    94    33    34   ar
    95    33    31   ar
    96    59    60    1
    97    59    58    1
    98    50    47    1
    99    69    66    1
   100    34    32   ar
   101    60    61    1
   102    62    61    2
   103    62    64    1
   104    45    43    1
   105    31    28   ar
   106    12    11    1
   107    12    13    2
   108    11    10    1
   109    58    55    1
   110    47    46    1
   111    47    48    1
   112    42    43    2
   113    42    41    1
   114    66    65    1
   115    66    67    1
   116    32    30   ar
   117    57    56    2
   118    49    48    2
   119    43    44    1
   120    40    41    1
   121    40    39    1
   122    56    65   am
   123    56    55    1
   124    46    37   am
   125    28    30   ar
   126    28    26   ar
   127    68    67    2
   128    55    54    1
   129    39    36    1
   130    30    29   ar
   131    38    37    2
   132    37    36    1
   133    23    24    2
   134    23    22    1
   135    26    25    1
   136    26    27   ar
   137    36    35    1
   138    25    22    1
   139    29    27   ar
   140    22    21    1
