@<TRIPOS>MOLECULE
tmp/4z6hB00.pdb
 128 130 0 0 0
SMALL
GASTEIGER

@<TRIPOS>ATOM
      1  N        101.1860  185.0380   -2.2690 N.3    21  HIS21      -0.1226
      2  CA       101.8030  186.2370   -1.7200 C.3    21  HIS21       0.1752
      3  C        101.7560  186.2790   -0.2010 C.2    21  HIS21       0.2597
      4  O        102.2760  187.2100    0.3900 O.2    21  HIS21      -0.2718
      5  CB       101.1280  187.4890   -2.3030 C.3    21  HIS21       0.0759
      6  CG       101.4030  187.6920   -3.7630 C.ar   21  HIS21       0.0818
      7  ND1      102.6000  188.1930   -4.2320 N.ar   21  HIS21      -0.2268
      8  CD2      100.6440  187.4520   -4.8580 C.ar   21  HIS21       0.1154
      9  CE1      102.5680  188.2510   -5.5510 C.ar   21  HIS21       0.1986
     10  NE2      101.3920  187.8100   -5.9570 N.ar   21  HIS21      -0.2212
     11  N        101.1420  185.2840    0.4390 N.am   22  GLY22      -0.1942
     12  CA       101.0550  185.2490    1.9040 C.3    22  GLY22       0.2014
     13  C        100.2140  186.3700    2.5280 C.2    22  GLY22       0.2639
     14  O        100.4810  186.7860    3.6450 O.2    22  GLY22      -0.2714
     15  N         99.1790  186.8400    1.8350 N.am   23  PHE23      -0.1959
     16  CA        98.3510  187.9550    2.3510 C.3    23  PHE23       0.1771
     17  C         97.6230  187.5720    3.6020 C.2    23  PHE23       0.2620
     18  O         97.4190  188.3880    4.4790 O.2    23  PHE23      -0.2715
     19  CB        97.3030  188.4160    1.3210 C.3    23  PHE23       0.0574
     20  CG        97.8740  189.2090    0.1900 C.ar   23  PHE23      -0.0200
     21  CD1       98.6070  190.3570    0.4430 C.ar   23  PHE23      -0.0042
     22  CD2       97.6850  188.8170   -1.1180 C.ar   23  PHE23      -0.0042
     23  CE1       99.1580  191.0990   -0.5890 C.ar   23  PHE23      -0.0003
     24  CE2       98.2380  189.5450   -2.1620 C.ar   23  PHE23      -0.0003
     25  CZ        98.9630  190.6960   -1.8920 C.ar   23  PHE23      -0.0000
     26  N         97.2350  186.3080    3.6610 N.am   24  PHE24      -0.1960
     27  CA        96.4740  185.7520    4.7560 C.3    24  PHE24       0.1771
     28  C         97.3540  184.8550    5.6650 C.2    24  PHE24       0.2619
     29  O         96.8470  184.2390    6.5920 O.2    24  PHE24      -0.2715
     30  CB        95.3090  184.9620    4.1560 C.3    24  PHE24       0.0574
     31  CG        94.3450  185.8210    3.3630 C.ar   24  PHE24      -0.0200
     32  CD1       93.5350  186.7290    4.0150 C.ar   24  PHE24      -0.0042
     33  CD2       94.3150  185.7700    1.9870 C.ar   24  PHE24      -0.0042
     34  CE1       92.6670  187.5380    3.3280 C.ar   24  PHE24      -0.0003
     35  CE2       93.4360  186.5940    1.2670 C.ar   24  PHE24      -0.0003
     36  CZ        92.6170  187.4850    1.9460 C.ar   24  PHE24      -0.0000
     37  N         98.6570  184.8080    5.3880 N.am   25  ALA25      -0.1963
     38  CA        99.6610  184.1180    6.2360 C.3    25  ALA25       0.1728
     39  C         99.5960  184.4220    7.7550 C.2    25  ALA25       0.2616
     40  O         99.6420  183.4990    8.5730 O.2    25  ALA25      -0.2715
     41  CB       101.0560  184.4560    5.7310 C.3    25  ALA25       0.0334
     42  N         99.5270  185.7010    8.1230 N.am   26  PHE26      -0.1960
     43  CA        99.5640  186.1370    9.5410 C.3    26  PHE26       0.1756
     44  C         98.5190  187.2340    9.7970 C.2    26  PHE26       0.2461
     45  O         97.9220  187.7370    8.8270 O.2    26  PHE26      -0.2730
     46  CB       100.9720  186.6340    9.9030 C.3    26  PHE26       0.0574
     47  CG       102.0520  185.6370    9.6170 C.ar   26  PHE26      -0.0200
     48  CD1      102.3680  184.6670   10.5430 C.ar   26  PHE26      -0.0042
     49  CD2      102.7320  185.6680    8.4200 C.ar   26  PHE26      -0.0042
     50  CE1      103.3520  183.7410   10.2850 C.ar   26  PHE26      -0.0003
     51  CE2      103.7110  184.7490    8.1480 C.ar   26  PHE26      -0.0003
     52  CZ       104.0300  183.7830    9.0860 C.ar   26  PHE26      -0.0000
     53  N         98.2910  187.6290   11.0820 N.am   27  PRO27      -0.2716
     54  CA        97.2510  188.6250   11.3800 C.3    27  PRO27       0.1536
     55  C         97.4940  190.0280   10.8120 C.2    27  PRO27       0.2598
     56  O         98.6350  190.4560   10.6340 O.2    27  PRO27      -0.2715
     57  CB        97.2360  188.6840   12.9130 C.3    27  PRO27       0.0310
     58  CG        97.8230  187.3970   13.3390 C.3    27  PRO27       0.0237
     59  CD        98.8900  187.1210   12.3290 C.3    27  PRO27       0.0939
     60  N         96.3940  190.7290   10.5410 N.am   28  VAL28      -0.1978
     61  CA        96.4250  192.0860   10.0010 C.3    28  VAL28       0.1596
     62  C         96.6060  193.0120   11.1800 C.2    28  VAL28       0.2287
     63  O         95.9590  192.7970   12.1970 O.2    28  VAL28      -0.2864
     64  CB        95.0860  192.4210    9.2860 C.3    28  VAL28       0.0276
     65  CG1       95.1210  193.8320    8.7170 C.3    28  VAL28       0.0022
     66  CG2       94.7800  191.3980    8.1880 C.3    28  VAL28       0.0022
     67  N         99.2990  198.2580    9.2410 N.3    32  ILE32      -0.1231
     68  CA        99.2510  197.8630    7.8320 C.3    32  ILE32       0.1692
     69  C         97.8770  198.1590    7.2080 C.2    32  ILE32       0.2591
     70  O         97.7700  198.3840    6.0000 O.2    32  ILE32      -0.2718
     71  CB        99.6140  196.3780    7.6640 C.3    32  ILE32       0.0266
     72  CG1      100.8420  196.0120    8.5260 C.3    32  ILE32       0.0019
     73  CG2       99.9330  196.0800    6.2060 C.3    32  ILE32       0.0020
     74  CD1      100.8520  194.5830    9.0230 C.3    32  ILE32       0.0001
     75  N         96.8340  198.1550    8.0450 N.am   33  ALA33      -0.1980
     76  CA        95.4590  198.4330    7.6260 C.3    33  ALA33       0.1597
     77  C         94.8180  199.4250    8.5820 C.2    33  ALA33       0.2287
     78  O         94.2140  199.0440    9.5820 O.2    33  ALA33      -0.2864
     79  CB        94.6480  197.1500    7.5780 C.3    33  ALA33       0.0319
     80  N         91.5280  198.9270   11.0430 N.3    36  TYR36      -0.1241
     81  CA        91.1700  197.5040   10.9620 C.3    36  TYR36       0.1605
     82  C         90.4400  197.0260   12.2320 C.2    36  TYR36       0.2264
     83  O         89.3320  196.5200   12.1460 O.2    36  TYR36      -0.2867
     84  CB        92.3840  196.6010   10.7240 C.3    36  TYR36       0.0534
     85  CG        91.9820  195.2060   10.2600 C.ar   36  TYR36      -0.0201
     86  CD1       91.5880  194.9960    8.9530 C.ar   36  TYR36      -0.0009
     87  CD2       91.9550  194.1180   11.1570 C.ar   36  TYR36      -0.0009
     88  CE1       91.2090  193.7310    8.4780 C.ar   36  TYR36       0.0417
     89  CE2       91.5670  192.8430   10.7120 C.ar   36  TYR36       0.0417
     90  CZ        91.2000  192.6420    9.3660 C.ar   36  TYR36       0.1957
     91  OH        90.7810  191.4100    8.8960 O.3    36  TYR36      -0.2866
     92  N         87.9950  189.9290    5.2440 N.3    75  ALA75      -0.1245
     93  CA        88.6530  190.6090    4.1440 C.3    75  ALA75       0.1562
     94  C         87.6550  191.3020    3.2340 C.2    75  ALA75       0.2260
     95  O         87.9590  192.3550    2.7290 O.2    75  ALA75      -0.2867
     96  CB        89.4980  189.6450    3.3600 C.3    75  ALA75       0.0290
     97  N         86.2300  194.4130    5.3270 N.3    78  TYR78      -0.1227
     98  CA        87.1230  195.5620    5.5550 C.3    78  TYR78       0.1736
     99  C         87.5510  196.1960    4.2300 C.2    78  TYR78       0.2595
    100  O         87.6110  197.4140    4.1430 O.2    78  TYR78      -0.2718
    101  CB        88.3590  195.1710    6.3570 C.3    78  TYR78       0.0548
    102  CG        89.4000  196.2850    6.4410 C.ar   78  TYR78      -0.0200
    103  CD1       89.2410  197.3480    7.3190 C.ar   78  TYR78      -0.0009
    104  CD2       90.5140  196.2790    5.6120 C.ar   78  TYR78      -0.0009
    105  CE1       90.1850  198.3480    7.3980 C.ar   78  TYR78       0.0417
    106  CE2       91.4500  197.2830    5.6640 C.ar   78  TYR78       0.0417
    107  CZ        91.2710  198.3150    6.5560 C.ar   78  TYR78       0.1957
    108  OH        92.2070  199.3010    6.5890 O.3    78  TYR78      -0.2866
    109  N         87.8240  195.3850    3.2030 N.am   79  ASN79      -0.1974
    110  CA        88.2890  195.9150    1.8660 C.3    79  ASN79       0.1688
    111  C         87.2020  196.0550    0.8400 C.2    79  ASN79       0.2292
    112  O         86.2720  195.2660    0.8480 O.2    79  ASN79      -0.2864
    113  CB        89.3970  194.9840    1.3330 C.3    79  ASN79       0.1181
    114  CG        90.5510  194.8520    2.2810 C.2    79  ASN79       0.2629
    115  OD1       91.4340  195.6820    2.3050 O.2    79  ASN79      -0.2716
    116  ND2       90.5970  193.7490    3.0150 N.am   79  ASN79      -0.0877
    117  N         92.7620  192.3310   -1.9400 N.3    85  TYR85      -0.1241
    118  CA        92.4040  191.5310   -0.7530 C.3    85  TYR85       0.1605
    119  C         91.0050  190.9780   -0.8340 C.2    85  TYR85       0.2264
    120  O         90.8220  189.8060   -0.5350 O.2    85  TYR85      -0.2867
    121  CB        92.5600  192.3380    0.5300 C.3    85  TYR85       0.0534
    122  CG        93.9270  192.9370    0.6870 C.ar   85  TYR85      -0.0201
    123  CD1       94.9950  192.1520    1.0930 C.ar   85  TYR85      -0.0009
    124  CD2       94.1680  194.2670    0.3510 C.ar   85  TYR85      -0.0009
    125  CE1       96.2600  192.6900    1.2170 C.ar   85  TYR85       0.0417
    126  CE2       95.4290  194.8080    0.4570 C.ar   85  TYR85       0.0417
    127  CZ        96.4640  194.0190    0.8970 C.ar   85  TYR85       0.1957
    128  OH        97.7220  194.5400    1.0220 O.3    85  TYR85      -0.2866
@<TRIPOS>BOND
     1    10     9   ar
     2    10     8   ar
     3     9     7   ar
     4     8     6   ar
     5     7     6   ar
     6     6     5    1
     7     5     2    1
     8     1     2    1
     9    24    25   ar
    10    24    22   ar
    11   117   118    1
    12    25    23   ar
    13     2     3    1
    14    22    20   ar
    15   119   118    1
    16   119   120    2
    17   118   121    1
    18    23    21   ar
    19     3     4    2
    20     3    11   am
    21    20    21   ar
    22    20    19    1
    23   124   126   ar
    24   124   122   ar
    25    11    12    1
    26   126   127   ar
    27   121   122    1
    28   122   123   ar
    29   111   112    2
    30   111   110    1
    31   127   128    1
    32   127   125   ar
    33   123   125   ar
    34    35    36   ar
    35    35    33   ar
    36    19    16    1
    37   113   110    1
    38   113   114    1
    39    15    16    1
    40    15    13   am
    41   110   109    1
    42    12    13    1
    43    36    34   ar
    44    33    31   ar
    45   114   115    2
    46   114   116   am
    47    16    17    1
    48    13    14    2
    49    95    94    2
    50   109    99   am
    51    94    93    1
    52    34    32   ar
    53    96    93    1
    54    31    32   ar
    55    31    30    1
    56    17    26   am
    57    17    18    2
    58    26    27    1
    59   100    99    2
    60    93    92    1
    61    30    27    1
    62    99    98    1
    63    27    28    1
    64    97    98    1
    65    37    28   am
    66    37    38    1
    67    98   101    1
    68   104   106   ar
    69   104   102   ar
    70   106   107   ar
    71    28    29    2
    72    41    38    1
    73    70    69    2
    74    73    71    1
    75    38    39    1
    76   101   102    1
    77   102   103   ar
    78   107   108    1
    79   107   105   ar
    80    69    68    1
    81    69    75   am
    82   103   105   ar
    83    79    76    1
    84    76    75    1
    85    76    77    1
    86    71    68    1
    87    71    72    1
    88    39    42   am
    89    39    40    2
    90    68    67    1
    91    42    43    1
    92    51    49   ar
    93    51    52   ar
    94    66    64    1
    95    49    47   ar
    96    88    86   ar
    97    88    90   ar
    98    72    74    1
    99    77    78    2
   100    65    64    1
   101    45    44    2
   102    91    90    1
   103    86    85   ar
   104    52    50   ar
   105    64    61    1
   106    90    89   ar
   107    43    44    1
   108    43    46    1
   109    47    46    1
   110    47    48   ar
   111    44    53   am
   112    61    60    1
   113    61    62    1
   114    85    84    1
   115    85    87   ar
   116    50    48   ar
   117    60    55   am
   118    56    55    2
   119    89    87   ar
   120    84    81    1
   121    55    54    1
   122    81    80    1
   123    81    82    1
   124    53    54    1
   125    53    59    1
   126    62    63    2
   127    54    57    1
   128    83    82    2
   129    59    58    1
   130    57    58    1
