@<TRIPOS>MOLECULE
tmp/4z6iB00.pdb
 142 145 0 0 0
SMALL
GASTEIGER

@<TRIPOS>ATOM
      1  N         69.1370    3.7020  -10.4190 N.3    21  HIS21      -0.1226
      2  CA        68.8610    2.9530  -11.6400 C.3    21  HIS21       0.1752
      3  C         69.0700    1.4190  -11.4940 C.2    21  HIS21       0.2597
      4  O         68.7360    0.6720  -12.3870 O.2    21  HIS21      -0.2718
      5  CB        69.7360    3.4430  -12.7780 C.3    21  HIS21       0.0759
      6  CG        69.5190    4.8830  -13.1000 C.ar   21  HIS21       0.0818
      7  ND1       68.3200    5.3490  -13.6020 N.ar   21  HIS21      -0.2268
      8  CD2       70.3070    5.9680  -12.9270 C.ar   21  HIS21       0.1154
      9  CE1       68.3950    6.6580  -13.7730 C.ar   21  HIS21       0.1986
     10  NE2       69.5790    7.0630  -13.3480 N.ar   21  HIS21      -0.2212
     11  N         69.6360    0.9580  -10.4060 N.am   22  GLY22      -0.1942
     12  CA        69.7670   -0.4900  -10.2210 C.3    22  GLY22       0.2014
     13  C         70.9060   -1.0360  -11.0490 C.2    22  GLY22       0.2639
     14  O         70.9060   -2.2030  -11.3970 O.2    22  GLY22      -0.2714
     15  N         71.9090   -0.2270  -11.3900 N.am   23  PHE23      -0.1959
     16  CA        73.0730   -0.7020  -12.1200 C.3    23  PHE23       0.1771
     17  C         73.7330   -1.9810  -11.4670 C.2    23  PHE23       0.2620
     18  O         74.1800   -2.8630  -12.1930 O.2    23  PHE23      -0.2715
     19  CB        74.1970    0.3440  -12.1840 C.3    23  PHE23       0.0574
     20  CG        73.9210    1.5510  -13.0540 C.ar   23  PHE23      -0.0200
     21  CD1       72.8100    1.6140  -13.9030 C.ar   23  PHE23      -0.0042
     22  CD2       74.7660    2.6460  -12.9580 C.ar   23  PHE23      -0.0042
     23  CE1       72.6050    2.7230  -14.7430 C.ar   23  PHE23      -0.0003
     24  CE2       74.5630    3.7840  -13.7490 C.ar   23  PHE23      -0.0003
     25  CZ        73.4670    3.8150  -14.6270 C.ar   23  PHE23      -0.0000
     26  N         73.7640   -1.9790  -10.1380 N.am   24  PHE24      -0.1960
     27  CA        74.4460   -2.9700   -9.2880 C.3    24  PHE24       0.1771
     28  C         73.4730   -3.9130   -8.5590 C.2    24  PHE24       0.2619
     29  O         73.8820   -4.6660   -7.7010 O.2    24  PHE24      -0.2715
     30  CB        75.4900   -2.2940   -8.3650 C.3    24  PHE24       0.0574
     31  CG        76.4580   -1.4020   -9.1190 C.ar   24  PHE24      -0.0200
     32  CD1       77.2570   -1.8900  -10.0740 C.ar   24  PHE24      -0.0042
     33  CD2       76.4940   -0.0340   -8.9050 C.ar   24  PHE24      -0.0042
     34  CE1       78.1320   -1.0570  -10.7760 C.ar   24  PHE24      -0.0003
     35  CE2       77.3430    0.7930   -9.6110 C.ar   24  PHE24      -0.0003
     36  CZ        78.1720    0.2630  -10.5540 C.ar   24  PHE24      -0.0000
     37  N         72.2110   -3.9630   -9.0200 N.am   25  ALA25      -0.1963
     38  CA        71.1310   -4.6370   -8.2570 C.3    25  ALA25       0.1728
     39  C         71.2570   -6.1560   -8.5070 C.2    25  ALA25       0.2616
     40  O         70.8000   -6.9640   -7.6990 O.2    25  ALA25      -0.2715
     41  CB        69.7760   -4.1150   -8.7370 C.3    25  ALA25       0.0334
     42  N         71.8260   -6.5420   -9.6570 N.am   26  PHE26      -0.1960
     43  CA        71.8650   -7.9470  -10.0630 C.3    26  PHE26       0.1756
     44  C         73.1530   -8.3310  -10.7850 C.2    26  PHE26       0.2461
     45  O         73.8660   -7.4090  -11.2420 O.2    26  PHE26      -0.2730
     46  CB        70.5880   -8.2870  -10.9030 C.3    26  PHE26       0.0574
     47  CG        69.3600   -8.4250  -10.0500 C.ar   26  PHE26      -0.0200
     48  CD1       69.2990   -9.4140   -9.0660 C.ar   26  PHE26      -0.0042
     49  CD2       68.3500   -7.5600  -10.1780 C.ar   26  PHE26      -0.0042
     50  CE1       68.2140   -9.5100   -8.2400 C.ar   26  PHE26      -0.0003
     51  CE2       67.2290   -7.6800   -9.4010 C.ar   26  PHE26      -0.0003
     52  CZ        67.1760   -8.6580   -8.4100 C.ar   26  PHE26      -0.0000
     53  N         73.4730   -9.6500  -10.8420 N.am   27  PRO27      -0.2716
     54  CA        74.7850  -10.0350  -11.4130 C.3    27  PRO27       0.1536
     55  C         74.8540   -9.6300  -12.9090 C.2    27  PRO27       0.2598
     56  O         73.8770   -9.7580  -13.6300 O.2    27  PRO27      -0.2715
     57  CB        74.8590  -11.5540  -11.2690 C.3    27  PRO27       0.0310
     58  CG        73.8050  -11.8840  -10.1970 C.3    27  PRO27       0.0237
     59  CD        72.7360  -10.8090  -10.2890 C.3    27  PRO27       0.0939
     60  N         75.9930   -9.0950  -13.3070 N.am   28  VAL28      -0.1964
     61  CA        76.2080   -8.6140  -14.6700 C.3    28  VAL28       0.1727
     62  C         76.3380   -9.8880  -15.5700 C.2    28  VAL28       0.2616
     63  O         77.0360  -10.8720  -15.2350 O.2    28  VAL28      -0.2715
     64  CB        77.5180   -7.7880  -14.7260 C.3    28  VAL28       0.0290
     65  CG1       77.9170   -7.3630  -16.1590 C.3    28  VAL28       0.0023
     66  CG2       77.4500   -6.5920  -13.7500 C.3    28  VAL28       0.0023
     67  N         75.6350   -9.8790  -16.6880 N.am   29  THR29      -0.1951
     68  CA        75.5630  -11.0220  -17.6110 C.3    29  THR29       0.1897
     69  C         76.5820  -10.7220  -18.7310 C.2    29  THR29       0.2313
     70  O         76.8800   -9.5440  -19.0450 O.2    29  THR29      -0.2863
     71  CB        74.1410  -11.2120  -18.2040 C.3    29  THR29       0.1794
     72  OG1       73.7710  -10.0260  -18.9330 O.3    29  THR29      -0.2208
     73  CG2       73.0870  -11.5950  -17.1890 C.3    29  THR29       0.0378
     74  N         74.8460   -8.6990  -21.5080 N.3    32  ILE32      -0.1231
     75  CA        74.7790   -7.2810  -21.3790 C.3    32  ILE32       0.1692
     76  C         76.1540   -6.5940  -21.4160 C.2    32  ILE32       0.2592
     77  O         76.2080   -5.4050  -21.7670 O.2    32  ILE32      -0.2718
     78  CB        74.0200   -6.8500  -20.0920 C.3    32  ILE32       0.0266
     79  CG1       73.3700   -5.4670  -20.2710 C.3    32  ILE32       0.0019
     80  CG2       74.9120   -6.8660  -18.8530 C.3    32  ILE32       0.0020
     81  CD1       72.2600   -5.4350  -21.3570 C.3    32  ILE32       0.0001
     82  N         77.2000   -7.3290  -21.0200 N.am   33  ALA33      -0.1966
     83  CA        78.5830   -6.8420  -20.8510 C.3    33  ALA33       0.1713
     84  C         79.4900   -7.8890  -21.5170 C.2    33  ALA33       0.2458
     85  O         80.0310   -8.7370  -20.8210 O.2    33  ALA33      -0.2730
     86  CB        78.9380   -6.7270  -19.3540 C.3    33  ALA33       0.0333
     87  N         79.7260   -7.7730  -22.8180 N.am   34  PRO34      -0.2727
     88  CA        80.4760   -8.8170  -23.5080 C.3    34  PRO34       0.1402
     89  C         81.8430   -9.0470  -22.9160 C.2    34  PRO34       0.2269
     90  O         82.5290   -8.0610  -22.5670 O.2    34  PRO34      -0.2865
     91  CB        80.7090   -8.2180  -24.8930 C.3    34  PRO34       0.0296
     92  CG        79.5880   -7.2710  -25.1310 C.3    34  PRO34       0.0237
     93  CD        79.0670   -6.8660  -23.7860 C.3    34  PRO34       0.0939
     94  N         82.5080  -10.0980  -20.0060 N.3    36  TYR36      -0.1241
     95  CA        82.5750   -9.8060  -18.5360 C.3    36  TYR36       0.1605
     96  C         83.1880  -10.9640  -17.7310 C.2    36  TYR36       0.2264
     97  O         84.1870  -10.7990  -17.0050 O.2    36  TYR36      -0.2867
     98  CB        81.1760   -9.5330  -17.9980 C.3    36  TYR36       0.0534
     99  CG        81.2320   -8.8680  -16.6530 C.ar   36  TYR36      -0.0201
    100  CD1       81.4080   -7.4820  -16.5500 C.ar   36  TYR36      -0.0009
    101  CD2       80.9820   -9.6020  -15.5100 C.ar   36  TYR36      -0.0009
    102  CE1       81.4970   -6.8690  -15.3260 C.ar   36  TYR36       0.0417
    103  CE2       81.0360   -8.9950  -14.2390 C.ar   36  TYR36       0.0417
    104  CZ        81.3090   -7.6470  -14.1380 C.ar   36  TYR36       0.1957
    105  OH        81.2610   -7.0800  -12.8710 O.3    36  TYR36      -0.2866
    106  N         83.4990   -3.2710  -11.2690 N.3    75  ALA75      -0.1245
    107  CA        82.9960   -2.2160  -12.1990 C.3    75  ALA75       0.1562
    108  C         84.0650   -1.3450  -12.7270 C.2    75  ALA75       0.2260
    109  O         84.0140   -0.9660  -13.9070 O.2    75  ALA75      -0.2867
    110  CB        81.9140   -1.3360  -11.5330 C.3    75  ALA75       0.0290
    111  N         86.3170   -3.6690  -15.3030 N.3    78  TYR78      -0.1227
    112  CA        85.7150   -4.0110  -16.5940 C.3    78  TYR78       0.1736
    113  C         85.3730   -2.8220  -17.4370 C.2    78  TYR78       0.2595
    114  O         85.5740   -2.8800  -18.6480 O.2    78  TYR78      -0.2718
    115  CB        84.4460   -4.8950  -16.3910 C.3    78  TYR78       0.0548
    116  CG        83.7280   -5.1520  -17.6730 C.ar   78  TYR78      -0.0200
    117  CD1       84.1310   -6.1930  -18.5410 C.ar   78  TYR78      -0.0009
    118  CD2       82.6790   -4.3650  -18.0600 C.ar   78  TYR78      -0.0009
    119  CE1       83.4990   -6.3700  -19.7570 C.ar   78  TYR78       0.0417
    120  CE2       82.0150   -4.5750  -19.2510 C.ar   78  TYR78       0.0417
    121  CZ        82.4510   -5.5960  -20.1040 C.ar   78  TYR78       0.1957
    122  OH        81.8250   -5.7900  -21.2620 O.3    78  TYR78      -0.2866
    123  N         84.8060   -1.7530  -16.8490 N.am   79  ASN79      -0.1974
    124  CA        84.2990   -0.6240  -17.6200 C.3    79  ASN79       0.1688
    125  C         85.3320    0.4410  -17.7240 C.2    79  ASN79       0.2292
    126  O         86.1350    0.6360  -16.8000 O.2    79  ASN79      -0.2864
    127  CB        83.1220   -0.0560  -16.9020 C.3    79  ASN79       0.1181
    128  CG        81.9830   -1.0190  -16.8000 C.2    79  ASN79       0.2629
    129  OD1       81.3370   -1.3110  -17.7950 O.2    79  ASN79      -0.2716
    130  ND2       81.6700   -1.4780  -15.5950 N.am   79  ASN79      -0.0877
    131  N         78.9570    3.4940  -15.3880 N.3    85  TYR85      -0.1241
    132  CA        79.2210    2.3450  -14.4860 C.3    85  TYR85       0.1605
    133  C         80.4840    2.5370  -13.6580 C.2    85  TYR85       0.2264
    134  O         80.4690    2.4190  -12.4460 O.2    85  TYR85      -0.2867
    135  CB        79.2780    1.0420  -15.2980 C.3    85  TYR85       0.0534
    136  CG        78.0510    0.8190  -16.1750 C.ar   85  TYR85      -0.0201
    137  CD1       76.8020    0.7010  -15.5900 C.ar   85  TYR85      -0.0009
    138  CD2       78.1280    0.8000  -17.5820 C.ar   85  TYR85      -0.0009
    139  CE1       75.6630    0.5240  -16.3500 C.ar   85  TYR85       0.0417
    140  CE2       76.9720    0.6530  -18.4020 C.ar   85  TYR85       0.0417
    141  CZ        75.7520    0.5250  -17.7660 C.ar   85  TYR85       0.1957
    142  OH        74.5800    0.3340  -18.4320 O.3    85  TYR85      -0.2866
@<TRIPOS>BOND
     1    92    91    1
     2    92    93    1
     3    91    88    1
     4    93    87    1
     5    88    89    1
     6    88    87    1
     7    89    90    2
     8    87    84   am
     9    77    76    2
    10    84    83    1
    11    84    85    2
    12    74    75    1
    13    76    75    1
    14    76    82   am
    15    75    78    1
    16    81    79    1
    17   122   121    1
    18    82    83    1
    19    83    86    1
    20    79    78    1
    21   121   119   ar
    22   121   120   ar
    23    78    80    1
    24    94    95    1
    25   119   117   ar
    26   120   118   ar
    27    70    69    2
    28    72    71    1
    29    69    68    1
    30   114   113    2
    31   117   116   ar
    32    95    98    1
    33    95    96    1
    34   142   141    1
    35   140   141   ar
    36   140   138   ar
    37    71    68    1
    38    71    73    1
    39   118   116   ar
    40    98    99    1
    41   129   128    2
    42   141   139   ar
    43    96    97    2
    44   125   124    1
    45   125   126    2
    46   116   115    1
    47   124   127    1
    48   124   123    1
    49    68    67    1
    50   138   136   ar
    51   113   123   am
    52   113   112    1
    53   127   128    1
    54   128   130   am
    55    67    62   am
    56    99   100   ar
    57    99   101   ar
    58   112   115    1
    59   112   111    1
    60   100   102   ar
    61   139   137   ar
    62   136   137   ar
    63   136   135    1
    64    65    64    1
    65    62    63    2
    66    62    61    1
    67   101   103   ar
    68   131   132    1
    69   102   104   ar
    70   135   132    1
    71    23    25   ar
    72    23    21   ar
    73    64    61    1
    74    64    66    1
    75    61    60    1
    76    25    24   ar
    77   132   133    1
    78   103   104   ar
    79   104   105    1
    80   109   108    2
    81    21    20   ar
    82     9     7   ar
    83     9    10   ar
    84    24    22   ar
    85   133   134    2
    86    56    55    2
    87     7     6   ar
    88    10     8   ar
    89    60    55   am
    90     6     8   ar
    91     6     5    1
    92    20    22   ar
    93    20    19    1
    94    55    54    1
    95     5     2    1
    96   108   107    1
    97     4     3    2
    98   107   110    1
    99   107   106    1
   100    18    17    2
   101    19    16    1
   102    16    17    1
   103    16    15    1
   104     2     3    1
   105     2     1    1
   106     3    11   am
   107    17    26   am
   108    54    57    1
   109    54    53    1
   110    14    13    2
   111    15    13   am
   112    57    58    1
   113    45    44    2
   114    13    12    1
   115    46    43    1
   116    46    47    1
   117    53    44   am
   118    53    59    1
   119    44    43    1
   120    34    36   ar
   121    34    32   ar
   122    36    35   ar
   123    11    12    1
   124    59    58    1
   125    49    47   ar
   126    49    51   ar
   127    26    27    1
   128    32    31   ar
   129    43    42    1
   130    47    48   ar
   131    42    39   am
   132    35    33   ar
   133    51    52   ar
   134    27    28    1
   135    27    30    1
   136    31    33   ar
   137    31    30    1
   138    48    50   ar
   139    37    28   am
   140    37    38    1
   141    41    38    1
   142    28    29    2
   143    39    38    1
   144    39    40    2
   145    52    50   ar
