@<TRIPOS>MOLECULE
tmp/4z6oB00.pdb
 145 136 0 0 0
SMALL
GASTEIGER

@<TRIPOS>ATOM
      1  N          2.1260   20.7420  -11.9520 N.3    20  GLU20      -0.1245
      2  CA         1.0970   19.7170  -12.0890 C.3    20  GLU20       0.1567
      3  C          1.8070   18.3740  -11.9910 C.2    20  GLU20       0.2260
      4  O          2.6560   18.0530  -12.8300 O.2    20  GLU20      -0.2867
      5  CB         0.3470   19.8290  -13.4030 C.3    20  GLU20       0.0388
      6  CG        -0.6850   18.7080  -13.6010 C.3    20  GLU20       0.1160
      7  CD        -1.4820   18.8130  -14.8930 C.2    20  GLU20       0.3649
      8  OE1       -1.0590   19.5240  -15.8410 O.co2  20  GLU20      -0.2457
      9  OE2       -2.5380   18.1110  -14.9950 O.co2  20  GLU20      -0.2457
     10  N          1.2210   14.2620  -11.9170 N.3    22  VAL22      -0.1245
     11  CA         0.3420   13.0840  -12.0540 C.3    22  VAL22       0.1561
     12  C          0.5600   12.1050  -10.8870 C.2    22  VAL22       0.2260
     13  O          1.7040   11.7830  -10.5010 O.2    22  VAL22      -0.2867
     14  CB         0.5500   12.3690  -13.3660 C.3    22  VAL22       0.0252
     15  CG1       -0.4340   11.1980  -13.5080 C.3    22  VAL22       0.0019
     16  CG2        0.3790   13.3630  -14.5240 C.3    22  VAL22       0.0019
     17  N         -8.8860   15.5980  -10.0390 N.3    48  GLN48      -0.1245
     18  CA        -7.8170   16.5360   -9.6860 C.3    48  GLN48       0.1566
     19  C         -8.0430   17.1650   -8.3510 C.2    48  GLN48       0.2260
     20  O         -9.1860   17.3980   -7.9410 O.2    48  GLN48      -0.2867
     21  CB        -7.7390   17.6710  -10.7190 C.3    48  GLN48       0.0367
     22  CG        -7.2860   17.2090  -12.0790 C.3    48  GLN48       0.0905
     23  CD        -7.3010   18.3460  -13.0770 C.2    48  GLN48       0.2608
     24  OE1       -8.2930   19.0720  -13.2270 O.2    48  GLN48      -0.2717
     25  NE2       -6.1860   18.5300  -13.7360 N.am   48  GLN48      -0.0878
     26  N         -3.1230   15.5020  -10.4750 N.3    65  THR65      -0.1203
     27  CA        -4.0060   15.0050  -11.5180 C.3    65  THR65       0.1994
     28  C         -3.8970   13.4930  -11.5210 C.2    65  THR65       0.2618
     29  O         -2.8020   12.9370  -11.6520 O.2    65  THR65      -0.2717
     30  CB        -3.5760   15.5670  -12.8880 C.3    65  THR65       0.1784
     31  OG1       -3.7430   16.9760  -12.8980 O.3    65  THR65      -0.2211
     32  CG2       -4.3490   14.9520  -14.0000 C.3    65  THR65       0.0376
     33  N         -5.0180   12.8080  -11.3960 N.am   66  LYS66      -0.1965
     34  CA        -4.9940   11.3360  -11.4670 C.3    66  LYS66       0.1728
     35  C         -4.5800   10.8430  -12.8460 C.2    66  LYS66       0.2617
     36  O         -5.1110   11.3210  -13.8570 O.2    66  LYS66      -0.2715
     37  CB        -6.3790   10.7880  -11.1470 C.3    66  LYS66       0.0311
     38  CG        -6.4700    9.2820  -11.2090 C.3    66  LYS66       0.0038
     39  CD        -7.6170    8.8360  -10.3220 C.3    66  LYS66       0.0206
     40  CE        -8.2870    7.5480  -10.7910 C.3    66  LYS66       0.1093
     41  NZ        -7.3290    6.5600  -11.3850 N.3    66  LYS66      -0.1314
     42  N         -3.7060    9.8510  -12.8980 N.am   67  GLY67      -0.1941
     43  CA        -3.2910    9.2480  -14.1560 C.3    67  GLY67       0.1998
     44  C         -2.6400    7.9100  -13.9340 C.2    67  GLY67       0.2481
     45  O         -2.4060    7.5250  -12.7820 O.2    67  GLY67      -0.2729
     46  N         -2.3100    7.2030  -15.0320 N.am   68  PRO68      -0.2715
     47  CA        -1.8500    5.8230  -14.8790 C.3    68  PRO68       0.1536
     48  C         -0.3660    5.7240  -14.4390 C.2    68  PRO68       0.2598
     49  O          0.0430    4.7300  -13.8250 O.2    68  PRO68      -0.2715
     50  CB        -2.0860    5.2380  -16.2790 C.3    68  PRO68       0.0310
     51  CG        -1.8930    6.4170  -17.2010 C.3    68  PRO68       0.0237
     52  CD        -2.5550    7.5470  -16.4580 C.3    68  PRO68       0.0939
     53  N          0.4100    6.7590  -14.7180 N.am   69  VAL69      -0.1978
     54  CA         1.8520    6.7580  -14.4750 C.3    69  VAL69       0.1596
     55  C          2.2200    8.0640  -13.7610 C.2    69  VAL69       0.2287
     56  O          2.0660    9.1410  -14.3070 O.2    69  VAL69      -0.2864
     57  CB         2.6600    6.6300  -15.7920 C.3    69  VAL69       0.0276
     58  CG1        4.1700    6.6480  -15.5020 C.3    69  VAL69       0.0022
     59  CG2        2.2460    5.3590  -16.5530 C.3    69  VAL69       0.0022
     60  N          3.8360   16.5210  -14.9860 N.3    73  LYS73      -0.1245
     61  CA         3.2030   16.8950  -16.2420 C.3    73  LYS73       0.1561
     62  C          3.5240   18.3170  -16.7120 C.2    73  LYS73       0.2260
     63  O          3.6380   18.5570  -17.9170 O.2    73  LYS73      -0.2867
     64  CB         1.7070   16.7460  -16.1220 C.3    73  LYS73       0.0271
     65  CG         1.0450   16.8460  -17.5100 C.3    73  LYS73       0.0035
     66  CD        -0.3950   16.3110  -17.4850 C.3    73  LYS73       0.0206
     67  CE        -0.9990   16.2340  -18.8820 C.3    73  LYS73       0.1093
     68  NZ        -2.3770   15.7110  -18.7740 N.3    73  LYS73      -0.1314
     69  N          2.4580   24.0420  -27.2730 N.3   100  GLU100     -0.1245
     70  CA         1.0090   23.9250  -27.3190 C.3   100  GLU100      0.1567
     71  C          0.4230   25.1090  -26.5730 C.2   100  GLU100      0.2260
     72  O          0.7910   25.3910  -25.4080 O.2   100  GLU100     -0.2867
     73  CB         0.5100   22.6090  -26.6800 C.3   100  GLU100      0.0388
     74  CG        -0.9740   22.3610  -26.8650 C.3   100  GLU100      0.1160
     75  CD        -1.5140   21.0630  -26.2370 C.2   100  GLU100      0.3649
     76  OE1       -0.7240   20.2440  -25.7650 O.co2 100  GLU100     -0.2457
     77  OE2       -2.7560   20.8630  -26.2520 O.co2 100  GLU100     -0.2457
     78  N         -3.0530   27.0120  -25.2710 N.3   102  ARG102     -0.1245
     79  CA        -4.4900   26.9160  -24.9640 C.3   102  ARG102      0.1563
     80  C         -4.9920   28.2140  -24.3750 C.2   102  ARG102      0.2260
     81  O         -4.5820   28.5730  -23.2760 O.2   102  ARG102     -0.2867
     82  CB        -4.7770   25.7700  -23.9950 C.3   102  ARG102      0.0307
     83  CG        -4.5980   24.4000  -24.6300 C.3   102  ARG102      0.0489
     84  CD        -5.1350   23.2810  -23.7430 C.3   102  ARG102      0.2205
     85  NE        -4.7620   21.9880  -24.2830 N.pl3 102  ARG102     -0.0865
     86  CZ        -5.2170   20.8150  -23.8510 C.cat 102  ARG102      0.5346
     87  NH1       -6.1000   20.7540  -22.8770 N.pl3 102  ARG102      0.1354
     88  NH2       -4.7960   19.6960  -24.4230 N.pl3 102  ARG102      0.1354
     89  N         -4.6700   24.9130  -19.5140 N.3   106  PHE106     -0.1227
     90  CA        -4.5970   23.4660  -19.3680 C.3   106  PHE106      0.1736
     91  C         -5.2900   22.9420  -18.1060 C.2   106  PHE106      0.2595
     92  O         -5.8010   21.8150  -18.0920 O.2   106  PHE106     -0.2718
     93  CB        -3.1710   22.9690  -19.3910 C.3   106  PHE106      0.0547
     94  CG        -2.4970   23.1200  -20.7250 C.ar  106  PHE106     -0.0202
     95  CD1       -2.0290   24.3560  -21.1170 C.ar  106  PHE106     -0.0042
     96  CD2       -2.3380   22.0270  -21.5960 C.ar  106  PHE106     -0.0042
     97  CE1       -1.4020   24.5110  -22.3600 C.ar  106  PHE106     -0.0003
     98  CE2       -1.7150   22.1920  -22.8260 C.ar  106  PHE106     -0.0003
     99  CZ        -1.2370   23.4210  -23.1880 C.ar  106  PHE106     -0.0000
    100  N         -5.2490   23.7470  -17.0480 N.am  107  VAL107     -0.1980
    101  CA        -5.8200   23.3760  -15.7520 C.3   107  VAL107      0.1595
    102  C         -6.7220   24.5040  -15.3200 C.2   107  VAL107      0.2287
    103  O         -6.5930   25.6330  -15.7870 O.2   107  VAL107     -0.2864
    104  CB        -4.7000   23.0920  -14.7190 C.3   107  VAL107      0.0276
    105  CG1       -3.8190   21.9340  -15.1830 C.3   107  VAL107      0.0022
    106  CG2       -3.8820   24.3340  -14.4450 C.3   107  VAL107      0.0022
    107  N          2.3480   25.5570  -23.1050 N.3   115  ARG115     -0.1245
    108  CA         3.2240   24.5150  -22.6450 C.3   115  ARG115      0.1563
    109  C          4.2250   24.1180  -23.7530 C.2   115  ARG115      0.2260
    110  O          3.9340   24.1940  -24.9400 O.2   115  ARG115     -0.2867
    111  CB         2.4670   23.2820  -22.1680 C.3   115  ARG115      0.0307
    112  CG         1.7190   23.5360  -20.8950 C.3   115  ARG115      0.0489
    113  CD         1.0660   22.3040  -20.3130 C.3   115  ARG115      0.2205
    114  NE         0.4600   22.6410  -19.0320 N.pl3 115  ARG115     -0.0865
    115  CZ        -0.0500   21.7810  -18.1530 C.cat 115  ARG115      0.5346
    116  NH1       -0.0720   20.4610  -18.3840 N.pl3 115  ARG115      0.1354
    117  NH2       -0.5550   22.2520  -17.0280 N.pl3 115  ARG115      0.1354
    118  N          6.5960   14.0540  -18.2310 N.3   310  LEU310     -0.1245
    119  CA         5.8360   13.8080  -19.4560 C.3   310  LEU310      0.1561
    120  C          6.1390   14.8050  -20.5920 C.2   310  LEU310      0.2260
    121  O          6.5450   15.9590  -20.3690 O.2   310  LEU310     -0.2867
    122  CB         4.3440   13.7720  -19.1590 C.3   310  LEU310      0.0270
    123  CG         3.9350   12.8530  -18.0070 C.3   310  LEU310      0.0019
    124  CD1        2.4130   12.9230  -17.7740 C.3   310  LEU310      0.0001
    125  CD2        4.3370   11.3980  -18.2710 C.3   310  LEU310      0.0001
    126  N          4.2060   16.5370  -24.1540 N.3   312  LEU312     -0.1231
    127  CA         2.9160   17.2180  -24.3420 C.3   312  LEU312      0.1693
    128  C          1.7900   16.2690  -24.6940 C.2   312  LEU312      0.2592
    129  O          0.6340   16.5990  -24.4630 O.2   312  LEU312     -0.2718
    130  CB         3.0150   18.3260  -25.3960 C.3   312  LEU312      0.0284
    131  CG         3.8870   19.5090  -25.0310 C.3   312  LEU312      0.0019
    132  CD1        4.1660   20.4240  -26.2240 C.3   312  LEU312      0.0001
    133  CD2        3.3270   20.2630  -23.8360 C.3   312  LEU312      0.0001
    134  N          2.1110   15.0710  -25.1910 N.am  313  ASP313     -0.1960
    135  CA         1.0820   14.0310  -25.4030 C.3   313  ASP313      0.1840
    136  C          0.7300   13.2530  -24.1460 C.2   313  ASP313      0.2622
    137  O         -0.1790   12.4200  -24.1780 O.2   313  ASP313     -0.2715
    138  CB         1.5470   13.0200  -26.4770 C.3   313  ASP313      0.1450
    139  CG         1.9110   13.6760  -27.7640 C.2   313  ASP313      0.3671
    140  OD1        1.0790   14.4600  -28.2520 O.co2 313  ASP313     -0.2456
    141  OD2        3.0190   13.4100  -28.3020 O.co2 313  ASP313     -0.2456
    142  N          1.4480   13.5060  -23.0430 N.am  314  GLY314     -0.1954
    143  CA         1.2720   12.7440  -21.8110 C.3   314  GLY314      0.1869
    144  C          2.0780   11.4700  -21.7160 C.2   314  GLY314      0.2309
    145  O          1.8880   10.7100  -20.7810 O.2   314  GLY314     -0.2863
@<TRIPOS>BOND
     1   141   139   ar
     2   140   139   ar
     3   139   138    1
     4    70    69    1
     5    70    73    1
     6    70    71    1
     7    74    73    1
     8    74    75    1
     9    71    72    2
    10   138   135    1
    11    77    75   ar
    12    75    76   ar
    13   132   131    1
    14   135   134    1
    15   135   136    1
    16   130   131    1
    17   130   127    1
    18    78    79    1
    19   134   128   am
    20   131   133    1
    21    79    80    1
    22    79    82    1
    23   110   109    2
    24   128   129    2
    25   128   127    1
    26    83    82    1
    27    83    84    1
    28    88    86    1
    29    80    81    2
    30   127   126    1
    31    85    86    2
    32    85    84    1
    33   137   136    2
    34   136   142   am
    35    86    87    1
    36   109   108    1
    37    99    98   ar
    38    99    97   ar
    39   107   108    1
    40   142   143    1
    41    98    96   ar
    42   108   111    1
    43    97    95   ar
    44   111   112    1
    45   143   144    1
    46   144   145    2
    47    96    94   ar
    48    95    94   ar
    49   112   113    1
    50    94    93    1
    51   120   121    2
    52   120   119    1
    53   113   114    1
    54    89    90    1
    55   119   122    1
    56   119   118    1
    57    93    90    1
    58    90    91    1
    59   122   123    1
    60   114   115    2
    61    67    68    1
    62    67    66    1
    63   116   115    1
    64   125   123    1
    65   115   117    1
    66    91    92    2
    67    91   100   am
    68   123   124    1
    69    63    62    2
    70    65    66    1
    71    65    64    1
    72    51    52    1
    73    51    50    1
    74   100   101    1
    75    62    61    1
    76    59    57    1
    77    52    46    1
    78    50    47    1
    79    61    64    1
    80    61    60    1
    81     8     7   ar
    82    57    58    1
    83    57    54    1
    84   103   102    2
    85   101   102    1
    86   101   104    1
    87   105   104    1
    88    46    47    1
    89    46    44   am
    90     9     7   ar
    91     7     6    1
    92    47    48    1
    93   104   106    1
    94    53    54    1
    95    53    48   am
    96    16    14    1
    97    54    55    1
    98    48    49    2
    99    56    55    2
   100    43    44    1
   101    43    42    1
   102    32    30    1
   103    44    45    2
   104    36    35    2
   105    25    23   am
   106     6     5    1
   107    15    14    1
   108     5     2    1
   109    14    11    1
   110    24    23    2
   111    23    22    1
   112    42    35   am
   113    31    30    1
   114    30    27    1
   115    35    34    1
   116     4     3    2
   117     2     3    1
   118     2     1    1
   119    22    21    1
   120    11    10    1
   121    11    12    1
   122    29    28    2
   123    28    27    1
   124    28    33   am
   125    27    26    1
   126    34    33    1
   127    34    37    1
   128    41    40    1
   129    38    37    1
   130    38    39    1
   131    12    13    2
   132    40    39    1
   133    21    18    1
   134    17    18    1
   135    18    19    1
   136    19    20    2
