@<TRIPOS>MOLECULE
tmp/4z6zD01.pdb
 155 152 0 0 0
SMALL
GASTEIGER

@<TRIPOS>ATOM
      1  N         21.6990   16.3890   32.7250 N.3   152  HIS152     -0.1241
      2  CA        21.8830   14.9930   33.0820 C.3   152  HIS152      0.1621
      3  C         23.2310   14.4270   32.7080 C.2   152  HIS152      0.2264
      4  O         23.9910   15.0330   31.9470 O.2   152  HIS152     -0.2867
      5  CB        20.7760   14.1050   32.4870 C.3   152  HIS152      0.0745
      6  CG        20.8090   13.9870   30.9960 C.ar  152  HIS152      0.0817
      7  ND1       20.0380   14.7820   30.1750 N.ar  152  HIS152     -0.2268
      8  CD2       21.4740   13.1330   30.1860 C.ar  152  HIS152      0.1154
      9  CE1       20.2360   14.4250   28.9210 C.ar  152  HIS152      0.1986
     10  NE2       21.0980   13.4250   28.9000 N.ar  152  HIS152     -0.2212
     11  N         24.8860   10.4500   31.4440 N.3   154  ASN154     -0.1240
     12  CA        24.5460    9.1410   30.9030 C.3   154  ASN154      0.1653
     13  C         25.7610    8.2290   31.0450 C.2   154  ASN154      0.2266
     14  O         26.8720    8.5860   30.6160 O.2   154  ASN154     -0.2867
     15  CB        24.1080    9.2440   29.4370 C.3   154  ASN154      0.1155
     16  CG        23.6130    7.9190   28.8900 C.2   154  ASN154      0.2627
     17  OD1       24.3410    6.9410   28.8720 O.2   154  ASN154     -0.2716
     18  ND2       22.3450    7.8770   28.4650 N.am  154  ASN154     -0.0877
     19  N         16.3260    5.2740   31.9030 N.3   189  TRP189     -0.1241
     20  CA        16.4260    6.6830   32.2420 C.3   189  TRP189      0.1605
     21  C         15.7950    6.8740   33.6070 C.2   189  TRP189      0.2264
     22  O         14.7320    6.3160   33.8740 O.2   189  TRP189     -0.2867
     23  CB        15.6490    7.5090   31.2120 C.3   189  TRP189      0.0550
     24  CG        16.3520    7.6920   29.9050 C.ar  189  TRP189      0.0003
     25  CD1       17.0010    8.8220   29.4860 C.ar  189  TRP189      0.0946
     26  CD2       16.5130    6.7330   28.8480 C.ar  189  TRP189      0.0152
     27  NE1       17.5340    8.6330   28.2420 N.ar  189  TRP189     -0.2442
     28  CE2       17.2440    7.3700   27.8180 C.ar  189  TRP189      0.0810
     29  CE3       16.0690    5.4230   28.6460 C.ar  189  TRP189      0.0012
     30  CZ2       17.5620    6.7300   26.6190 C.ar  189  TRP189      0.0191
     31  CZ3       16.3840    4.7920   27.4600 C.ar  189  TRP189      0.0001
     32  CH2       17.1160    5.4510   26.4580 C.ar  189  TRP189      0.0015
     33  N         15.2950   12.7030   33.2750 N.3   197  HIS197     -0.1241
     34  CA        16.4100   12.0720   33.9610 C.3   197  HIS197      0.1621
     35  C         17.4110   13.0210   34.5480 C.2   197  HIS197      0.2264
     36  O         17.5410   14.1730   34.1070 O.2   197  HIS197     -0.2867
     37  CB        17.1230   11.0090   33.1060 C.3   197  HIS197      0.0745
     38  CG        17.6780   11.4810   31.7960 C.ar  197  HIS197      0.0817
     39  ND1       17.0190   12.3390   30.9450 N.ar  197  HIS197     -0.2268
     40  CD2       18.7870   11.0800   31.1310 C.ar  197  HIS197      0.1154
     41  CE1       17.7120   12.4690   29.8290 C.ar  197  HIS197      0.1986
     42  NE2       18.7730   11.6950   29.9100 N.ar  197  HIS197     -0.2212
     43  N         27.9440   10.5610   28.1790 N.3   211  HIS211     -0.1241
     44  CA        27.9030   12.0020   27.9340 C.3   211  HIS211      0.1621
     45  C         27.4530   12.7790   29.1480 C.2   211  HIS211      0.2264
     46  O         26.9380   12.1940   30.1020 O.2   211  HIS211     -0.2867
     47  CB        27.0130   12.3660   26.7230 C.3   211  HIS211      0.0745
     48  CG        25.5810   11.9260   26.8380 C.ar  211  HIS211      0.0817
     49  ND1       25.1400   10.7180   26.3550 N.ar  211  HIS211     -0.2268
     50  CD2       24.4770   12.5680   27.2880 C.ar  211  HIS211      0.1154
     51  CE1       23.8340   10.6090   26.5440 C.ar  211  HIS211      0.1986
     52  NE2       23.4100   11.7270   27.0950 N.ar  211  HIS211     -0.2212
     53  N         26.2510   13.2900   16.1530 N.3   240  ARG240     -0.1245
     54  CA        24.9200   12.7550   15.9620 C.3   240  ARG240      0.1563
     55  C         23.8990   13.8690   16.1750 C.2   240  ARG240      0.2260
     56  O         23.9830   14.6110   17.1330 O.2   240  ARG240     -0.2867
     57  CB        24.6430   11.6170   16.9680 C.3   240  ARG240      0.0307
     58  CG        23.2150   11.0730   16.8860 C.3   240  ARG240      0.0489
     59  CD        22.9070    9.8900   17.8080 C.3   240  ARG240      0.2205
     60  NE        21.4450    9.7320   17.8440 N.pl3 240  ARG240     -0.0865
     61  CZ        20.7030    9.3620   18.8740 C.cat 240  ARG240      0.5346
     62  NH1       21.2330    8.9090   20.0120 N.pl3 240  ARG240      0.1354
     63  NH2       19.3900    9.4050   18.7440 N.pl3 240  ARG240      0.1354
     64  N         14.3740   13.2260   20.0160 N.3   245  HIS245     -0.1241
     65  CA        14.4490   11.8960   20.6130 C.3   245  HIS245      0.1621
     66  C         13.0690   11.2670   20.6660 C.2   245  HIS245      0.2264
     67  O         12.0680   11.9720   20.7940 O.2   245  HIS245     -0.2867
     68  CB        14.9610   11.9590   22.0530 C.3   245  HIS245      0.0745
     69  CG        16.4360   12.1380   22.2100 C.ar  245  HIS245      0.0817
     70  ND1       17.3630   11.3010   21.6220 N.ar  245  HIS245     -0.2268
     71  CD2       17.1380   12.9800   23.0030 C.ar  245  HIS245      0.1154
     72  CE1       18.5770   11.6490   22.0060 C.ar  245  HIS245      0.1986
     73  NE2       18.4700   12.6620   22.8530 N.ar  245  HIS245     -0.2212
     74  N         12.4840    8.3530   23.0960 N.3   247  VAL247     -0.1231
     75  CA        12.6720    8.3790   24.5330 C.3   247  VAL247      0.1692
     76  C         12.9980    9.8230   24.9500 C.2   247  VAL247      0.2592
     77  O         13.9330   10.4350   24.4320 O.2   247  VAL247     -0.2718
     78  CB        13.8500    7.4800   24.9570 C.3   247  VAL247      0.0266
     79  CG1       14.1580    7.6630   26.4490 C.3   247  VAL247      0.0020
     80  CG2       13.5860    6.0060   24.6480 C.3   247  VAL247      0.0020
     81  N         12.2310   10.3420   25.8800 N.am  248  SER248     -0.1952
     82  CA        12.3300   11.7140   26.4170 C.3   248  SER248      0.1924
     83  C         11.6230   12.8080   25.6450 C.2   248  SER248      0.2314
     84  O         11.3480   13.8500   26.2250 O.2   248  SER248     -0.2863
     85  CB        13.7730   12.1540   26.7070 C.3   248  SER248      0.2116
     86  OG        14.4090   12.6480   25.5550 O.3   248  SER248     -0.2180
     87  N         24.5220   15.7880   19.6900 N.3   254  TYR254     -0.1241
     88  CA        25.7390   15.2830   20.3640 C.3   254  TYR254      0.1605
     89  C         26.9710   15.7990   19.6360 C.2   254  TYR254      0.2264
     90  O         27.1020   15.6350   18.4180 O.2   254  TYR254     -0.2867
     91  CB        25.7820   13.7680   20.4070 C.3   254  TYR254      0.0534
     92  CG        24.6260   13.1440   21.1330 C.ar  254  TYR254     -0.0201
     93  CD1       24.6570   12.9280   22.5120 C.ar  254  TYR254     -0.0009
     94  CD2       23.4940   12.7530   20.4380 C.ar  254  TYR254     -0.0009
     95  CE1       23.5820   12.3650   23.1710 C.ar  254  TYR254      0.0417
     96  CE2       22.4260   12.1690   21.0820 C.ar  254  TYR254      0.0417
     97  CZ        22.4670   11.9890   22.4440 C.ar  254  TYR254      0.1957
     98  OH        21.3980   11.4000   23.0620 O.3   254  TYR254     -0.2866
     99  N         26.0120   16.4080   25.1300 N.3   264  GLU264     -0.1245
    100  CA        24.6770   16.5130   24.5340 C.3   264  GLU264      0.1567
    101  C         24.1020   17.8820   24.8450 C.2   264  GLU264      0.2260
    102  O         24.2510   18.4100   25.9640 O.2   264  GLU264     -0.2867
    103  CB        23.7290   15.4250   25.0600 C.3   264  GLU264      0.0388
    104  CG        22.3830   15.3740   24.3240 C.3   264  GLU264      0.1160
    105  CD        21.4050   14.3720   24.8790 C.2   264  GLU264      0.3649
    106  OE1       21.7270   13.7770   25.9220 O.co2 264  GLU264     -0.2457
    107  OE2       20.3250   14.1600   24.2670 O.co2 264  GLU264     -0.2457
    108  N         20.3000   19.6300   24.7340 N.3   266  TYR266     -0.1241
    109  CA        19.0190   18.9590   24.9760 C.3   266  TYR266      0.1605
    110  C         17.9570   20.0180   25.3320 C.2   266  TYR266      0.2264
    111  O         18.2420   20.9710   26.0720 O.2   266  TYR266     -0.2867
    112  CB        19.2670   18.0060   26.1630 C.3   266  TYR266      0.0534
    113  CG        18.1760   17.1320   26.7070 C.ar  266  TYR266     -0.0201
    114  CD1       17.3650   17.5780   27.7500 C.ar  266  TYR266     -0.0009
    115  CD2       18.0330   15.8060   26.2900 C.ar  266  TYR266     -0.0009
    116  CE1       16.4160   16.7510   28.3250 C.ar  266  TYR266      0.0417
    117  CE2       17.0850   14.9690   26.8720 C.ar  266  TYR266      0.0417
    118  CZ        16.2720   15.4470   27.8800 C.ar  266  TYR266      0.1957
    119  OH        15.3190   14.6170   28.4590 O.3   266  TYR266     -0.2866
    120  N         12.6630    5.1350   18.2680 N.3   289  ARG289     -0.1231
    121  CA        12.8840    5.1980   19.7290 C.3   289  ARG289      0.1694
    122  C         13.9880    6.1790   20.1160 C.2   289  ARG289      0.2591
    123  O         13.9130    6.8210   21.1560 O.2   289  ARG289     -0.2718
    124  CB        13.1640    3.7950   20.3160 C.3   289  ARG289      0.0321
    125  CG        14.5630    3.3180   20.0380 C.3   289  ARG289      0.0489
    126  CD        14.8100    1.8330   20.2020 C.3   289  ARG289      0.2205
    127  NE        16.2110    1.5910   19.8870 N.pl3 289  ARG289     -0.0865
    128  CZ        16.7360    1.6120   18.6640 C.cat 289  ARG289      0.5346
    129  NH1       15.9720    1.7760   17.6030 N.pl3 289  ARG289      0.1354
    130  NH2       18.0300    1.4530   18.5050 N.pl3 289  ARG289      0.1354
    131  N         15.0270    6.2750   19.2980 N.am  290  ARG290     -0.1980
    132  CA        16.1740    7.1280   19.6130 C.3   290  ARG290      0.1597
    133  C         16.1400    8.4480   18.8490 C.2   290  ARG290      0.2287
    134  O         16.3450    9.5310   19.4230 O.2   290  ARG290     -0.2864
    135  CB        17.5090    6.3950   19.4380 C.3   290  ARG290      0.0334
    136  CG        17.7050    5.2950   20.4750 C.3   290  ARG290      0.0492
    137  CD        19.1700    5.0280   20.7530 C.3   290  ARG290      0.2205
    138  NE        19.4150    4.0540   21.8100 N.pl3 290  ARG290     -0.0865
    139  CZ        19.6820    4.3540   23.0740 C.cat 290  ARG290      0.5346
    140  NH1       19.6330    5.6070   23.5230 N.pl3 290  ARG290      0.1354
    141  NH2       19.9660    3.3790   23.9230 N.pl3 290  ARG290      0.1354
    142  N         28.2710    6.2290   18.3890 N.3   301  TRP301     -0.1241
    143  CA        27.4210    6.5960   19.5210 C.3   301  TRP301      0.1605
    144  C         27.2180    5.3730   20.4120 C.2   301  TRP301      0.2264
    145  O         27.1390    5.4910   21.6510 O.2   301  TRP301     -0.2867
    146  CB        26.0800    7.1630   19.0320 C.3   301  TRP301      0.0550
    147  CG        25.3590    7.9650   20.0740 C.ar  301  TRP301      0.0003
    148  CD1       25.4990    9.2970   20.3470 C.ar  301  TRP301      0.0946
    149  CD2       24.4170    7.4630   21.0000 C.ar  301  TRP301      0.0152
    150  NE1       24.6700    9.6560   21.3780 N.ar  301  TRP301     -0.2442
    151  CE2       23.9980    8.5430   21.8040 C.ar  301  TRP301      0.0810
    152  CE3       23.8790    6.1900   21.2370 C.ar  301  TRP301      0.0012
    153  CZ2       23.0760    8.3910   22.8350 C.ar  301  TRP301      0.0191
    154  CZ3       22.9610    6.0430   22.2580 C.ar  301  TRP301      0.0001
    155  CH2       22.5710    7.1330   23.0460 C.ar  301  TRP301      0.0015
@<TRIPOS>BOND
     1    54    53    1
     2    54    55    1
     3    54    57    1
     4    55    56    2
     5    58    57    1
     6    58    59    1
     7   129   128    1
     8    59    60    1
     9    60    61    2
    10   120   121    1
    11   142   143    1
    12    90    89    2
    13   130   128    1
    14   128   127    2
    15    63    61    1
    16   133   134    2
    17   133   132    1
    18    61    62    1
    19   146   143    1
    20   146   147    1
    21   131   132    1
    22   131   122   am
    23   135   132    1
    24   135   136    1
    25   143   144    1
    26    89    88    1
    27    87    88    1
    28   121   122    1
    29   121   124    1
    30   127   126    1
    31    64    65    1
    32   125   126    1
    33   125   124    1
    34   147   148   ar
    35   147   149   ar
    36   122   123    2
    37   148   150   ar
    38    88    91    1
    39    91    92    1
    40   144   145    2
    41    94    96   ar
    42    94    92   ar
    43   136   137    1
    44    65    66    1
    45    65    68    1
    46    66    67    2
    47   137   138    1
    48   149   152   ar
    49   149   151   ar
    50    96    97   ar
    51    92    93   ar
    52   152   154   ar
    53   150   151   ar
    54    70    72   ar
    55    70    69   ar
    56   151   153   ar
    57   138   139    2
    58    72    73   ar
    59    68    69    1
    60    69    71   ar
    61   154   155   ar
    62    97    98    1
    63    97    95   ar
    64    93    95   ar
    65   153   155   ar
    66    73    71   ar
    67   139   140    1
    68   139   141    1
    69    74    75    1
    70   107   105   ar
    71   104   105    1
    72   104   103    1
    73    77    76    2
    74    75    76    1
    75    75    78    1
    76   100   101    1
    77   100   103    1
    78   100    99    1
    79    80    78    1
    80   108   109    1
    81   101   102    2
    82   105   106   ar
    83    76    81   am
    84    78    79    1
    85   109   110    1
    86   109   112    1
    87   110   111    2
    88    86    85    1
    89    83    84    2
    90    83    82    1
    91    81    82    1
    92   112   113    1
    93   115   113   ar
    94   115   117   ar
    95    49    51   ar
    96    49    48   ar
    97    82    85    1
    98    32    30   ar
    99    32    31   ar
   100    51    52   ar
   101    30    28   ar
   102   113   114   ar
   103    47    48    1
   104    47    44    1
   105    48    50   ar
   106   117   118   ar
   107    52    50   ar
   108    31    29   ar
   109   114   116   ar
   110    28    27   ar
   111    28    26   ar
   112   118   116   ar
   113   118   119    1
   114    44    43    1
   115    44    45    1
   116    27    25   ar
   117    18    16   am
   118    29    26   ar
   119    26    24   ar
   120    17    16    2
   121    16    15    1
   122    10     9   ar
   123    10     8   ar
   124     9     7   ar
   125    45    46    2
   126    15    12    1
   127    25    24   ar
   128    41    42   ar
   129    41    39   ar
   130    24    23    1
   131    42    40   ar
   132     7     6   ar
   133     8     6   ar
   134    14    13    2
   135    12    13    1
   136    12    11    1
   137    39    38   ar
   138     6     5    1
   139    40    38   ar
   140    23    20    1
   141    38    37    1
   142    19    20    1
   143     4     3    2
   144    20    21    1
   145     5     2    1
   146     3     2    1
   147     1     2    1
   148    37    34    1
   149    33    34    1
   150    21    22    2
   151    34    35    1
   152    36    35    2
