@<TRIPOS>MOLECULE
tmp/4z74J00.pdb
 162 154 0 0 0
SMALL
GASTEIGER

@<TRIPOS>ATOM
      1  N        135.9580   96.1040  -10.2820 N.3    18  LYS18      -0.1245
      2  CA       137.3390   96.4740   -9.9740 C.3    18  LYS18       0.1561
      3  C        138.2380   96.2540  -11.1940 C.2    18  LYS18       0.2260
      4  O        138.6090   95.1220  -11.5150 O.2    18  LYS18      -0.2867
      5  CB       137.8720   95.7150   -8.7500 C.3    18  LYS18       0.0271
      6  CG       139.3870   95.7910   -8.5950 C.3    18  LYS18       0.0035
      7  CD       139.8450   96.0130   -7.1700 C.3    18  LYS18       0.0206
      8  CE       141.3530   96.2220   -7.1060 C.3    18  LYS18       0.1093
      9  NZ       141.8430   97.4620   -7.7830 N.3    18  LYS18      -0.1314
     10  N        141.9150   97.1270  -13.2310 N.3    20  GLU20      -0.1245
     11  CA       143.3420   97.3530  -12.9900 C.3    20  GLU20       0.1567
     12  C        144.0700   97.5590  -14.3130 C.2    20  GLU20       0.2260
     13  O        143.7270   96.9280  -15.3150 O.2    20  GLU20      -0.2867
     14  CB       143.9690   96.1580  -12.2670 C.3    20  GLU20       0.0388
     15  CG       143.6560   96.0740  -10.7820 C.3    20  GLU20       0.1160
     16  CD       144.4170   94.9610  -10.0770 C.2    20  GLU20       0.3649
     17  OE1      144.8780   94.0110  -10.7500 O.co2  20  GLU20      -0.2457
     18  OE2      144.5520   95.0360   -8.8380 O.co2  20  GLU20      -0.2457
     19  N        139.9420   92.9400  -12.8960 N.3    31  ASP31      -0.1225
     20  CA       140.4580   92.0670  -11.8460 C.3    31  ASP31       0.1805
     21  C        139.3300   91.1760  -11.3270 C.2    31  ASP31       0.2597
     22  O        139.4380   89.9500  -11.3790 O.2    31  ASP31      -0.2718
     23  CB       141.0680   92.8900  -10.7090 C.3    31  ASP31       0.1424
     24  CG       141.7150   92.0280   -9.6300 C.2    31  ASP31       0.3668
     25  OD1      142.2200   90.9260   -9.9400 O.co2  31  ASP31      -0.2456
     26  OD2      141.7280   92.4670   -8.4640 O.co2  31  ASP31      -0.2456
     27  N        138.2540   91.8020  -10.8470 N.am   32  ARG32      -0.1979
     28  CA       137.0900   91.0810  -10.3140 C.3    32  ARG32       0.1597
     29  C        135.8860   91.9920  -10.0530 C.2    32  ARG32       0.2287
     30  O        136.0410   93.1680   -9.7280 O.2    32  ARG32      -0.2864
     31  CB       137.4520   90.3640   -9.0050 C.3    32  ARG32       0.0334
     32  CG       137.8400   91.2930   -7.8620 C.3    32  ARG32       0.0492
     33  CD       138.4940   90.5250   -6.7280 C.3    32  ARG32       0.2205
     34  NE       138.6500   91.3470   -5.5250 N.pl3  32  ARG32      -0.0865
     35  CZ       139.6750   92.1610   -5.2580 C.cat  32  ARG32       0.5346
     36  NH1      140.6920   92.3060   -6.1060 N.pl3  32  ARG32       0.1354
     37  NH2      139.6830   92.8450   -4.1170 N.pl3  32  ARG32       0.1354
     38  N        132.9280  102.1600   -5.4250 N.3    40  TYR40      -0.1241
     39  CA       134.0690  103.0480   -5.1810 C.3    40  TYR40       0.1605
     40  C        133.6010  104.4940   -4.9670 C.2    40  TYR40       0.2264
     41  O        132.9680  105.0720   -5.8490 O.2    40  TYR40      -0.2867
     42  CB       135.1000  102.9560   -6.3140 C.3    40  TYR40       0.0534
     43  CG       136.0430  101.7860   -6.1430 C.ar   40  TYR40      -0.0201
     44  CD1      135.6570  100.4940   -6.5000 C.ar   40  TYR40      -0.0009
     45  CD2      137.3130  101.9650   -5.5950 C.ar   40  TYR40      -0.0009
     46  CE1      136.5130   99.4170   -6.3370 C.ar   40  TYR40       0.0417
     47  CE2      138.1770  100.8940   -5.4250 C.ar   40  TYR40       0.0417
     48  CZ       137.7710   99.6250   -5.7930 C.ar   40  TYR40       0.1957
     49  OH       138.6280   98.5700   -5.6160 O.3    40  TYR40      -0.2866
     50  N        139.3910  106.1860   -8.7010 N.3    44  TYR44      -0.1241
     51  CA       140.5000  105.4460   -8.1020 C.3    44  TYR44       0.1605
     52  C        141.4960  105.0050   -9.1710 C.2    44  TYR44       0.2264
     53  O        141.1000  104.5310  -10.2380 O.2    44  TYR44      -0.2867
     54  CB       139.9540  104.2260   -7.3520 C.3    44  TYR44       0.0534
     55  CG       141.0220  103.3180   -6.7930 C.ar   44  TYR44      -0.0201
     56  CD1      141.6620  103.6260   -5.6010 C.ar   44  TYR44      -0.0009
     57  CD2      141.4000  102.1530   -7.4620 C.ar   44  TYR44      -0.0009
     58  CE1      142.6460  102.8060   -5.0810 C.ar   44  TYR44       0.0417
     59  CE2      142.3880  101.3230   -6.9500 C.ar   44  TYR44       0.0417
     60  CZ       143.0070  101.6560   -5.7560 C.ar   44  TYR44       0.1957
     61  OH       143.9870  100.8560   -5.2280 O.3    44  TYR44      -0.2866
     62  N        149.2250  104.3510   -5.3110 N.3    59  ASP59      -0.1239
     63  CA       147.7780  104.5020   -5.5240 C.3    59  ASP59       0.1674
     64  C        147.3140  105.9390   -5.2870 C.2    59  ASP59       0.2266
     65  O        147.9090  106.6680   -4.4890 O.2    59  ASP59      -0.2867
     66  CB       146.9780  103.5540   -4.6130 C.3    59  ASP59       0.1410
     67  CG       146.9270  102.1140   -5.1300 C.2    59  ASP59       0.3668
     68  OD1      147.0510  101.8680   -6.3620 O.co2  59  ASP59      -0.2456
     69  OD2      146.7260  101.2110   -4.2800 O.co2  59  ASP59      -0.2456
     70  N        146.7970  102.4260    4.8850 N.3    84  MET84      -0.1245
     71  CA       146.0710  101.1560    4.9710 C.3    84  MET84       0.1570
     72  C        147.0480   99.9910    5.1030 C.2    84  MET84       0.2261
     73  O        148.1980  100.0880    4.6690 O.2    84  MET84      -0.2867
     74  CB       145.2050  100.9760    3.7220 C.3    84  MET84       0.0387
     75  CG       144.0490  100.0110    3.8770 C.3    84  MET84       0.0595
     76  SD       143.0580   99.9180    2.3710 S.3    84  MET84      -0.1393
     77  CE       144.0690   98.9000    1.3040 C.3    84  MET84       0.0692
     78  N        146.7710   95.6370    4.5200 N.3    86  ASP86      -0.1225
     79  CA       145.9770   94.4690    4.1150 C.3    86  ASP86       0.1805
     80  C        146.8570   93.2050    4.1170 C.2    86  ASP86       0.2598
     81  O        147.9960   93.2420    4.5930 O.2    86  ASP86      -0.2718
     82  CB       145.2420   94.7290    2.7620 C.3    86  ASP86       0.1424
     83  CG       146.1910   95.0440    1.5720 C.2    86  ASP86       0.3668
     84  OD1      147.4160   94.7910    1.6600 O.co2  86  ASP86      -0.2456
     85  OD2      145.6890   95.5890    0.4770 O.co2  86  ASP86      -0.2456
     86  N        146.3140   92.0950    3.6180 N.am   87  GLU87      -0.1965
     87  CA       147.0410   90.8170    3.4760 C.3    87  GLU87       0.1733
     88  C        148.4600   90.8990    2.8800 C.2    87  GLU87       0.2616
     89  O        149.3190   90.0880    3.2350 O.2    87  GLU87      -0.2715
     90  CB       146.1950   89.7890    2.6940 C.3    87  GLU87       0.0429
     91  CG       145.8540   90.1520    1.2470 C.3    87  GLU87       0.1163
     92  CD       144.6620   91.0800    1.0860 C.2    87  GLU87       0.3649
     93  OE1      144.0350   91.4730    2.0940 O.co2  87  GLU87      -0.2457
     94  OE2      144.3650   91.4460   -0.0690 O.co2  87  GLU87      -0.2457
     95  N        148.6940   91.8640    1.9850 N.am   88  HIS88      -0.1973
     96  CA       150.0170   92.0790    1.3600 C.3    88  HIS88       0.1656
     97  C        150.8420   93.2020    2.0170 C.2    88  HIS88       0.2291
     98  O        151.8290   93.6720    1.4390 O.2    88  HIS88      -0.2864
     99  CB       149.8460   92.3840   -0.1360 C.3    88  HIS88       0.0771
    100  CG       149.1700   91.2980   -0.9200 C.ar   88  HIS88       0.0820
    101  ND1      148.7300   90.1150   -0.3610 N.ar   88  HIS88      -0.2267
    102  CD2      148.8350   91.2370   -2.2310 C.ar   88  HIS88       0.1154
    103  CE1      148.1640   89.3710   -1.2940 C.ar   88  HIS88       0.1986
    104  NE2      148.2150   90.0290   -2.4380 N.ar   88  HIS88      -0.2212
    105  N        149.5600   99.7190    2.3850 N.3    91  ASP91      -0.1239
    106  CA       148.9200  100.2040    1.1640 C.3    91  ASP91       0.1674
    107  C        148.5340  101.6640    1.3960 C.2    91  ASP91       0.2266
    108  O        147.5890  101.9610    2.1230 O.2    91  ASP91      -0.2867
    109  CB       147.6910   99.3460    0.8200 C.3    91  ASP91       0.1410
    110  CG       147.4320   99.2270   -0.6920 C.2    91  ASP91       0.3668
    111  OD1      147.9960  100.0180   -1.5130 O.co2  91  ASP91      -0.2456
    112  OD2      146.6540   98.3130   -1.0680 O.co2  91  ASP91      -0.2456
    113  N        147.3510  105.3600   -0.0970 N.3    93  LYS93      -0.1245
    114  CA       146.5580  105.9360   -1.1830 C.3    93  LYS93       0.1561
    115  C        146.5150  107.4510   -1.0350 C.2    93  LYS93       0.2260
    116  O        146.0130  107.9640   -0.0360 O.2    93  LYS93      -0.2867
    117  CB       145.1380  105.3790   -1.1550 C.3    93  LYS93       0.0271
    118  CG       145.0370  103.9250   -1.5750 C.3    93  LYS93       0.0035
    119  CD       143.8710  103.2260   -0.8950 C.3    93  LYS93       0.0206
    120  CE       143.5480  101.8800   -1.5250 C.3    93  LYS93       0.1093
    121  NZ       144.7390  101.0430   -1.8390 N.3    93  LYS93      -0.1314
    122  N        137.1580  101.0120    1.9870 N.3   125  PHE125     -0.1241
    123  CA       138.3620  100.1980    1.9880 C.3   125  PHE125      0.1605
    124  C        138.4250   99.2180    3.1550 C.2   125  PHE125      0.2264
    125  O        138.9600   98.1360    2.9940 O.2   125  PHE125     -0.2867
    126  CB       139.6100  101.0760    1.9140 C.3   125  PHE125      0.0534
    127  CG       139.8140  101.6980    0.5630 C.ar  125  PHE125     -0.0203
    128  CD1      140.1330  100.9050   -0.5380 C.ar  125  PHE125     -0.0042
    129  CD2      139.6610  103.0680    0.3770 C.ar  125  PHE125     -0.0042
    130  CE1      140.3020  101.4680   -1.7950 C.ar  125  PHE125     -0.0003
    131  CE2      139.8360  103.6370   -0.8770 C.ar  125  PHE125     -0.0003
    132  CZ       140.1590  102.8370   -1.9650 C.ar  125  PHE125     -0.0000
    133  N        135.1510   96.4910    1.8620 N.3   128  TYR128     -0.1227
    134  CA       134.9190   95.9670    0.4980 C.3   128  TYR128      0.1736
    135  C        135.4210   94.5320    0.2300 C.2   128  TYR128      0.2595
    136  O        134.9220   93.8740   -0.6860 O.2   128  TYR128     -0.2718
    137  CB       135.4310   96.9430   -0.5760 C.3   128  TYR128      0.0548
    138  CG       136.9110   96.8670   -0.8970 C.ar  128  TYR128     -0.0200
    139  CD1      137.3490   96.4790   -2.1630 C.ar  128  TYR128     -0.0009
    140  CD2      137.8730   97.1950    0.0540 C.ar  128  TYR128     -0.0009
    141  CE1      138.7020   96.4180   -2.4690 C.ar  128  TYR128      0.0417
    142  CE2      139.2270   97.1410   -0.2400 C.ar  128  TYR128      0.0417
    143  CZ       139.6390   96.7520   -1.5020 C.ar  128  TYR128      0.1957
    144  OH       140.9800   96.6880   -1.7980 O.3   128  TYR128     -0.2866
    145  N        136.3890   94.0660    1.0250 N.am  129  LYS129     -0.1980
    146  CA       136.9080   92.6830    0.9490 C.3   129  LYS129      0.1596
    147  C        136.4930   91.7770    2.1290 C.2   129  LYS129      0.2287
    148  O        137.1050   90.7170    2.3670 O.2   129  LYS129     -0.2864
    149  CB       138.4360   92.7120    0.8490 C.3   129  LYS129      0.0298
    150  CG       138.9520   93.4600   -0.3630 C.3   129  LYS129      0.0038
    151  CD       140.4170   93.1630   -0.6440 C.3   129  LYS129      0.0206
    152  CE       141.3440   93.7560    0.4030 C.3   129  LYS129      0.1093
    153  NZ       142.7530   93.7520   -0.0760 N.3   129  LYS129     -0.1314
    154  N        141.4200   87.8580    2.8240 N.3   135  LYS135     -0.1245
    155  CA       141.4980   89.2820    2.5250 C.3   135  LYS135      0.1561
    156  C        140.8820   90.0330    3.6940 C.2   135  LYS135      0.2260
    157  O        139.7990   89.6720    4.1850 O.2   135  LYS135     -0.2867
    158  CB       140.7370   89.6370    1.2470 C.3   135  LYS135      0.0271
    159  CG       141.1170   88.8380    0.0070 C.3   135  LYS135      0.0035
    160  CD       142.0870   89.5440   -0.9330 C.3   135  LYS135      0.0206
    161  CE       141.7470   89.2900   -2.3980 C.3   135  LYS135      0.1093
    162  NZ       141.5520   87.8530   -2.7500 N.3   135  LYS135     -0.1314
@<TRIPOS>BOND
     1    13    12    2
     2    12    11    1
     3    10    11    1
     4    11    14    1
     5    19    20    1
     6    14    15    1
     7    20    21    1
     8    20    23    1
     9     4     3    2
    10    22    21    2
    11    21    27   am
    12     3     2    1
    13    27    28    1
    14    15    16    1
    15    17    16   ar
    16    23    24    1
    17    28    29    1
    18    28    31    1
    19     1     2    1
    20    53    52    2
    21    16    18   ar
    22    29    30    2
    23     2     5    1
    24    25    24   ar
    25    24    26   ar
    26    52    51    1
    27    31    32    1
    28     5     6    1
    29    50    51    1
    30     6     7    1
    31    51    54    1
    32    32    33    1
    33     9     8    1
    34    57    59   ar
    35    57    55   ar
    36    54    55    1
    37     7     8    1
    38    59    60   ar
    39    55    56   ar
    40    33    34    1
    41    44    46   ar
    42    44    43   ar
    43    68    67   ar
    44    46    48   ar
    45    42    43    1
    46    42    39    1
    47    43    45   ar
    48    36    35    1
    49    41    40    2
    50    48    49    1
    51    48    47   ar
    52    60    61    1
    53    60    58   ar
    54    56    58   ar
    55    45    47   ar
    56    34    35    2
    57    63    62    1
    58    63    64    1
    59    63    66    1
    60    38    39    1
    61    64    65    2
    62    35    37    1
    63    39    40    1
    64    67    66    1
    65    67    69   ar
    66   162   161    1
    67   141   139   ar
    68   141   143   ar
    69   104   102   ar
    70   104   103   ar
    71   161   160    1
    72   102   100   ar
    73   139   138   ar
    74   132   130   ar
    75   132   131   ar
    76   121   120    1
    77   144   143    1
    78   130   128   ar
    79   118   117    1
    80   118   119    1
    81   120   119    1
    82   111   110   ar
    83   143   142   ar
    84   103   101   ar
    85   114   117    1
    86   114   115    1
    87   114   113    1
    88   112   110   ar
    89   115   116    2
    90   160   159    1
    91   100   101   ar
    92   100    99    1
    93   138   137    1
    94   138   140   ar
    95   131   129   ar
    96   110   109    1
    97   136   135    2
    98   151   150    1
    99   151   152    1
   100   137   134    1
   101   128   127   ar
   102   150   149    1
   103   142   140   ar
   104    99    96    1
   105   153   152    1
   106    94    92   ar
   107   159   158    1
   108   135   134    1
   109   135   145   am
   110   129   127   ar
   111    85    83   ar
   112   134   133    1
   113   127   126    1
   114   109   106    1
   115   149   146    1
   116   146   145    1
   117   146   147    1
   118    92    91    1
   119    92    93   ar
   120   106   107    1
   121   106   105    1
   122    91    90    1
   123   158   155    1
   124    77    76    1
   125    96    95    1
   126    96    97    1
   127   107   108    2
   128    98    97    2
   129    83    84   ar
   130    83    82    1
   131   126   123    1
   132    95    88   am
   133   122   123    1
   134   123   124    1
   135   147   148    2
   136    76    75    1
   137   155   154    1
   138   155   156    1
   139    90    87    1
   140    82    79    1
   141    88    89    2
   142    88    87    1
   143   125   124    2
   144    87    86    1
   145    86    80   am
   146   156   157    2
   147    74    75    1
   148    74    71    1
   149    79    80    1
   150    79    78    1
   151    80    81    2
   152    73    72    2
   153    70    71    1
   154    71    72    1
