@<TRIPOS>MOLECULE
tmp/4z7fB00.pdb
 215 206 0 0 0
SMALL
GASTEIGER

@<TRIPOS>ATOM
      1  N         16.3850   10.8440   24.1010 N.3    20  SER20      -0.1217
      2  CA        16.1480    9.4790   24.4900 C.3    20  SER20       0.1889
      3  C         17.3480    8.6400   24.8550 C.2    20  SER20       0.2288
      4  O         17.2590    7.8720   25.7970 O.2    20  SER20      -0.2866
      5  CB        15.3790    8.7650   23.4000 C.3    20  SER20       0.2089
      6  OG        15.2500    7.3890   23.7080 O.3    20  SER20      -0.2183
      7  N         18.5900    5.8210   32.9290 N.3    26  GLU26      -0.1231
      8  CA        18.0540    4.4820   32.8280 C.3    26  GLU26       0.1699
      9  C         18.7600    3.3210   33.5100 C.2    26  GLU26       0.2593
     10  O         19.9690    3.2510   33.6160 O.2    26  GLU26      -0.2718
     11  CB        17.6800    4.1580   31.3900 C.3    26  GLU26       0.0402
     12  CG        18.7890    3.5580   30.5610 C.3    26  GLU26       0.1161
     13  CD        18.4470    3.5330   29.0850 C.2    26  GLU26       0.3649
     14  OE1       17.8010    2.5660   28.6380 O.co2  26  GLU26      -0.2457
     15  OE2       18.8240    4.4830   28.3710 O.co2  26  GLU26      -0.2457
     16  N         17.9010    2.4190   33.9410 N.am   27  THR27      -0.1939
     17  CA        18.0930    1.0670   34.4310 C.3    27  THR27       0.2028
     18  C         16.9780    0.1210   33.9690 C.2    27  THR27       0.2643
     19  O         15.8630    0.5570   33.6690 O.2    27  THR27      -0.2714
     20  CB        18.1170    1.0610   35.9700 C.3    27  THR27       0.1808
     21  OG1       16.7800    1.2530   36.4610 O.3    27  THR27      -0.2208
     22  CG2       18.9900    2.1960   36.5080 C.3    27  THR27       0.0379
     23  N         17.2620   -1.1770   34.0240 N.am   28  THR28      -0.1936
     24  CA        16.3230   -2.2050   33.5930 C.3    28  THR28       0.2028
     25  C         15.0200   -2.0090   34.3590 C.2    28  THR28       0.2642
     26  O         15.0540   -1.8080   35.5650 O.2    28  THR28      -0.2714
     27  CB        16.8880   -3.6360   33.8350 C.3    28  THR28       0.1808
     28  OG1       18.1940   -3.7690   33.2550 O.3    28  THR28      -0.2208
     29  CG2       15.9590   -4.7100   33.2800 C.3    28  THR28       0.0379
     30  N         13.8950   -2.0390   33.6470 N.am   29  PHE29      -0.1959
     31  CA        12.5300   -1.9720   34.2060 C.3    29  PHE29       0.1771
     32  C         12.0590   -0.5520   34.5800 C.2    29  PHE29       0.2619
     33  O         10.9030   -0.3840   35.0030 O.2    29  PHE29      -0.2715
     34  CB        12.3600   -2.8520   35.4660 C.3    29  PHE29       0.0574
     35  CG        12.5850   -4.3220   35.2520 C.ar   29  PHE29      -0.0200
     36  CD1       11.6020   -5.1110   34.6880 C.ar   29  PHE29      -0.0042
     37  CD2       13.7400   -4.9320   35.7050 C.ar   29  PHE29      -0.0042
     38  CE1       11.7940   -6.4720   34.5180 C.ar   29  PHE29      -0.0003
     39  CE2       13.9380   -6.2930   35.5350 C.ar   29  PHE29      -0.0003
     40  CZ        12.9620   -7.0610   34.9420 C.ar   29  PHE29      -0.0000
     41  N         12.8970    0.4690   34.4110 N.am   30  LEU30      -0.1963
     42  CA        12.4140    1.8180   34.6930 C.3    30  LEU30       0.1728
     43  C         13.0740    2.9410   33.9230 C.2    30  LEU30       0.2616
     44  O         14.2890    2.8940   33.7240 O.2    30  LEU30      -0.2715
     45  CB        12.5900    2.1260   36.1850 C.3    30  LEU30       0.0311
     46  CG        11.9060    3.4310   36.6090 C.3    30  LEU30       0.0022
     47  CD1       10.3710    3.3240   36.6840 C.3    30  LEU30       0.0001
     48  CD2       12.5220    3.9910   37.8600 C.3    30  LEU30       0.0001
     49  N         12.2790    3.9260   33.4710 N.am   31  LYS31      -0.1977
     50  CA        12.8830    5.1790   33.0530 C.3    31  LYS31       0.1596
     51  C         12.0890    6.5010   32.9220 C.2    31  LYS31       0.2287
     52  O         10.9260    6.5200   32.5660 O.2    31  LYS31      -0.2864
     53  CB        13.5760    4.8910   31.7350 C.3    31  LYS31       0.0298
     54  CG        14.2540    6.0900   31.3370 C.3    31  LYS31       0.0038
     55  CD        15.4800    6.1390   32.1660 C.3    31  LYS31       0.0206
     56  CE        15.5750    7.4370   32.8860 C.3    31  LYS31       0.1093
     57  NZ        16.1840    8.4930   32.0550 N.3    31  LYS31      -0.1314
     58  N         12.1350    9.4800   30.6600 N.3    33  SER33      -0.1217
     59  CA        12.6520   10.1070   29.4530 C.3    33  SER33       0.1889
     60  C         12.4190   11.5920   29.5950 C.2    33  SER33       0.2288
     61  O         11.4510   11.9990   30.2220 O.2    33  SER33      -0.2866
     62  CB        11.9560    9.6060   28.1840 C.3    33  SER33       0.2089
     63  OG        10.6070   10.0470   28.1480 O.3    33  SER33      -0.2183
     64  N         11.4710    6.4850   17.5020 N.3    59  ASP59      -0.1239
     65  CA        11.8220    5.3090   18.2560 C.3    59  ASP59       0.1674
     66  C         12.6000    4.3580   17.3940 C.2    59  ASP59       0.2266
     67  O         13.6170    3.8330   17.8440 O.2    59  ASP59      -0.2867
     68  CB        10.5530    4.6030   18.7500 C.3    59  ASP59       0.1410
     69  CG        10.8050    3.1740   19.2870 C.2    59  ASP59       0.3668
     70  OD1       11.5360    2.3520   18.6810 O.co2  59  ASP59      -0.2456
     71  OD2       10.2010    2.8360   20.3260 O.co2  59  ASP59      -0.2456
     72  N         16.3040    2.8570   17.7340 N.3    63  MET63      -0.1245
     73  CA        16.8780    1.5170   17.7800 C.3    63  MET63       0.1570
     74  C         17.6220    0.9550   16.5850 C.2    63  MET63       0.2261
     75  O         18.3010   -0.0490   16.7340 O.2    63  MET63      -0.2867
     76  CB        15.8330    0.5200   18.2170 C.3    63  MET63       0.0387
     77  CG        15.7490    0.7630   19.6450 C.3    63  MET63       0.0595
     78  SD        14.9800   -0.3750   20.7270 S.3    63  MET63      -0.1393
     79  CE        15.9330    0.2530   22.1050 C.3    63  MET63       0.0692
     80  N         20.0300   -3.6130   24.2780 N.3    69  ALA69      -0.1231
     81  CA        18.6580   -3.6140   24.7520 C.3    69  ALA69       0.1694
     82  C         17.5820   -4.0940   23.7770 C.2    69  ALA69       0.2593
     83  O         16.3930   -4.0560   24.0950 O.2    69  ALA69      -0.2718
     84  CB        18.4040   -2.1700   25.1560 C.3    69  ALA69       0.0304
     85  N         17.9950   -4.5640   22.6000 N.am   70  GLY70      -0.1942
     86  CA        17.0710   -5.2420   21.7110 C.3    70  GLY70       0.2014
     87  C         16.0060   -4.3390   21.1370 C.2    70  GLY70       0.2639
     88  O         16.0130   -3.1530   21.3950 O.2    70  GLY70      -0.2714
     89  N         15.0740   -4.9030   20.3810 N.am   71  TYR71      -0.1959
     90  CA        13.9300   -4.1530   19.9020 C.3    71  TYR71       0.1771
     91  C         12.6800   -4.8320   20.3670 C.2    71  TYR71       0.2619
     92  O         12.5630   -6.0310   20.2860 O.2    71  TYR71      -0.2715
     93  CB        13.8900   -4.0370   18.3740 C.3    71  TYR71       0.0574
     94  CG        12.5810   -3.4580   17.8810 C.ar   71  TYR71      -0.0198
     95  CD1       12.4550   -2.1280   17.5980 C.ar   71  TYR71      -0.0009
     96  CD2       11.4600   -4.2420   17.8000 C.ar   71  TYR71      -0.0009
     97  CE1       11.2550   -1.6090   17.1980 C.ar   71  TYR71       0.0417
     98  CE2       10.2610   -3.7280   17.3930 C.ar   71  TYR71       0.0417
     99  CZ        10.1730   -2.4120   17.0940 C.ar   71  TYR71       0.1957
    100  OH         8.9880   -1.8840   16.6880 O.3    71  TYR71      -0.2866
    101  N         11.7150   -4.0560   20.8070 N.am   72  PHE72      -0.1974
    102  CA        10.4680   -4.6900   21.1750 C.3    72  PHE72       0.1639
    103  C          9.3390   -3.7900   20.6780 C.2    72  PHE72       0.2290
    104  O          9.2920   -2.5950   20.9960 O.2    72  PHE72      -0.2864
    105  CB        10.3580   -4.9280   22.6950 C.3    72  PHE72       0.0560
    106  CG         9.1430   -5.7180   23.0910 C.ar   72  PHE72      -0.0200
    107  CD1        9.1700   -7.1070   23.0620 C.ar   72  PHE72      -0.0042
    108  CD2        7.9610   -5.0880   23.4060 C.ar   72  PHE72      -0.0042
    109  CE1        8.0560   -7.8590   23.3910 C.ar   72  PHE72      -0.0003
    110  CE2        6.8400   -5.8350   23.7310 C.ar   72  PHE72      -0.0003
    111  CZ         6.8910   -7.2300   23.7170 C.ar   72  PHE72      -0.0000
    112  N          6.8680   -1.2840   22.5650 N.3    75  PHE75      -0.1227
    113  CA         7.4470   -0.0170   23.0070 C.3    75  PHE75       0.1736
    114  C          7.2010    1.0510   21.9570 C.2    75  PHE75       0.2596
    115  O          6.9570    2.2100   22.2990 O.2    75  PHE75      -0.2718
    116  CB         8.9450   -0.1400   23.3200 C.3    75  PHE75       0.0547
    117  CG         9.2490   -0.8040   24.6460 C.ar   75  PHE75      -0.0202
    118  CD1        8.2720   -0.8970   25.6420 C.ar   75  PHE75      -0.0042
    119  CD2       10.5030   -1.3530   24.8910 C.ar   75  PHE75      -0.0042
    120  CE1        8.5450   -1.5140   26.8640 C.ar   75  PHE75      -0.0003
    121  CE2       10.7820   -1.9760   26.1030 C.ar   75  PHE75      -0.0003
    122  CZ         9.7980   -2.0550   27.0950 C.ar   75  PHE75      -0.0000
    123  N          7.1680    0.6610   20.6850 N.am   76  THR76      -0.1953
    124  CA         6.9990    1.6540   19.6310 C.3    76  THR76       0.1897
    125  C          5.5000    1.8910   19.5260 C.2    76  THR76       0.2313
    126  O          5.0610    2.9290   19.0200 O.2    76  THR76      -0.2863
    127  CB         7.5700    1.2180   18.3040 C.3    76  THR76       0.1794
    128  OG1        6.8200    0.1090   17.8120 O.3    76  THR76      -0.2208
    129  CG2        8.9560    0.7660   18.4880 C.3    76  THR76       0.0378
    130  N          3.9250    2.1960   22.3030 N.3    78  ASN78      -0.1240
    131  CA         3.8960    3.3060   23.2200 C.3    78  ASN78       0.1653
    132  C          4.2210    4.5920   22.4650 C.2    78  ASN78       0.2266
    133  O          3.4200    5.5320   22.5000 O.2    78  ASN78      -0.2867
    134  CB         4.8770    3.0960   24.3860 C.3    78  ASN78       0.1155
    135  CG         4.3960    2.0620   25.4050 C.2    78  ASN78       0.2627
    136  OD1        3.2890    1.5110   25.3200 O.2    78  ASN78      -0.2716
    137  ND2        5.2660    1.7620   26.3580 N.am   78  ASN78      -0.0877
    138  N         -0.1110    4.6670   29.2820 N.3   111  ILE111     -0.1231
    139  CA         1.1700    4.1650   28.7620 C.3   111  ILE111      0.1692
    140  C          2.1870    3.7190   29.8080 C.2   111  ILE111      0.2592
    141  O          2.7590    2.6230   29.7090 O.2   111  ILE111     -0.2718
    142  CB         1.8430    5.2110   27.8470 C.3   111  ILE111      0.0266
    143  CG1        1.0520    5.3450   26.5520 C.3   111  ILE111      0.0019
    144  CG2        3.2720    4.8080   27.4930 C.3   111  ILE111      0.0020
    145  CD1        1.2830    6.6830   25.9010 C.3   111  ILE111      0.0001
    146  N          2.3750    4.5380   30.8360 N.am  112  ASN112     -0.1974
    147  CA         3.4690    4.2940   31.7640 C.3   112  ASN112      0.1688
    148  C          3.0770    3.2980   32.8000 C.2   112  ASN112      0.2292
    149  O          3.9300    2.6050   33.3540 O.2   112  ASN112     -0.2864
    150  CB         3.9180    5.5810   32.4420 C.3   112  ASN112      0.1181
    151  CG         4.3640    6.6170   31.4570 C.2   112  ASN112      0.2629
    152  OD1        3.8750    7.7450   31.4410 O.2   112  ASN112     -0.2716
    153  ND2        5.3260    6.2460   30.6310 N.am  112  ASN112     -0.0877
    154  N          3.3970    0.0360   29.5920 N.3   116  THR116     -0.1218
    155  CA         4.8240   -0.2590   29.6080 C.3   116  THR116      0.1862
    156  C          5.2150   -1.4150   30.5370 C.2   116  THR116      0.2287
    157  O          6.0040   -2.3110   30.1470 O.2   116  THR116     -0.2866
    158  CB         5.6250    0.9750   30.0100 C.3   116  THR116      0.1770
    159  OG1        5.2050    2.0940   29.2160 O.3   116  THR116     -0.2211
    160  CG2        7.1070    0.7160   29.8300 C.3   116  THR116      0.0375
    161  N          7.1120   -5.1980   29.8660 N.3   120  LEU120     -0.1245
    162  CA         8.2750   -5.6000   30.6500 C.3   120  LEU120      0.1561
    163  C          7.9620   -6.9540   31.1890 C.2   120  LEU120      0.2260
    164  O          8.8540   -7.7370   31.5020 O.2   120  LEU120     -0.2867
    165  CB         8.5980   -4.6160   31.7670 C.3   120  LEU120      0.0270
    166  CG         9.1160   -3.2500   31.3350 C.3   120  LEU120      0.0019
    167  CD1        8.7080   -2.1770   32.3130 C.3   120  LEU120      0.0001
    168  CD2       10.6420   -3.3200   31.2390 C.3   120  LEU120      0.0001
    169  N          8.9130   -9.3770   28.0020 N.3   123  MET123     -0.1230
    170  CA        10.3210   -9.5390   27.6180 C.3   123  MET123      0.1702
    171  C         11.2210  -10.1150   28.7180 C.2   123  MET123      0.2592
    172  O         11.8220  -11.1760   28.5120 O.2   123  MET123     -0.2718
    173  CB        10.8490   -8.2060   27.0460 C.3   123  MET123      0.0401
    174  CG        10.5540   -6.9740   27.8660 C.3   123  MET123      0.0596
    175  SD        10.8340   -5.4040   27.0050 S.3   123  MET123     -0.1393
    176  CE        12.5430   -5.0480   27.4210 C.3   123  MET123      0.0692
    177  N         11.2610   -9.4850   29.8780 N.am  124  TYR124     -0.1976
    178  CA        12.1020   -9.9720   30.9540 C.3   124  TYR124      0.1639
    179  C         11.4560  -11.0590   31.8080 C.2   124  TYR124      0.2290
    180  O         12.1110  -11.6670   32.6450 O.2   124  TYR124     -0.2864
    181  CB        12.5650   -8.8220   31.8180 C.3   124  TYR124      0.0560
    182  CG        13.4490   -7.8560   31.0940 C.ar  124  TYR124     -0.0198
    183  CD1       14.7750   -8.1360   30.8760 C.ar  124  TYR124     -0.0009
    184  CD2       12.9530   -6.6590   30.6340 C.ar  124  TYR124     -0.0009
    185  CE1       15.5890   -7.2450   30.2200 C.ar  124  TYR124      0.0417
    186  CE2       13.7560   -5.7630   29.9720 C.ar  124  TYR124      0.0417
    187  CZ        15.0740   -6.0640   29.7680 C.ar  124  TYR124      0.1957
    188  OH        15.8780   -5.1680   29.1100 O.3   124  TYR124     -0.2866
    189  N          8.7140    2.3070   40.3640 N.3   137  ARG137     -0.1245
    190  CA         7.9480    2.8440   39.2580 C.3   137  ARG137      0.1563
    191  C          6.9600    3.9020   39.7430 C.2   137  ARG137      0.2260
    192  O          6.9320    5.0140   39.2360 O.2   137  ARG137     -0.2867
    193  CB         7.2040    1.7240   38.5140 C.3   137  ARG137      0.0307
    194  CG         6.1250    2.1850   37.5210 C.3   137  ARG137      0.0489
    195  CD         5.8260    1.0330   36.6000 C.3   137  ARG137      0.2205
    196  NE         7.1330    0.6790   36.0860 N.pl3 137  ARG137     -0.0865
    197  CZ         7.6000    1.0380   34.9090 C.cat 137  ARG137      0.5346
    198  NH1        6.8490    1.7600   34.0900 N.pl3 137  ARG137      0.1354
    199  NH2        8.8250    0.6800   34.5670 N.pl3 137  ARG137      0.1354
    200  N          8.2840    6.9550   40.8590 N.3   140  LYS140     -0.1231
    201  CA         8.7660    7.7680   39.7450 C.3   140  LYS140      0.1693
    202  C          7.5970    8.4700   39.0690 C.2   140  LYS140      0.2592
    203  O          7.6720    9.6530   38.7750 O.2   140  LYS140     -0.2718
    204  CB         9.5390    6.9020   38.7440 C.3   140  LYS140      0.0285
    205  CG         9.7730    7.5320   37.3720 C.3   140  LYS140      0.0035
    206  CD         8.8740    7.0100   36.2740 C.3   140  LYS140      0.0206
    207  CE         9.0800    7.8510   35.0120 C.3   140  LYS140      0.1093
    208  NZ         8.4300    7.2870   33.7900 N.3   140  LYS140     -0.1314
    209  N          6.4710    7.7830   38.9520 N.am  141  THR141     -0.1953
    210  CA         5.3310    8.3870   38.3110 C.3   141  THR141      0.1897
    211  C          4.7160    9.4790   39.1780 C.2   141  THR141      0.2313
    212  O          4.4010   10.5800   38.6800 O.2   141  THR141     -0.2863
    213  CB         4.2200    7.3610   38.0320 C.3   141  THR141      0.1794
    214  OG1        3.8670    6.7180   39.2370 O.3   141  THR141     -0.2208
    215  CG2        4.6470    6.3050   36.9940 C.3   141  THR141      0.0378
@<TRIPOS>BOND
     1    74    75    2
     2    74    73    1
     3   100    99    1
     4    99    97   ar
     5    99    98   ar
     6    97    95   ar
     7    98    96   ar
     8    66    67    2
     9    66    65    1
    10    64    65    1
    11    95    94   ar
    12    72    73    1
    13    73    76    1
    14    96    94   ar
    15   128   127    1
    16    94    93    1
    17    76    77    1
    18    65    68    1
    19   127   129    1
    20   127   124    1
    21    93    90    1
    22    70    69   ar
    23    68    69    1
    24   126   125    2
    25    69    71   ar
    26   125   124    1
    27   124   123    1
    28    77    78    1
    29    90    91    1
    30    90    89    1
    31    92    91    2
    32    91   101   am
    33    89    87   am
    34   103   104    2
    35   103   102    1
    36   123   114   am
    37    78    79    1
    38   101   102    1
    39    87    88    2
    40    87    86    1
    41   102   105    1
    42    86    85    1
    43   114   115    2
    44   114   113    1
    45   130   131    1
    46   132   133    2
    47   132   131    1
    48   112   113    1
    49    85    82   am
    50   105   106    1
    51   113   116    1
    52   107   106   ar
    53   107   109   ar
    54   106   108   ar
    55   131   134    1
    56   116   117    1
    57   109   111   ar
    58     5     6    1
    59     5     2    1
    60   108   110   ar
    61   111   110   ar
    62    82    83    2
    63    82    81    1
    64     1     2    1
    65    80    81    1
    66   134   135    1
    67     2     3    1
    68   117   119   ar
    69   117   118   ar
    70    81    84    1
    71     3     4    2
    72   119   121   ar
    73   136   135    2
    74   135   137   am
    75   118   120   ar
    76   145   143    1
    77   121   122   ar
    78   143   142    1
    79   120   122   ar
    80   175   176    1
    81   175   174    1
    82   173   170    1
    83   173   174    1
    84   144   142    1
    85   170   169    1
    86   170   171    1
    87   142   139    1
    88    63    62    1
    89    62    59    1
    90    15    13   ar
    91   172   171    2
    92    14    13   ar
    93   171   177   am
    94   139   138    1
    95   139   140    1
    96    13    12    1
    97   188   187    1
    98   159   158    1
    99    59    60    1
   100    59    58    1
   101   154   155    1
   102    60    61    2
   103   155   158    1
   104   155   156    1
   105   141   140    2
   106   187   186   ar
   107   187   185   ar
   108   140   146   am
   109   160   158    1
   110   161   162    1
   111   177   178    1
   112   186   184   ar
   113   157   156    2
   114   185   183   ar
   115    12    11    1
   116   153   151   am
   117   184   182   ar
   118   162   163    1
   119   162   165    1
   120   146   147    1
   121   183   182   ar
   122   178   179    1
   123   178   181    1
   124   182   181    1
   125   163   164    2
   126   168   166    1
   127   166   165    1
   128   166   167    1
   129    54    53    1
   130    54    55    1
   131    11     8    1
   132   152   151    2
   133   151   150    1
   134    53    50    1
   135   147   150    1
   136   147   148    1
   137   179   180    2
   138    57    56    1
   139    55    56    1
   140    52    51    2
   141   148   149    2
   142     8     7    1
   143     8     9    1
   144    51    50    1
   145    50    49    1
   146    28    27    1
   147    29    27    1
   148    49    43   am
   149     9    10    2
   150     9    16   am
   151    24    27    1
   152    24    23    1
   153    24    25    1
   154    30    31    1
   155    30    25   am
   156    19    18    2
   157    44    43    2
   158   208   207    1
   159    43    42    1
   160    16    17    1
   161    18    23   am
   162    18    17    1
   163   198   197    1
   164    31    32    1
   165    31    34    1
   166    25    26    2
   167    41    32   am
   168    41    42    1
   169    17    20    1
   170    38    36   ar
   171    38    40   ar
   172   199   197    1
   173    32    33    2
   174    36    35   ar
   175    42    45    1
   176   197   196    2
   177    40    39   ar
   178   207   206    1
   179    35    34    1
   180    35    37   ar
   181    39    37   ar
   182    20    21    1
   183    20    22    1
   184   196   195    1
   185    45    46    1
   186   206   205    1
   187   195   194    1
   188    46    47    1
   189    46    48    1
   190   215   213    1
   191   205   204    1
   192   194   193    1
   193   213   210    1
   194   213   214    1
   195   210   209    1
   196   210   211    1
   197   193   190    1
   198   212   211    2
   199   204   201    1
   200   203   202    2
   201   209   202   am
   202   202   201    1
   203   192   191    2
   204   190   191    1
   205   190   189    1
   206   201   200    1
