@<TRIPOS>MOLECULE
tmp/4z7hA00.pdb
 164 154 0 0 0
SMALL
GASTEIGER

@<TRIPOS>ATOM
      1  N         32.3240  -19.7800   15.5830 N.3    16  LEU16      -0.1231
      2  CA        32.3680  -19.8120   14.1130 C.3    16  LEU16       0.1693
      3  C         33.6950  -20.3690   13.6360 C.2    16  LEU16       0.2593
      4  O         33.7400  -21.0940   12.6360 O.2    16  LEU16      -0.2718
      5  CB        32.1680  -18.4080   13.4980 C.3    16  LEU16       0.0284
      6  CG        30.8310  -17.7350   13.6840 C.3    16  LEU16       0.0019
      7  CD1       30.9440  -16.2630   13.4210 C.3    16  LEU16       0.0001
      8  CD2       29.7830  -18.3670   12.8130 C.3    16  LEU16       0.0001
      9  N         34.7610  -19.9750   14.3280 N.am   17  GLY17      -0.1942
     10  CA        36.1270  -20.3590   14.0140 C.3    17  GLY17       0.2014
     11  C         37.1460  -19.6480   14.8730 C.2    17  GLY17       0.2638
     12  O         36.8370  -19.2210   15.9920 O.2    17  GLY17      -0.2714
     13  N         38.3700  -19.5120   14.3410 N.am   18  HIS18      -0.1973
     14  CA        39.4820  -18.9280   15.0790 C.3    18  HIS18       0.1656
     15  C         40.2580  -17.8060   14.3340 C.2    18  HIS18       0.2291
     16  O         39.7940  -17.2260   13.3370 O.2    18  HIS18      -0.2864
     17  CB        40.4520  -20.0460   15.5410 C.3    18  HIS18       0.0771
     18  CG        39.8090  -21.1750   16.2870 C.ar   18  HIS18       0.0820
     19  ND1       39.1510  -22.1920   15.6120 N.ar   18  HIS18      -0.2267
     20  CD2       39.8080  -21.4670   17.6080 C.ar   18  HIS18       0.1154
     21  CE1       38.7420  -23.0440   16.5390 C.ar   18  HIS18       0.1986
     22  NE2       39.1090  -22.6490   17.7560 N.ar   18  HIS18      -0.2212
     23  N         42.8520  -15.1580   19.0240 N.3    23  THR23      -0.1218
     24  CA        41.5200  -14.5990   18.8270 C.3    23  THR23       0.1862
     25  C         40.5680  -15.6960   18.3560 C.2    23  THR23       0.2287
     26  O         40.9820  -16.5880   17.6210 O.2    23  THR23      -0.2866
     27  CB        41.5640  -13.3970   17.8610 C.3    23  THR23       0.1770
     28  OG1       40.3420  -12.6720   17.9380 O.3    23  THR23      -0.2211
     29  CG2       41.8090  -13.7880   16.4470 C.3    23  THR23       0.0375
     30  N         36.4180  -16.2430   16.9120 N.3    25  VAL25      -0.1245
     31  CA        35.1500  -15.6810   16.4220 C.3    25  VAL25       0.1561
     32  C         33.9750  -16.5510   16.8540 C.2    25  VAL25       0.2260
     33  O         34.0220  -17.7780   16.7390 O.2    25  VAL25      -0.2867
     34  CB        35.1050  -15.3470   14.9010 C.3    25  VAL25       0.0252
     35  CG1       35.7770  -14.0200   14.6160 C.3    25  VAL25       0.0019
     36  CG2       35.7330  -16.4450   14.0580 C.3    25  VAL25       0.0019
     37  N         28.7840  -11.2740   14.3350 N.3    36  ALA36      -0.1245
     38  CA        29.8820  -12.2030   14.6090 C.3    36  ALA36       0.1562
     39  C         30.7310  -11.4500   15.6490 C.2    36  ALA36       0.2260
     40  O         31.0050  -10.2570   15.4650 O.2    36  ALA36      -0.2867
     41  CB        30.6830  -12.4660   13.3430 C.3    36  ALA36       0.0290
     42  N         34.1940  -11.1360   17.8010 N.3    38  LYS38      -0.1245
     43  CA        35.6060  -11.5080   17.8090 C.3    38  LYS38       0.1561
     44  C         36.1710  -11.2500   19.2150 C.2    38  LYS38       0.2260
     45  O         35.9990  -10.1450   19.7300 O.2    38  LYS38      -0.2867
     46  CB        36.3360  -10.6880   16.7410 C.3    38  LYS38       0.0271
     47  CG        37.7250  -11.1600   16.3920 C.3    38  LYS38       0.0035
     48  CD        38.0820  -10.6330   15.0270 C.3    38  LYS38       0.0206
     49  CE        39.1690   -9.6010   15.0710 C.3    38  LYS38       0.1093
     50  NZ        39.9040   -9.5530   13.7830 N.3    38  LYS38      -0.1314
     51  N         42.7610   -2.0650   13.9880 N.3    51  GLU51      -0.1245
     52  CA        41.6700   -2.7100   13.2780 C.3    51  GLU51       0.1567
     53  C         40.3500   -1.9390   13.3690 C.2    51  GLU51       0.2260
     54  O         39.7960   -1.5830   12.3270 O.2    51  GLU51      -0.2867
     55  CB        41.5150   -4.1560   13.7670 C.3    51  GLU51       0.0388
     56  CG        40.2720   -4.8690   13.2600 C.3    51  GLU51       0.1160
     57  CD        40.3050   -6.3770   13.3710 C.2    51  GLU51       0.3649
     58  OE1       39.5900   -7.0340   12.5810 O.co2  51  GLU51      -0.2457
     59  OE2       41.0440   -6.9070   14.2340 O.co2  51  GLU51      -0.2457
     60  N         33.5440   -5.5630    5.3110 N.3    65  ILE65      -0.1245
     61  CA        32.7770   -6.0350    6.4740 C.3    65  ILE65       0.1561
     62  C         32.3230   -4.8730    7.3510 C.2    65  ILE65       0.2260
     63  O         33.1140   -3.9960    7.6620 O.2    65  ILE65      -0.2867
     64  CB        33.5630   -7.1350    7.2590 C.3    65  ILE65       0.0252
     65  CG1       32.6190   -7.9790    8.1140 C.3    65  ILE65       0.0019
     66  CG2       34.7480   -6.5820    8.0600 C.3    65  ILE65       0.0019
     67  CD1       33.0940   -9.3240    8.4840 C.3    65  ILE65       0.0001
     68  N         31.0840   -7.4590   14.4940 N.3    81  ILE81      -0.1231
     69  CA        31.2400   -7.2370   13.0610 C.3    81  ILE81       0.1692
     70  C         30.0670   -7.9280   12.3210 C.2    81  ILE81       0.2592
     71  O         29.3180   -8.6670   12.9630 O.2    81  ILE81      -0.2718
     72  CB        32.6830   -7.7240   12.6890 C.3    81  ILE81       0.0266
     73  CG1       33.1470   -7.1990   11.3480 C.3    81  ILE81       0.0019
     74  CG2       32.9410   -9.2140   12.8170 C.3    81  ILE81       0.0020
     75  CD1       34.2010   -6.1600   11.5020 C.3    81  ILE81       0.0001
     76  N         29.8850   -7.6710   11.0060 N.am   82  GLU82      -0.1966
     77  CA        28.8130   -8.2710   10.2060 C.3    82  GLU82       0.1733
     78  C         28.8850   -9.8180   10.1960 C.2    82  GLU82       0.2616
     79  O         29.9680  -10.3620    9.9970 O.2    82  GLU82      -0.2715
     80  CB        28.8740   -7.7230    8.7680 C.3    82  GLU82       0.0429
     81  CG        27.7360   -8.2220    7.8930 C.3    82  GLU82       0.1163
     82  CD        27.7070   -7.8030    6.4390 C.2    82  GLU82       0.3649
     83  OE1       28.3190   -6.7670    6.0910 O.co2  82  GLU82      -0.2457
     84  OE2       27.0100   -8.4870    5.6540 O.co2  82  GLU82      -0.2457
     85  N         27.7500  -10.5140   10.4150 N.am   83  LEU83      -0.1963
     86  CA        27.6960  -11.9840   10.3810 C.3    83  LEU83       0.1728
     87  C         27.4630  -12.4630    8.9480 C.2    83  LEU83       0.2616
     88  O         26.4600  -12.0890    8.3270 O.2    83  LEU83      -0.2715
     89  CB        26.6200  -12.5430   11.3300 C.3    83  LEU83       0.0311
     90  CG        26.4700  -14.0650   11.3990 C.3    83  LEU83       0.0022
     91  CD1       27.6750  -14.7370   12.0650 C.3    83  LEU83       0.0001
     92  CD2       25.2540  -14.4210   12.1570 C.3    83  LEU83       0.0001
     93  N         28.4010  -13.2850    8.4270 N.am   84  CYS84      -0.1954
     94  CA        28.3730  -13.7970    7.0550 C.3    84  CYS84       0.1843
     95  C         28.0550  -15.3010    6.9670 C.2    84  CYS84       0.2625
     96  O         27.9470  -15.9670    8.0000 O.2    84  CYS84      -0.2714
     97  CB        29.6670  -13.4450    6.3330 C.3    84  CYS84       0.0997
     98  SG        30.3040  -11.7940    6.7200 S.3    84  CYS84      -0.0797
     99  N         27.8420  -15.8100    5.7290 N.am   85  ALA85      -0.1963
    100  CA        27.5100  -17.2110    5.4390 C.3    85  ALA85       0.1728
    101  C         28.6730  -18.1420    5.7450 C.2    85  ALA85       0.2616
    102  O         28.5040  -19.1010    6.4910 O.2    85  ALA85      -0.2715
    103  CB        27.0890  -17.3570    3.9850 C.3    85  ALA85       0.0334
    104  N         29.8500  -17.8560    5.1620 N.am   86  ALA86      -0.1963
    105  CA        31.0970  -18.6260    5.3020 C.3    86  ALA86       0.1728
    106  C         32.3060  -17.7570    4.8030 C.2    86  ALA86       0.2616
    107  O         32.1070  -16.5860    4.4370 O.2    86  ALA86      -0.2715
    108  CB        30.9980  -19.9250    4.5040 C.3    86  ALA86       0.0334
    109  N         33.5430  -18.3120    4.8560 N.am   87  THR87      -0.1951
    110  CA        34.7520  -17.6460    4.3630 C.3    87  THR87       0.1897
    111  C         34.9200  -18.0940    2.9000 C.2    87  THR87       0.2313
    112  O         34.1290  -18.9200    2.3950 O.2    87  THR87      -0.2863
    113  CB        36.0130  -17.9820    5.2120 C.3    87  THR87       0.1794
    114  OG1       36.4010  -19.3380    4.9950 O.3    87  THR87      -0.2208
    115  CG2       35.8290  -17.7380    6.6940 C.3    87  THR87       0.0378
    116  N         36.2750  -21.7910    3.0320 N.3    90  GLU90      -0.1245
    117  CA        35.2270  -22.8150    3.1750 C.3    90  GLU90       0.1567
    118  C         34.4590  -22.9210    1.8690 C.2    90  GLU90       0.2260
    119  O         34.1590  -24.0250    1.4560 O.2    90  GLU90      -0.2867
    120  CB        34.2610  -22.5240    4.3390 C.3    90  GLU90       0.0388
    121  CG        34.9400  -22.4670    5.6960 C.3    90  GLU90       0.1160
    122  CD        34.2180  -21.6960    6.7850 C.2    90  GLU90       0.3649
    123  OE1       33.7440  -20.5670    6.5170 O.co2  90  GLU90      -0.2457
    124  OE2       34.1930  -22.1900    7.9340 O.co2  90  GLU90      -0.2457
    125  N         40.8120  -16.9640    3.9980 N.3   131  HIS131     -0.1226
    126  CA        40.2520  -17.0040    5.3520 C.3   131  HIS131      0.1752
    127  C         39.5640  -15.6760    5.7300 C.2   131  HIS131      0.2596
    128  O         38.5370  -15.7010    6.3940 O.2   131  HIS131     -0.2718
    129  CB        41.3480  -17.3720    6.3680 C.3   131  HIS131      0.0759
    130  CG        40.8750  -17.4500    7.8010 C.ar  131  HIS131      0.0818
    131  ND1       40.0730  -18.4980    8.2510 N.ar  131  HIS131     -0.2268
    132  CD2       41.1460  -16.6320    8.8520 C.ar  131  HIS131      0.1154
    133  CE1       39.8650  -18.2650    9.5420 C.ar  131  HIS131      0.1986
    134  NE2       40.4840  -17.1540    9.9500 N.ar  131  HIS131     -0.2212
    135  N         40.1290  -14.5400    5.2820 N.am  132  ASN132     -0.1974
    136  CA        39.6980  -13.1490    5.5090 C.3   132  ASN132      0.1688
    137  C         38.6920  -12.6550    4.4800 C.2   132  ASN132      0.2292
    138  O         38.0450  -11.6230    4.6970 O.2   132  ASN132     -0.2864
    139  CB        40.9070  -12.2150    5.4810 C.3   132  ASN132      0.1181
    140  CG        41.9610  -12.5820    6.4740 C.2   132  ASN132      0.2629
    141  OD1       43.1390  -12.4480    6.1970 O.2   132  ASN132     -0.2716
    142  ND2       41.5720  -13.0690    7.6520 N.am  132  ASN132     -0.0877
    143  N         35.2700  -12.9050    3.1090 N.3   134  LEU134     -0.1245
    144  CA        34.0370  -13.5530    3.5580 C.3   134  LEU134      0.1561
    145  C         32.9390  -13.4340    2.5400 C.2   134  LEU134      0.2260
    146  O         32.9630  -12.5150    1.7220 O.2   134  LEU134     -0.2867
    147  CB        33.5810  -13.0770    4.9560 C.3   134  LEU134      0.0270
    148  CG        34.6930  -12.8960    6.0190 C.3   134  LEU134      0.0019
    149  CD1       34.1740  -12.2300    7.2090 C.3   134  LEU134      0.0001
    150  CD2       35.3250  -14.2140    6.4240 C.3   134  LEU134      0.0001
    151  N         38.0570   -8.5680    5.4280 N.3   149  SER149     -0.1202
    152  CA        37.7430   -8.5730    6.8620 C.3   149  SER149      0.2020
    153  C         38.8720   -8.4240    7.9070 C.2   149  SER149      0.2618
    154  O         38.6160   -7.7480    8.9040 O.2   149  SER149     -0.2717
    155  CB        36.9510   -9.8220    7.2330 C.3   149  SER149      0.2103
    156  OG        37.7610  -10.9840    7.2760 O.3   149  SER149     -0.2182
    157  N         40.0140   -9.1180    7.8050 N.am  150  ASP150     -0.1973
    158  CA        41.0000   -9.0400    8.8940 C.3   150  ASP150      0.1709
    159  C         41.8080   -7.7360    8.8790 C.2   150  ASP150      0.2293
    160  O         42.9010   -7.6690    8.3020 O.2   150  ASP150     -0.2864
    161  CB        41.9180  -10.2600    8.8630 C.3   150  ASP150      0.1436
    162  CG        42.1690  -10.9530   10.1780 C.2   150  ASP150      0.3671
    163  OD1       42.0930  -10.2810   11.2310 O.co2 150  ASP150     -0.2456
    164  OD2       42.4670  -12.1630   10.1570 O.co2 150  ASP150     -0.2456
@<TRIPOS>BOND
     1   119   118    2
     2   146   145    2
     3   118   117    1
     4   112   111    2
     5   145   144    1
     6   111   110    1
     7   116   117    1
     8   143   144    1
     9   117   120    1
    10   144   147    1
    11   103   100    1
    12   125   126    1
    13   120   121    1
    14   110   109    1
    15   110   113    1
    16   107   106    2
    17   137   138    2
    18   137   136    1
    19   108   105    1
    20   106   109   am
    21   106   105    1
    22   147   148    1
    23   114   113    1
    24   104   105    1
    25   104   101   am
    26   113   115    1
    27   135   136    1
    28   135   127   am
    29    60    61    1
    30   126   127    1
    31   126   129    1
    32   151   152    1
    33   100    99    1
    34   100   101    1
    35   139   136    1
    36   139   140    1
    37    84    82   ar
    38   121   122    1
    39    99    95   am
    40   127   128    2
    41   101   102    2
    42   148   150    1
    43   148   149    1
    44    83    82   ar
    45   141   140    2
    46    97    98    1
    47    97    94    1
    48   129   130    1
    49    82    81    1
    50   140   142   am
    51    61    64    1
    52    61    62    1
    53   123   122   ar
    54   122   124   ar
    55   152   155    1
    56   152   153    1
    57    95    94    1
    58    95    96    2
    59    94    93    1
    60   155   156    1
    61    64    66    1
    62    64    65    1
    63    62    63    2
    64   130   131   ar
    65   130   132   ar
    66   157   153   am
    67   157   158    1
    68    81    80    1
    69   153   154    2
    70    65    67    1
    71   131   133   ar
    72   160   159    2
    73    88    87    2
    74    93    87   am
    75    80    77    1
    76   132   134   ar
    77   161   158    1
    78   161   162    1
    79   159   158    1
    80    87    86    1
    81   133   134   ar
    82    79    78    2
    83   164   162   ar
    84   162   163   ar
    85    78    77    1
    86    78    85   am
    87    77    76    1
    88    86    85    1
    89    86    89    1
    90    76    70   am
    91    89    90    1
    92    73    75    1
    93    73    72    1
    94    90    91    1
    95    90    92    1
    96    70    71    2
    97    70    69    1
    98    54    53    2
    99    58    57   ar
   100     4     3    2
   101    72    74    1
   102    72    69    1
   103     8     6    1
   104    69    68    1
   105    56    57    1
   106    56    55    1
   107    52    53    1
   108    52    55    1
   109    52    51    1
   110    16    15    2
   111    41    38    1
   112    57    59   ar
   113     7     6    1
   114     5     6    1
   115     5     2    1
   116     3     2    1
   117     3     9   am
   118    50    49    1
   119    10     9    1
   120    10    11    1
   121    36    34    1
   122     2     1    1
   123    15    14    1
   124    37    38    1
   125    13    11   am
   126    13    14    1
   127    38    39    1
   128    35    34    1
   129    11    12    2
   130    34    31    1
   131    48    49    1
   132    48    47    1
   133    14    17    1
   134    40    39    2
   135    17    18    1
   136    19    18   ar
   137    19    21   ar
   138    18    20   ar
   139    47    46    1
   140    31    32    1
   141    31    30    1
   142    29    27    1
   143    21    22   ar
   144    33    32    2
   145    46    43    1
   146    20    22   ar
   147    26    25    2
   148    42    43    1
   149    43    44    1
   150    27    28    1
   151    27    24    1
   152    25    24    1
   153    24    23    1
   154    44    45    2
