@<TRIPOS>MOLECULE
tmp/4z7iB00.pdb
 238 226 0 0 0
SMALL
GASTEIGER

@<TRIPOS>ATOM
      1  N          1.2040  -40.7890   11.9200 N.3   132  GLN132     -0.1245
      2  CA         1.4510  -40.2490   13.2490 C.3   132  GLN132      0.1566
      3  C          0.1520  -40.3650   14.0370 C.2   132  GLN132      0.2260
      4  O         -0.8300  -39.6940   13.7260 O.2   132  GLN132     -0.2867
      5  CB         1.9250  -38.7980   13.1720 C.3   132  GLN132      0.0367
      6  CG         2.2290  -38.1600   14.5200 C.3   132  GLN132      0.0905
      7  CD         3.7180  -37.9880   14.7520 C.2   132  GLN132      0.2608
      8  OE1        4.1450  -37.5160   15.8040 O.2   132  GLN132     -0.2717
      9  NE2        4.5180  -38.3670   13.7630 N.am  132  GLN132     -0.0878
     10  N         -0.1120  -40.4160   17.6370 N.3   134  GLU134     -0.1231
     11  CA        -0.1360  -39.7010   18.9050 C.3   134  GLU134      0.1684
     12  C         -0.7810  -38.3330   18.7000 C.2   134  GLU134      0.2434
     13  O         -0.3810  -37.5820   17.8090 O.2   134  GLU134     -0.2733
     14  CB         1.2750  -39.5560   19.4740 C.3   134  GLU134      0.0402
     15  CG         1.3290  -39.2060   20.9510 C.3   134  GLU134      0.1161
     16  CD         2.7260  -39.3280   21.5270 C.2   134  GLU134      0.3649
     17  OE1        3.6940  -39.3790   20.7400 O.co2 134  GLU134     -0.2457
     18  OE2        2.8570  -39.3720   22.7680 O.co2 134  GLU134     -0.2457
     19  N         -1.7850  -38.0040   19.5260 N.am  135  PRO135     -0.2729
     20  CA        -2.2090  -38.8520   20.6420 C.3   135  PRO135      0.1401
     21  C         -3.5370  -39.5910   20.4370 C.2   135  PRO135      0.2269
     22  O         -3.7740  -40.5860   21.1240 O.2   135  PRO135     -0.2865
     23  CB        -2.3440  -37.8400   21.7800 C.3   135  PRO135      0.0296
     24  CG        -2.8470  -36.5960   21.0790 C.3   135  PRO135      0.0237
     25  CD        -2.3160  -36.6360   19.6550 C.3   135  PRO135      0.0939
     26  N          6.0620  -35.5240   10.8140 N.3   267  GLY267     -0.1210
     27  CA         6.0270  -35.6070   12.2600 C.3   267  GLY267      0.1956
     28  C          7.0790  -36.5370   12.8230 C.2   267  GLY267      0.2612
     29  O          7.0060  -37.7490   12.6370 O.2   267  GLY267     -0.2717
     30  N          8.0620  -35.9690   13.5130 N.am  268  ALA268     -0.1965
     31  CA         9.0550  -36.7810   14.1930 C.3   268  ALA268      0.1728
     32  C          8.3880  -37.4250   15.4020 C.2   268  ALA268      0.2616
     33  O          7.7230  -36.7480   16.1890 O.2   268  ALA268     -0.2715
     34  CB        10.2640  -35.9460   14.6040 C.3   268  ALA268      0.0334
     35  N          8.6140  -38.7320   15.5540 N.am  269  MET269     -0.1963
     36  CA         7.8460  -39.5800   16.4730 C.3   269  MET269      0.1736
     37  C          8.6340  -40.8180   16.9140 C.2   269  MET269      0.2616
     38  O          9.5790  -41.2480   16.2450 O.2   269  MET269     -0.2715
     39  CB         6.5430  -40.0270   15.7930 C.3   269  MET269      0.0427
     40  CG         5.5980  -40.9410   16.5950 C.3   269  MET269      0.0599
     41  SD         4.3770  -40.3100   17.7790 S.3   269  MET269     -0.1393
     42  CE         3.3570  -41.7920   17.8420 C.3   269  MET269      0.0692
     43  N          8.2070  -41.3970   18.0340 N.am  270  GLU270     -0.1977
     44  CA         8.9520  -42.4500   18.7080 C.3   270  GLU270      0.1602
     45  C          8.2620  -43.8230   18.6360 C.2   270  GLU270      0.2287
     46  O          8.3270  -44.6020   19.5900 O.2   270  GLU270     -0.2864
     47  CB         9.1890  -42.0380   20.1720 C.3   270  GLU270      0.0415
     48  CG         7.9520  -42.0720   21.0550 C.3   270  GLU270      0.1163
     49  CD         7.1840  -40.7660   21.0730 C.2   270  GLU270      0.3649
     50  OE1        6.4300  -40.5380   22.0450 O.co2 270  GLU270     -0.2457
     51  OE2        7.3020  -39.9840   20.1060 O.co2 270  GLU270     -0.2457
     52  N         12.2800  -35.8490   10.5490 N.3   278  ARG278     -0.1245
     53  CA        12.2760  -34.9540    9.4080 C.3   278  ARG278      0.1563
     54  C         13.6460  -35.0610    8.7480 C.2   278  ARG278      0.2260
     55  O         14.6670  -35.0090    9.4380 O.2   278  ARG278     -0.2867
     56  CB        11.9690  -33.5230    9.8450 C.3   278  ARG278      0.0307
     57  CG        10.4860  -33.2490   10.0070 C.3   278  ARG278      0.0489
     58  CD        10.2210  -31.8230   10.4490 C.3   278  ARG278      0.2205
     59  NE        10.5940  -30.8540    9.4250 N.pl3 278  ARG278     -0.0865
     60  CZ        11.3780  -29.8020    9.6400 C.cat 278  ARG278      0.5346
     61  NH1       11.8750  -29.5750   10.8490 N.pl3 278  ARG278      0.1354
     62  NH2       11.6620  -28.9740    8.6450 N.pl3 278  ARG278      0.1354
     63  N         16.5080  -32.9690    9.8290 N.3   281  THR281     -0.1218
     64  CA        17.0500  -33.1010   11.1830 C.3   281  THR281      0.1862
     65  C         17.8650  -34.3720   11.4420 C.2   281  THR281      0.2287
     66  O         18.2670  -34.6270   12.5780 O.2   281  THR281     -0.2866
     67  CB        15.9220  -33.0420   12.2310 C.3   281  THR281      0.1770
     68  OG1       14.9600  -34.0690   11.9590 O.3   281  THR281     -0.2211
     69  CG2       15.2370  -31.6850   12.1970 C.3   281  THR281      0.0375
     70  N         21.8690  -31.0580   17.3680 N.3   296  LEU296     -0.1245
     71  CA        20.4670  -31.3930   17.1390 C.3   296  LEU296      0.1561
     72  C         20.2580  -32.8420   16.7040 C.2   296  LEU296      0.2260
     73  O         19.4040  -33.5340   17.2530 O.2   296  LEU296     -0.2867
     74  CB        19.8600  -30.4550   16.0930 C.3   296  LEU296      0.0270
     75  CG        18.4000  -30.7400   15.7340 C.3   296  LEU296      0.0019
     76  CD1       17.4710  -30.1100   16.7540 C.3   296  LEU296      0.0001
     77  CD2       18.0860  -30.2430   14.3350 C.3   296  LEU296      0.0001
     78  N         20.9820  -34.9110   19.6880 N.3   299  LYS299     -0.1231
     79  CA        19.9830  -34.6960   20.7290 C.3   299  LYS299      0.1693
     80  C         18.6390  -35.3320   20.3930 C.2   299  LYS299      0.2591
     81  O         17.9590  -35.8600   21.2720 O.2   299  LYS299     -0.2718
     82  CB        19.7960  -33.1970   20.9790 C.3   299  LYS299      0.0285
     83  CG        19.6770  -32.8150   22.4400 C.3   299  LYS299      0.0035
     84  CD        19.4110  -31.3260   22.6000 C.3   299  LYS299      0.0206
     85  CE        20.5850  -30.4910   22.1130 C.3   299  LYS299      0.1093
     86  NZ        20.2090  -29.0570   21.9700 N.3   299  LYS299     -0.1314
     87  N         18.2620  -35.2870   19.1190 N.am  300  ILE300     -0.1980
     88  CA        16.9350  -35.7380   18.7120 C.3   300  ILE300      0.1595
     89  C         16.8680  -37.2630   18.6960 C.2   300  ILE300      0.2287
     90  O         15.8060  -37.8470   18.8880 O.2   300  ILE300     -0.2864
     91  CB        16.5460  -35.1890   17.3130 C.3   300  ILE300      0.0276
     92  CG1       15.0820  -35.4960   16.9940 C.3   300  ILE300      0.0022
     93  CG2       17.4620  -35.7480   16.2310 C.3   300  ILE300      0.0022
     94  CD1       14.5680  -34.8100   15.7440 C.3   300  ILE300      0.0001
     95  N         16.7030  -38.6130   22.4210 N.3   303  HIS303     -0.1226
     96  CA        15.3500  -38.4290   22.9260 C.3   303  HIS303      0.1752
     97  C         14.4280  -39.5350   22.4190 C.2   303  HIS303      0.2595
     98  O         13.5910  -40.0460   23.1610 O.2   303  HIS303     -0.2718
     99  CB        14.8120  -37.0580   22.5210 C.3   303  HIS303      0.0759
    100  CG        13.4470  -36.7640   23.0580 C.ar  303  HIS303      0.0818
    101  ND1       13.2430  -36.1950   24.2960 N.ar  303  HIS303     -0.2268
    102  CD2       12.2160  -36.9710   22.5320 C.ar  303  HIS303      0.1154
    103  CE1       11.9470  -36.0560   24.5070 C.ar  303  HIS303      0.1986
    104  NE2       11.3020  -36.5180   23.4510 N.ar  303  HIS303     -0.2212
    105  N         14.5890  -39.8940   21.1480 N.am  304  GLU304     -0.1979
    106  CA        13.7500  -40.9090   20.5180 C.3   304  GLU304      0.1602
    107  C         14.0350  -42.3010   21.0690 C.2   304  GLU304      0.2287
    108  O         13.1140  -43.0810   21.3020 O.2   304  GLU304     -0.2864
    109  CB        13.9530  -40.9010   19.0010 C.3   304  GLU304      0.0415
    110  CG        13.4230  -39.6650   18.2820 C.3   304  GLU304      0.1163
    111  CD        11.9150  -39.6470   18.1170 C.2   304  GLU304      0.3649
    112  OE1       11.1860  -39.8070   19.1190 O.co2 304  GLU304     -0.2457
    113  OE2       11.4590  -39.4550   16.9720 O.co2 304  GLU304     -0.2457
    114  N         12.8120  -43.0350   24.6580 N.3   307  HIS307     -0.1241
    115  CA        11.3590  -43.2010   24.6320 C.3   307  HIS307      0.1621
    116  C         10.9470  -44.6650   24.5500 C.2   307  HIS307      0.2264
    117  O          9.8470  -45.0360   24.9550 O.2   307  HIS307     -0.2867
    118  CB        10.7620  -42.4470   23.4460 C.3   307  HIS307      0.0745
    119  CG        10.0730  -41.1770   23.8220 C.ar  307  HIS307      0.0817
    120  ND1        9.4000  -41.0200   25.0140 N.ar  307  HIS307     -0.2268
    121  CD2        9.9500  -40.0020   23.1610 C.ar  307  HIS307      0.1154
    122  CE1        8.8910  -39.8030   25.0710 C.ar  307  HIS307      0.1986
    123  NE2        9.2100  -39.1640   23.9600 N.ar  307  HIS307     -0.2212
    124  N          7.6930  -37.8040   28.3820 N.3   326  GLU326     -0.1245
    125  CA         8.3990  -36.7260   27.6970 C.3   326  GLU326      0.1567
    126  C          9.3430  -35.9830   28.6280 C.2   326  GLU326      0.2260
    127  O         10.3700  -35.4740   28.1930 O.2   326  GLU326     -0.2867
    128  CB         7.4010  -35.7500   27.0680 C.3   326  GLU326      0.0388
    129  CG         6.6380  -36.3280   25.8820 C.3   326  GLU326      0.1160
    130  CD         7.5420  -36.6930   24.7120 C.2   326  GLU326      0.3649
    131  OE1        8.7140  -36.2570   24.6810 O.co2 326  GLU326     -0.2457
    132  OE2        7.0870  -37.4470   23.8280 O.co2 326  GLU326     -0.2457
    133  N         17.7230  -37.5230   27.4720 N.3   333  GLU333     -0.1245
    134  CA        18.3100  -36.7430   26.3910 C.3   333  GLU333      0.1567
    135  C         19.5880  -36.0430   26.8380 C.2   333  GLU333      0.2260
    136  O         20.6910  -36.4140   26.4340 O.2   333  GLU333     -0.2867
    137  CB        17.2880  -35.7170   25.8970 C.3   333  GLU333      0.0388
    138  CG        17.7320  -34.8130   24.7660 C.3   333  GLU333      0.1160
    139  CD        16.5990  -33.9270   24.2770 C.2   333  GLU333      0.3649
    140  OE1       16.8650  -32.7840   23.8550 O.co2 333  GLU333     -0.2457
    141  OE2       15.4330  -34.3730   24.3270 O.co2 333  GLU333     -0.2457
    142  N         -4.1840  -32.5270   23.4940 N.3   380  GLU380     -0.1245
    143  CA        -3.3720  -31.7820   22.5360 C.3   380  GLU380      0.1567
    144  C         -2.5360  -30.7110   23.2410 C.2   380  GLU380      0.2260
    145  O         -1.3550  -30.5360   22.9420 O.2   380  GLU380     -0.2867
    146  CB        -4.2610  -31.1470   21.4620 C.3   380  GLU380      0.0388
    147  CG        -3.5770  -30.9480   20.1180 C.3   380  GLU380      0.1160
    148  CD        -3.4500  -32.2380   19.3260 C.2   380  GLU380      0.3649
    149  OE1       -2.7960  -32.2190   18.2620 O.co2 380  GLU380     -0.2457
    150  OE2       -4.0100  -33.2680   19.7600 O.co2 380  GLU380     -0.2457
    151  N          1.0740  -31.2970   24.9340 N.3   383  PHE383     -0.1227
    152  CA         2.2800  -31.3980   24.1240 C.3   383  PHE383      0.1736
    153  C          2.9890  -30.0610   23.9400 C.2   383  PHE383      0.2595
    154  O          3.1270  -29.5750   22.8170 O.2   383  PHE383     -0.2718
    155  CB         1.9350  -31.9910   22.7590 C.3   383  PHE383      0.0547
    156  CG         1.5310  -33.4360   22.8160 C.ar  383  PHE383     -0.0202
    157  CD1        2.4820  -34.4360   22.9480 C.ar  383  PHE383     -0.0042
    158  CD2        0.1940  -33.7940   22.7580 C.ar  383  PHE383     -0.0042
    159  CE1        2.1050  -35.7640   23.0040 C.ar  383  PHE383     -0.0003
    160  CE2       -0.1870  -35.1160   22.8180 C.ar  383  PHE383     -0.0003
    161  CZ         0.7680  -36.1030   22.9400 C.ar  383  PHE383     -0.0000
    162  N          3.4380  -29.4690   25.0420 N.am  384  ASP384     -0.1974
    163  CA         4.1580  -28.2030   24.9750 C.3   384  ASP384      0.1709
    164  C          5.4970  -28.2980   25.7070 C.2   384  ASP384      0.2293
    165  O          5.7720  -29.2860   26.3880 O.2   384  ASP384     -0.2864
    166  CB         3.2960  -27.0650   25.5410 C.3   384  ASP384      0.1436
    167  CG         3.0060  -27.2230   27.0230 C.2   384  ASP384      0.3671
    168  OD1        3.1750  -28.3420   27.5520 O.co2 384  ASP384     -0.2456
    169  OD2        2.5890  -26.2310   27.6590 O.co2 384  ASP384     -0.2456
    170  N          7.8510  -30.8840   28.8760 N.3   388  TYR388     -0.1227
    171  CA         9.0900  -31.5400   28.4640 C.3   388  TYR388      0.1736
    172  C         10.2920  -31.1410   29.3130 C.2   388  TYR388      0.2595
    173  O         11.1410  -31.9770   29.6160 O.2   388  TYR388     -0.2718
    174  CB         9.4020  -31.2410   26.9920 C.3   388  TYR388      0.0548
    175  CG         8.4910  -31.9050   25.9740 C.ar  388  TYR388     -0.0200
    176  CD1        7.1630  -32.1900   26.2670 C.ar  388  TYR388     -0.0009
    177  CD2        8.9700  -32.2510   24.7150 C.ar  388  TYR388     -0.0009
    178  CE1        6.3380  -32.7950   25.3390 C.ar  388  TYR388      0.0417
    179  CE2        8.1500  -32.8590   23.7800 C.ar  388  TYR388      0.0417
    180  CZ         6.8360  -33.1280   24.0980 C.ar  388  TYR388      0.1957
    181  OH         6.0160  -33.7320   23.1730 O.3   388  TYR388     -0.2866
    182  N         10.3700  -29.8700   29.6940 N.am  389  PHE389     -0.1976
    183  CA        11.5790  -29.3620   30.3360 C.3   389  PHE389      0.1639
    184  C         11.4520  -29.1990   31.8500 C.2   389  PHE389      0.2290
    185  O         12.4230  -29.4100   32.5760 O.2   389  PHE389     -0.2864
    186  CB        11.9880  -28.0290   29.7020 C.3   389  PHE389      0.0560
    187  CG        12.5800  -28.1760   28.3280 C.ar  389  PHE389     -0.0200
    188  CD1       13.8970  -28.5710   28.1670 C.ar  389  PHE389     -0.0042
    189  CD2       11.8200  -27.9200   27.1990 C.ar  389  PHE389     -0.0042
    190  CE1       14.4440  -28.7160   26.9060 C.ar  389  PHE389     -0.0003
    191  CE2       12.3630  -28.0590   25.9340 C.ar  389  PHE389     -0.0003
    192  CZ        13.6780  -28.4570   25.7880 C.ar  389  PHE389     -0.0000
    193  N          5.1780  -23.1530    6.0780 N.3   749  GLN749     -0.1245
    194  CA         5.6810  -23.6470    7.3540 C.3   749  GLN749      0.1566
    195  C          6.7710  -22.7180    7.8970 C.2   749  GLN749      0.2260
    196  O          6.9870  -22.6280    9.1090 O.2   749  GLN749     -0.2867
    197  CB         6.2180  -25.0700    7.1800 C.3   749  GLN749      0.0367
    198  CG         7.0750  -25.5820    8.3220 C.3   749  GLN749      0.0905
    199  CD         8.3790  -26.1830    7.8360 C.2   749  GLN749      0.2608
    200  OE1        8.5380  -26.4700    6.6490 O.2   749  GLN749     -0.2717
    201  NE2        9.3260  -26.3610    8.7490 N.am  749  GLN749     -0.0878
    202  N          6.0250  -18.7420   10.2490 N.3   752  SER752     -0.1217
    203  CA         6.1710  -18.4730   11.6770 C.3   752  SER752      0.1889
    204  C          7.5450  -17.8740   11.9680 C.2   752  SER752      0.2288
    205  O          7.6600  -16.8770   12.6820 O.2   752  SER752     -0.2866
    206  CB         5.9610  -19.7470   12.4940 C.3   752  SER752      0.2089
    207  OG         6.2940  -19.5430   13.8550 O.3   752  SER752     -0.2183
    208  N          8.4550  -13.9150   13.0410 N.3   756  ARG756     -0.1245
    209  CA         9.2380  -13.8220   14.2680 C.3   756  ARG756      0.1563
    210  C         10.4390  -12.8830   14.1410 C.2   756  ARG756      0.2260
    211  O         10.5940  -11.9560   14.9370 O.2   756  ARG756     -0.2867
    212  CB         9.7110  -15.2220   14.6730 C.3   756  ARG756      0.0307
    213  CG        10.4660  -15.3020   15.9830 C.3   756  ARG756      0.0489
    214  CD        10.4450  -16.7290   16.5070 C.3   756  ARG756      0.2205
    215  NE        11.4560  -16.9640   17.5320 N.pl3 756  ARG756     -0.0865
    216  CZ        11.6180  -18.1200   18.1660 C.cat 756  ARG756      0.5346
    217  NH1       12.5650  -18.2470   19.0860 N.pl3 756  ARG756      0.1354
    218  NH2       10.8310  -19.1490   17.8820 N.pl3 756  ARG756      0.1354
    219  N          1.1030  -25.0140   17.5420 N.3   788  TYR788     -0.1241
    220  CA         2.4040  -24.4940   17.9560 C.3   788  TYR788      0.1605
    221  C          2.8230  -23.2830   17.1260 C.2   788  TYR788      0.2264
    222  O          3.5090  -22.3900   17.6170 O.2   788  TYR788     -0.2867
    223  CB         3.4720  -25.5880   17.8610 C.3   788  TYR788      0.0534
    224  CG         3.7660  -26.0950   16.4630 C.ar  788  TYR788     -0.0201
    225  CD1        2.8980  -26.9840   15.8220 C.ar  788  TYR788     -0.0009
    226  CD2        4.9650  -25.7640   15.8180 C.ar  788  TYR788     -0.0009
    227  CE1        3.2150  -27.5390   14.5930 C.ar  788  TYR788      0.0417
    228  CE2        5.2870  -26.3170   14.5870 C.ar  788  TYR788      0.0417
    229  CZ         4.4070  -27.2090   13.9860 C.ar  788  TYR788      0.1957
    230  OH         4.7330  -27.7970   12.7980 O.3   788  TYR788     -0.2866
    231  N          3.1940  -19.3650   18.4830 N.3   792  ASN792     -0.1240
    232  CA         4.4600  -18.6870   18.2260 C.3   792  ASN792      0.1653
    233  C          4.2920  -17.3660   17.4780 C.2   792  ASN792      0.2266
    234  O          5.0110  -16.4090   17.7420 O.2   792  ASN792     -0.2867
    235  CB         5.4010  -19.6040   17.4450 C.3   792  ASN792      0.1155
    236  CG         5.9230  -20.7540   18.2850 C.2   792  ASN792      0.2627
    237  OD1        5.5400  -20.9170   19.4430 O.2   792  ASN792     -0.2716
    238  ND2        6.7970  -21.5660   17.6990 N.am  792  ASN792     -0.0877
@<TRIPOS>BOND
     1   193   194    1
     2   200   199    2
     3   197   194    1
     4   197   198    1
     5   194   195    1
     6   199   198    1
     7   199   201   am
     8   195   196    2
     9    62    60    1
    10    54    53    1
    11    54    55    2
    12    53    56    1
    13    53    52    1
    14    59    60    2
    15    59    58    1
    16    60    61    1
    17    63    64    1
    18    56    57    1
    19    57    58    1
    20   202   203    1
    21    26    27    1
    22    64    65    1
    23    64    67    1
    24    65    66    2
    25   203   204    1
    26   203   206    1
    27     1     2    1
    28    68    67    1
    29   204   205    2
    30    69    67    1
    31    27    28    1
    32   206   207    1
    33    29    28    2
    34   230   229    1
    35    28    30   am
    36   208   209    1
    37     5     2    1
    38     5     6    1
    39     2     3    1
    40    30    31    1
    41     4     3    2
    42     9     7   am
    43   229   228   ar
    44   229   227   ar
    45   210   209    1
    46   210   211    2
    47    31    34    1
    48    31    32    1
    49   209   212    1
    50    77    75    1
    51     6     7    1
    52   228   226   ar
    53   227   225   ar
    54   212   213    1
    55     7     8    2
    56    32    35   am
    57    32    33    2
    58    35    36    1
    59    75    74    1
    60    75    76    1
    61    94    92    1
    62    39    36    1
    63    39    40    1
    64   226   224   ar
    65   225   224   ar
    66   213   214    1
    67    74    71    1
    68    93    91    1
    69    38    37    2
    70   224   223    1
    71    36    37    1
    72   214   215    1
    73    40    41    1
    74    72    71    1
    75    72    73    2
    76    37    43   am
    77   113   111   ar
    78    92    91    1
    79   221   222    2
    80   221   220    1
    81    71    70    1
    82    91    88    1
    83   235   232    1
    84   235   236    1
    85   233   234    2
    86   233   232    1
    87   215   216    2
    88   219   220    1
    89    10    11    1
    90   238   236   am
    91    41    42    1
    92    13    12    2
    93   223   220    1
    94   218   216    1
    95    43    44    1
    96   111   110    1
    97   111   112   ar
    98   216   217    1
    99   232   231    1
   100   149   148   ar
   101   110   109    1
   102   236   237    2
   103    45    44    1
   104    45    46    2
   105    89    88    1
   106    89    90    2
   107    12    11    1
   108    12    19   am
   109    44    47    1
   110    88    87    1
   111    11    14    1
   112   109   106    1
   113    87    80   am
   114   148   150   ar
   115   148   147    1
   116    14    15    1
   117    19    25    1
   118    19    20    1
   119    25    24    1
   120    78    79    1
   121    51    49   ar
   122   147   146    1
   123    47    48    1
   124    80    79    1
   125    80    81    2
   126    21    20    1
   127    21    22    2
   128   106   107    1
   129   106   105    1
   130    20    23    1
   131    79    82    1
   132    17    16   ar
   133    15    16    1
   134    82    83    1
   135    48    49    1
   136   107   108    2
   137    49    50   ar
   138    24    23    1
   139   105    97   am
   140   146   143    1
   141    16    18   ar
   142    86    85    1
   143    85    84    1
   144    97    96    1
   145    97    98    2
   146    95    96    1
   147    83    84    1
   148    99    96    1
   149    99   100    1
   150   102   100   ar
   151   102   104   ar
   152   143   144    1
   153   143   142    1
   154   158   156   ar
   155   158   160   ar
   156   155   156    1
   157   155   152    1
   158   156   157   ar
   159   154   153    2
   160   160   161   ar
   161   161   159   ar
   162   145   144    2
   163   157   159   ar
   164   100   101   ar
   165   121   119   ar
   166   121   123   ar
   167   181   180    1
   168   118   119    1
   169   118   115    1
   170   104   103   ar
   171   179   180   ar
   172   179   177   ar
   173   119   120   ar
   174   132   130   ar
   175   140   139   ar
   176   153   152    1
   177   153   162   am
   178   123   122   ar
   179   180   178   ar
   180   152   151    1
   181   139   141   ar
   182   139   138    1
   183   101   103   ar
   184   116   115    1
   185   116   117    2
   186   115   114    1
   187   131   130   ar
   188   130   129    1
   189   177   175   ar
   190   138   137    1
   191   163   162    1
   192   163   166    1
   193   163   164    1
   194   120   122   ar
   195   178   176   ar
   196   166   167    1
   197   164   165    2
   198   192   191   ar
   199   192   190   ar
   200   129   128    1
   201   137   134    1
   202   191   189   ar
   203   175   176   ar
   204   175   174    1
   205   134   135    1
   206   134   133    1
   207   136   135    2
   208   190   188   ar
   209   174   171    1
   210   167   168   ar
   211   167   169   ar
   212   128   125    1
   213   189   187   ar
   214   125   124    1
   215   125   126    1
   216   188   187   ar
   217   127   126    2
   218   187   186    1
   219   171   170    1
   220   171   172    1
   221   172   173    2
   222   172   182   am
   223   182   183    1
   224   186   183    1
   225   183   184    1
   226   184   185    2
