@<TRIPOS>MOLECULE
tmp/4z7jA00.pdb
 75 70 0 0 0
SMALL
GASTEIGER

@<TRIPOS>ATOM
      1  N        -10.7810   20.3100   35.1120 N.3    10  GLY10      -0.1210
      2  CA       -12.1480   19.8400   35.0610 C.3    10  GLY10       0.1956
      3  C        -12.7450   19.4130   36.3740 C.2    10  GLY10       0.2612
      4  O        -13.9630   19.3350   36.4820 O.2    10  GLY10      -0.2717
      5  N        -11.9130   19.1540   37.3810 N.am   11  SER11      -0.1952
      6  CA       -12.4000   18.5990   38.6340 C.3    11  SER11       0.1924
      7  C        -11.4430   18.8480   39.7970 C.2    11  SER11       0.2314
      8  O        -10.2550   19.0650   39.5800 O.2    11  SER11      -0.2863
      9  CB       -12.6340   17.0940   38.4650 C.3    11  SER11       0.2116
     10  OG       -12.8430   16.4640   39.7070 O.3    11  SER11      -0.2180
     11  N        -10.4190   16.5700   41.5530 N.3    13  SER13      -0.1202
     12  CA        -9.4700   15.4590   41.4970 C.3    13  SER13       0.2020
     13  C         -8.2340   15.7930   40.6500 C.2    13  SER13       0.2618
     14  O         -7.2100   15.1260   40.7820 O.2    13  SER13      -0.2717
     15  CB       -10.1410   14.1910   40.9710 C.3    13  SER13       0.2103
     16  OG       -10.6390   14.3620   39.6610 O.3    13  SER13      -0.2182
     17  N         -8.3070   16.8350   39.8240 N.am   14  ASP14      -0.1973
     18  CA        -7.1550   17.2630   39.0340 C.3    14  ASP14       0.1709
     19  C         -6.1980   18.1460   39.8220 C.2    14  ASP14       0.2293
     20  O         -5.0780   18.3930   39.3730 O.2    14  ASP14      -0.2864
     21  CB        -7.6050   18.0400   37.7980 C.3    14  ASP14       0.1436
     22  CG        -8.4460   17.2060   36.8580 C.2    14  ASP14       0.3671
     23  OD1       -8.1820   15.9930   36.7500 O.co2  14  ASP14      -0.2456
     24  OD2       -9.3630   17.7700   36.2310 O.co2  14  ASP14      -0.2456
     25  N        -15.3130   22.6340   33.8360 N.3    38  ALA38      -0.1245
     26  CA       -15.5190   21.2650   33.3900 C.3    38  ALA38       0.1562
     27  C        -16.0670   21.2220   31.9710 C.2    38  ALA38       0.2260
     28  O        -17.1760   21.6920   31.7250 O.2    38  ALA38      -0.2867
     29  CB       -16.4690   20.5370   34.3560 C.3    38  ALA38       0.0290
     30  N        -17.3150   18.8540   30.2070 N.3    40  HIS40      -0.1226
     31  CA       -18.5240   18.0620   29.9970 C.3    40  HIS40       0.1752
     32  C        -19.6440   18.3960   30.9700 C.2    40  HIS40       0.2595
     33  O        -20.8200   18.3920   30.6010 O.2    40  HIS40      -0.2718
     34  CB       -18.1690   16.5780   30.0670 C.3    40  HIS40       0.0759
     35  CG       -17.1540   16.1810   29.0430 C.ar   40  HIS40       0.0818
     36  ND1      -15.9750   15.5530   29.3720 N.ar   40  HIS40      -0.2268
     37  CD2      -17.1290   16.3620   27.7020 C.ar   40  HIS40       0.1154
     38  CE1      -15.2730   15.3430   28.2710 C.ar   40  HIS40       0.1986
     39  NE2      -15.9500   15.8250   27.2450 N.ar   40  HIS40      -0.2212
     40  N        -19.2670   18.7130   32.2030 N.am   41  ARG41      -0.1980
     41  CA       -20.2470   18.9970   33.2370 C.3    41  ARG41       0.1597
     42  C        -20.6630   20.4710   33.2570 C.2    41  ARG41       0.2287
     43  O        -21.7590   20.7910   33.7160 O.2    41  ARG41      -0.2864
     44  CB       -19.6940   18.5630   34.6010 C.3    41  ARG41       0.0334
     45  CG       -19.3570   17.0590   34.6610 C.3    41  ARG41       0.0492
     46  CD       -18.8780   16.6340   36.0480 C.3    41  ARG41       0.2205
     47  NE       -18.6210   15.1960   36.1460 N.pl3  41  ARG41      -0.0865
     48  CZ       -17.5280   14.6640   36.6960 C.cat  41  ARG41       0.5346
     49  NH1      -16.5850   15.4520   37.1970 N.pl3  41  ARG41       0.1354
     50  NH2      -17.3790   13.3420   36.7470 N.pl3  41  ARG41       0.1354
     51  N         -6.7510   18.0580   32.2060 N.3    65  ALA65      -0.1231
     52  CA        -7.8680   17.1260   32.2190 C.3    65  ALA65       0.1694
     53  C         -7.3790   15.6990   32.0670 C.2    65  ALA65       0.2593
     54  O         -6.3340   15.4690   31.4640 O.2    65  ALA65      -0.2718
     55  CB        -8.8390   17.4570   31.0850 C.3    65  ALA65       0.0304
     56  N         -8.1550   14.7480   32.5800 N.am   66  GLY66      -0.1942
     57  CA        -7.8070   13.3370   32.4500 C.3    66  GLY66       0.2014
     58  C         -8.9080   12.5380   31.7840 C.2    66  GLY66       0.2639
     59  O        -10.0690   12.9700   31.7500 O.2    66  GLY66      -0.2714
     60  N         -8.5520   11.3640   31.2690 N.am   67  GLY67      -0.1939
     61  CA        -9.5120   10.4960   30.5990 C.3    67  GLY67       0.2014
     62  C         -9.7690   10.9650   29.1800 C.2    67  GLY67       0.2638
     63  O         -8.8330   11.2700   28.4410 O.2    67  GLY67      -0.2714
     64  N        -11.0450   11.0220   28.7900 N.am   68  ALA68      -0.1977
     65  CA       -11.4480   11.6980   27.5610 C.3    68  ALA68       0.1597
     66  C        -11.3010   13.1920   27.8140 C.2    68  ALA68       0.2287
     67  O        -12.2490   13.8790   28.2180 O.2    68  ALA68      -0.2864
     68  CB       -12.8830   11.3360   27.1750 C.3    68  ALA68       0.0319
     69  N         -3.7820   14.7590   32.6910 N.3    88  VAL88      -0.1245
     70  CA        -3.8040   14.2640   34.0690 C.3    88  VAL88       0.1561
     71  C         -3.7910   12.7320   34.0510 C.2    88  VAL88       0.2260
     72  O         -4.4420   12.0980   33.2130 O.2    88  VAL88      -0.2867
     73  CB        -5.0410   14.8190   34.8180 C.3    88  VAL88       0.0252
     74  CG1       -5.1300   14.2340   36.2250 C.3    88  VAL88       0.0019
     75  CG2       -4.9610   16.3380   34.8990 C.3    88  VAL88       0.0019
@<TRIPOS>BOND
     1    68    65    1
     2    39    37   ar
     3    39    38   ar
     4    65    66    1
     5    65    64    1
     6    37    35   ar
     7    66    67    2
     8    38    36   ar
     9    63    62    2
    10    64    62   am
    11    35    36   ar
    12    35    34    1
    13    62    61    1
    14    31    34    1
    15    31    30    1
    16    31    32    1
    17    61    60    1
    18    33    32    2
    19    32    40   am
    20    55    52    1
    21    60    58   am
    22    54    53    2
    23    28    27    2
    24    59    58    2
    25    58    57    1
    26    27    26    1
    27    53    52    1
    28    53    56   am
    29    40    41    1
    30    51    52    1
    31    57    56    1
    32    69    70    1
    33    72    71    2
    34    41    42    1
    35    41    44    1
    36    42    43    2
    37    26    25    1
    38    26    29    1
    39    71    70    1
    40    70    73    1
    41    44    45    1
    42    45    46    1
    43    73    75    1
    44    73    74    1
    45     2     1    1
    46     2     3    1
    47    46    47    1
    48    47    48    2
    49    24    22   ar
    50     3     4    2
    51     3     5   am
    52    48    50    1
    53    48    49    1
    54    23    22   ar
    55    22    21    1
    56     5     6    1
    57    21    18    1
    58     9     6    1
    59     9    10    1
    60     6     7    1
    61    18    19    1
    62    18    17    1
    63    20    19    2
    64     8     7    2
    65    16    15    1
    66    17    13   am
    67    13    14    2
    68    13    12    1
    69    15    12    1
    70    12    11    1
