@<TRIPOS>MOLECULE
tmp/4z7mA00.pdb
 185 180 0 0 0
SMALL
GASTEIGER

@<TRIPOS>ATOM
      1  N          8.6860   -6.1100   28.9690 N.3    58  CYS58      -0.1235
      2  CA         7.6350   -6.6980   28.1490 C.3    58  CYS58       0.1677
      3  C          8.1980   -7.6010   27.0360 C.2    58  CYS58       0.2270
      4  O          7.6580   -8.6780   26.7600 O.2    58  CYS58      -0.2867
      5  CB         6.7810   -5.5580   27.5600 C.3    58  CYS58       0.0956
      6  SG         5.8300   -4.5430   28.7910 S.3    58  CYS58      -0.0801
      7  N          8.2250  -11.3440   27.1220 N.3    61  TYR61      -0.1227
      8  CA         7.7850  -11.7700   28.4680 C.3    61  TYR61       0.1736
      9  C          6.6970  -12.7990   28.3580 C.2    61  TYR61       0.2595
     10  O          5.5960  -12.4770   27.9160 O.2    61  TYR61      -0.2718
     11  CB         7.2690  -10.6120   29.2960 C.3    61  TYR61       0.0548
     12  CG         6.8020  -10.9360   30.6880 C.ar   61  TYR61      -0.0200
     13  CD1        7.7160  -11.1940   31.7160 C.ar   61  TYR61      -0.0009
     14  CD2        5.4460  -10.9610   31.0030 C.ar   61  TYR61      -0.0009
     15  CE1        7.2600  -11.4960   32.9970 C.ar   61  TYR61       0.0417
     16  CE2        5.0080  -11.2300   32.2720 C.ar   61  TYR61       0.0417
     17  CZ         5.9310  -11.4850   33.2800 C.ar   61  TYR61       0.1957
     18  OH         5.4560  -11.7620   34.5850 O.3    61  TYR61      -0.2866
     19  N          7.0090  -14.0380   28.7040 N.am   62  HIS62      -0.1975
     20  CA         6.0150  -15.1520   28.6020 C.3    62  HIS62       0.1656
     21  C          5.3140  -15.2110   27.2400 C.2    62  HIS62       0.2291
     22  O          4.1190  -15.5040   27.1380 O.2    62  HIS62      -0.2864
     23  CB         5.0050  -15.1110   29.7830 C.3    62  HIS62       0.0771
     24  CG         5.6830  -15.2330   31.1270 C.ar   62  HIS62       0.0820
     25  ND1        5.0470  -14.9790   32.3330 N.ar   62  HIS62      -0.2267
     26  CD2        6.9540  -15.5790   31.4370 C.ar   62  HIS62       0.1154
     27  CE1        5.9190  -15.1090   33.3230 C.ar   62  HIS62       0.1986
     28  NE2        7.0810  -15.4760   32.8110 N.ar   62  HIS62      -0.2212
     29  N          4.9950  -12.5390   25.1430 N.3    64  TYR64      -0.1241
     30  CA         4.6210  -11.1750   24.6450 C.3    64  TYR64       0.1605
     31  C          5.6400  -10.6670   23.5540 C.2    64  TYR64       0.2264
     32  O          6.8710  -10.6050   23.7930 O.2    64  TYR64      -0.2867
     33  CB         4.4070  -10.1760   25.8010 C.3    64  TYR64       0.0534
     34  CG         3.7310   -8.9220   25.2780 C.ar   64  TYR64      -0.0201
     35  CD1        2.3700   -8.8730   25.1410 C.ar   64  TYR64      -0.0009
     36  CD2        4.4630   -7.8350   24.8320 C.ar   64  TYR64      -0.0009
     37  CE1        1.7460   -7.7630   24.6410 C.ar   64  TYR64       0.0417
     38  CE2        3.8290   -6.7060   24.3320 C.ar   64  TYR64       0.0417
     39  CZ         2.4980   -6.6900   24.1890 C.ar   64  TYR64       0.1957
     40  OH         1.8760   -5.5690   23.6730 O.3    64  TYR64      -0.2866
     41  N          2.9720   -2.2220   25.5620 N.3    69  CYS69      -0.1235
     42  CA         1.5750   -2.4210   25.2460 C.3    69  CYS69       0.1677
     43  C          0.8740   -1.1530   24.7650 C.2    69  CYS69       0.2270
     44  O          0.8910   -0.1560   25.4570 O.2    69  CYS69      -0.2867
     45  CB         0.7890   -2.9270   26.4760 C.3    69  CYS69       0.0956
     46  SG         1.3430   -4.5400   27.0120 S.3    69  CYS69      -0.0801
     47  N         -6.5940   -3.7790   27.6480 N.3    77  CYS77      -0.1221
     48  CA        -5.1790   -3.9770   28.0050 C.3    77  CYS77       0.1808
     49  C         -4.5080   -5.0600   27.1120 C.2    77  CYS77       0.2601
     50  O         -5.1750   -5.7850   26.3220 O.2    77  CYS77      -0.2717
     51  CB        -5.0100   -4.3770   29.4760 C.3    77  CYS77       0.0970
     52  SG        -5.7250   -5.9570   29.9640 S.3    77  CYS77      -0.0800
     53  N         -3.2020   -5.1160   27.2020 N.am   78  HIS78      -0.1975
     54  CA        -2.3480   -6.0400   26.4660 C.3    78  HIS78       0.1656
     55  C         -2.3810   -5.8800   24.9490 C.2    78  HIS78       0.2291
     56  O         -1.9880   -6.7960   24.2500 O.2    78  HIS78      -0.2864
     57  CB        -2.6600   -7.5070   26.8570 C.3    78  HIS78       0.0771
     58  CG        -2.5090   -7.8070   28.3190 C.ar   78  HIS78       0.0820
     59  ND1       -3.0990   -8.8980   28.9250 N.ar   78  HIS78      -0.2267
     60  CD2       -1.8280   -7.1640   29.2940 C.ar   78  HIS78       0.1154
     61  CE1       -2.7760   -8.9180   30.2060 C.ar   78  HIS78       0.1986
     62  NE2       -2.0080   -7.8750   30.4560 N.ar   78  HIS78      -0.2212
     63  N          1.5550    1.4570   27.9330 N.3    96  ASP96      -0.1239
     64  CA         2.0900    0.9110   29.2020 C.3    96  ASP96       0.1674
     65  C          3.5090    0.5350   28.9450 C.2    96  ASP96       0.2266
     66  O          3.7830   -0.2200   28.0170 O.2    96  ASP96      -0.2867
     67  CB         1.2660   -0.3710   29.5720 C.3    96  ASP96       0.1410
     68  CG         1.5390   -0.9100   30.9350 C.2    96  ASP96       0.3668
     69  OD1        2.6520   -0.7500   31.5160 O.co2  96  ASP96      -0.2456
     70  OD2        0.5990   -1.5380   31.4480 O.co2  96  ASP96      -0.2456
     71  N          6.9070    0.2520   36.3330 N.3   107  ASP107     -0.1239
     72  CA         5.7720    0.0790   35.3490 C.3   107  ASP107      0.1674
     73  C          4.8530    1.2810   35.4880 C.2   107  ASP107      0.2266
     74  O          4.3500    1.6130   36.6160 O.2   107  ASP107     -0.2867
     75  CB         5.0410   -1.2220   35.6720 C.3   107  ASP107      0.1410
     76  CG         3.9810   -1.6000   34.6430 C.2   107  ASP107      0.3668
     77  OD1        3.8430   -0.8760   33.6710 O.co2 107  ASP107     -0.2456
     78  OD2        3.2480   -2.6200   34.8710 O.co2 107  ASP107     -0.2456
     79  N        -11.3510   -8.7650   35.8980 N.3   166  GLU166     -0.1231
     80  CA       -10.4050   -9.9070   35.6730 C.3   166  GLU166      0.1699
     81  C         -8.9100   -9.5160   35.6120 C.2   166  GLU166      0.2592
     82  O         -8.0780  -10.3820   35.6330 O.2   166  GLU166     -0.2718
     83  CB       -10.7580  -10.6300   34.3800 C.3   166  GLU166      0.0402
     84  CG       -12.0930  -11.3660   34.4290 C.3   166  GLU166      0.1161
     85  CD       -13.2870  -10.4960   34.0900 C.2   166  GLU166      0.3649
     86  OE1      -13.1730   -9.2370   34.0590 O.co2 166  GLU166     -0.2457
     87  OE2      -14.3770  -11.0590   33.8690 O.co2 166  GLU166     -0.2457
     88  N         -8.5970   -8.2200   35.4290 N.am  167  TYR167     -0.1962
     89  CA        -7.2260   -7.7530   35.4000 C.3   167  TYR167      0.1771
     90  C         -6.9900   -6.7050   36.4720 C.2   167  TYR167      0.2619
     91  O         -7.9410   -6.0660   36.9250 O.2   167  TYR167     -0.2715
     92  CB        -6.8010   -7.2730   34.0150 C.3   167  TYR167      0.0574
     93  CG        -6.9520   -8.3420   33.0130 C.ar  167  TYR167     -0.0198
     94  CD1       -8.1740   -8.5050   32.3460 C.ar  167  TYR167     -0.0009
     95  CD2       -5.9020   -9.2470   32.7530 C.ar  167  TYR167     -0.0009
     96  CE1       -8.3430   -9.5150   31.4120 C.ar  167  TYR167      0.0417
     97  CE2       -6.0620  -10.2710   31.8470 C.ar  167  TYR167      0.0417
     98  CZ        -7.2830  -10.3880   31.1710 C.ar  167  TYR167      0.1957
     99  OH        -7.4780  -11.3980   30.2820 O.3   167  TYR167     -0.2866
    100  N         -5.7350   -6.6220   36.9300 N.am  168  CYS168     -0.1968
    101  CA        -5.4190   -5.9380   38.1660 C.3   168  CYS168      0.1712
    102  C         -3.9640   -5.4480   38.2050 C.2   168  CYS168      0.2296
    103  O         -3.1380   -5.7700   37.3150 O.2   168  CYS168     -0.2864
    104  CB        -5.7210   -6.8550   39.3740 C.3   168  CYS168      0.0983
    105  SG        -4.7300   -8.3830   39.4190 S.3   168  CYS168     -0.0798
    106  N         -0.3690   -4.9020   40.6210 N.3   170  HIS170     -0.1241
    107  CA         0.4030   -5.9790   41.1720 C.3   170  HIS170      0.1621
    108  C          1.6240   -5.5140   41.9620 C.2   170  HIS170      0.2264
    109  O          2.1090   -4.3840   41.7730 O.2   170  HIS170     -0.2867
    110  CB         0.8930   -6.8400   40.0190 C.3   170  HIS170      0.0745
    111  CG         1.4490   -6.0560   38.8690 C.ar  170  HIS170      0.0817
    112  ND1        2.7680   -5.7050   38.7770 N.ar  170  HIS170     -0.2268
    113  CD2        0.8520   -5.5350   37.7680 C.ar  170  HIS170      0.1154
    114  CE1        2.9770   -5.0090   37.6760 C.ar  170  HIS170      0.1986
    115  NE2        1.8350   -4.9380   37.0180 N.ar  170  HIS170     -0.2212
    116  N          8.5420   -8.6190   37.5550 N.3   176  PHE176     -0.1227
    117  CA         7.5070   -7.8100   36.8930 C.3   176  PHE176      0.1736
    118  C          6.2350   -7.8930   37.7150 C.2   176  PHE176      0.2595
    119  O          5.7240   -6.8860   38.1610 O.2   176  PHE176     -0.2718
    120  CB         7.2700   -8.3770   35.5050 C.3   176  PHE176      0.0547
    121  CG         6.4940   -7.4830   34.5460 C.ar  176  PHE176     -0.0202
    122  CD1        5.6380   -6.4550   34.9580 C.ar  176  PHE176     -0.0042
    123  CD2        6.6220   -7.7120   33.1740 C.ar  176  PHE176     -0.0042
    124  CE1        4.9100   -5.7010   34.0260 C.ar  176  PHE176     -0.0003
    125  CE2        5.9140   -6.9400   32.2350 C.ar  176  PHE176     -0.0003
    126  CZ         5.0760   -5.9340   32.6590 C.ar  176  PHE176     -0.0000
    127  N          5.7310   -9.1160   37.9350 N.am  177  HIS177     -0.1975
    128  CA         4.5080   -9.3140   38.6660 C.3   177  HIS177      0.1656
    129  C          4.7020  -10.1340   39.9390 C.2   177  HIS177      0.2291
    130  O          4.8710  -11.3820   39.8480 O.2   177  HIS177     -0.2864
    131  CB         3.5620  -10.0810   37.7820 C.3   177  HIS177      0.0771
    132  CG         3.1710   -9.3470   36.5530 C.ar  177  HIS177      0.0820
    133  ND1        3.6620   -9.6630   35.3100 N.ar  177  HIS177     -0.2267
    134  CD2        2.3220   -8.3160   36.3750 C.ar  177  HIS177      0.1154
    135  CE1        3.1320   -8.8490   34.4160 C.ar  177  HIS177      0.1986
    136  NE2        2.3280   -8.0150   35.0400 N.ar  177  HIS177     -0.2212
    137  N         -1.8580   -9.0480   44.6960 N.3   181  GLN181     -0.1245
    138  CA        -2.7580   -8.5960   43.6130 C.3   181  GLN181      0.1566
    139  C         -3.4970   -7.3690   44.0920 C.2   181  GLN181      0.2260
    140  O         -3.9810   -7.3490   45.2260 O.2   181  GLN181     -0.2867
    141  CB        -3.7770   -9.6570   43.2500 C.3   181  GLN181      0.0367
    142  CG        -3.1390  -10.8340   42.5410 C.3   181  GLN181      0.0905
    143  CD        -4.0920  -11.9940   42.3360 C.2   181  GLN181      0.2608
    144  OE1       -3.7510  -13.1290   42.6890 O.2   181  GLN181     -0.2717
    145  NE2       -5.2940  -11.7220   41.7860 N.am  181  GLN181     -0.0878
    146  N         -3.3900    0.5290   38.8200 N.3   203  GLU203     -0.1245
    147  CA        -3.6110    0.6470   37.3940 C.3   203  GLU203      0.1567
    148  C         -5.0230    0.3880   36.9380 C.2   203  GLU203      0.2260
    149  O         -5.2590   -0.4970   36.1040 O.2   203  GLU203     -0.2867
    150  CB        -2.6160   -0.2480   36.6840 C.3   203  GLU203      0.0388
    151  CG        -2.6790   -1.7740   36.9540 C.3   203  GLU203      0.1160
    152  CD        -1.6530   -2.5090   36.1500 C.2   203  GLU203      0.3649
    153  OE1       -0.4820   -2.8630   36.6630 O.co2 203  GLU203     -0.2457
    154  OE2       -1.9640   -2.6290   34.9390 O.co2 203  GLU203     -0.2457
    155  N         -8.6380    0.0760   35.3110 N.3   205  MET205     -0.1245
    156  CA        -9.1060   -0.0800   33.9410 C.3   205  MET205      0.1570
    157  C        -10.5890    0.1120   34.0260 C.2   205  MET205      0.2261
    158  O        -11.2770   -0.6780   34.7070 O.2   205  MET205     -0.2867
    159  CB        -8.7550   -1.4880   33.4020 C.3   205  MET205      0.0387
    160  CG        -7.3560   -1.6990   32.8040 C.3   205  MET205      0.0595
    161  SD        -6.7650   -3.4530   32.9110 S.3   205  MET205     -0.1393
    162  CE        -6.1750   -3.4300   34.6020 C.3   205  MET205      0.0692
    163  N         -3.5210  -12.5510   23.8630 N.3   220  TRP220     -0.1241
    164  CA        -3.0700  -11.4620   24.7130 C.3   220  TRP220      0.1605
    165  C         -4.1400  -10.3810   24.8280 C.2   220  TRP220      0.2264
    166  O         -4.5150   -9.9570   25.9450 O.2   220  TRP220     -0.2867
    167  CB        -1.7670  -10.8800   24.1700 C.3   220  TRP220      0.0550
    168  CG        -0.5840  -11.7130   24.4660 C.ar  220  TRP220      0.0003
    169  CD1        0.0420  -12.5900   23.6300 C.ar  220  TRP220      0.0946
    170  CD2        0.1130  -11.7720   25.7050 C.ar  220  TRP220      0.0152
    171  NE1        1.0810  -13.2180   24.2870 N.ar  220  TRP220     -0.2442
    172  CE2        1.1330  -12.7350   25.5670 C.ar  220  TRP220      0.0810
    173  CE3       -0.0450  -11.1280   26.9210 C.ar  220  TRP220      0.0012
    174  CZ2        2.0440  -13.0060   26.5840 C.ar  220  TRP220      0.0191
    175  CZ3        0.8370  -11.4300   27.9490 C.ar  220  TRP220      0.0001
    176  CH2        1.8640  -12.3680   27.7660 C.ar  220  TRP220      0.0015
    177  N         -7.2680    3.4100   30.9640 N.3   232  GLN232     -0.1245
    178  CA        -6.3940    3.0670   32.0960 C.3   232  GLN232      0.1566
    179  C         -5.2780    4.0660   32.3100 C.2   232  GLN232      0.2260
    180  O         -4.6800    4.6000   31.3680 O.2   232  GLN232     -0.2867
    181  CB        -5.8110    1.6590   31.8500 C.3   232  GLN232      0.0367
    182  CG        -4.7170    1.1940   32.8050 C.3   232  GLN232      0.0905
    183  CD        -4.1250   -0.2020   32.4560 C.2   232  GLN232      0.2608
    184  OE1       -3.7430   -0.4690   31.3090 O.2   232  GLN232     -0.2717
    185  NE2       -3.9140   -1.0270   33.4810 N.am  232  GLN232     -0.0878
@<TRIPOS>BOND
     1    31    32    2
     2    31    30    1
     3   169   171   ar
     4   169   168   ar
     5    40    39    1
     6   163   164    1
     7   167   168    1
     8   167   164    1
     9    39    38   ar
    10    39    37   ar
    11    56    55    2
    12   171   172   ar
    13    38    36   ar
    14   168   170   ar
    15    37    35   ar
    16    30    29    1
    17    30    33    1
    18   164   165    1
    19    43    42    1
    20    43    44    2
    21   165   166    2
    22    36    34   ar
    23    55    54    1
    24    35    34   ar
    25    42    41    1
    26    42    45    1
    27    34    33    1
    28   172   170   ar
    29   172   174   ar
    30   170   173   ar
    31    50    49    2
    32    54    57    1
    33    54    53    1
    34    45    46    1
    35   174   176   ar
    36     4     3    2
    37    57    58    1
    38   173   175   ar
    39     3     2    1
    40    49    53   am
    41    49    48    1
    42     7     8    1
    43    22    21    2
    44    21    20    1
    45     5     2    1
    46     5     6    1
    47    47    48    1
    48   176   175   ar
    49    10     9    2
    50    63    64    1
    51    48    51    1
    52    66    65    2
    53     2     1    1
    54    58    59   ar
    55    58    60   ar
    56     9     8    1
    57     9    19   am
    58     8    11    1
    59    20    19    1
    60    20    23    1
    61    59    61   ar
    62    65    64    1
    63    64    67    1
    64    60    62   ar
    65    11    12    1
    66    51    52    1
    67    67    68    1
    68    23    24    1
    69    61    62   ar
    70    99    98    1
    71    12    14   ar
    72    12    13   ar
    73    68    70   ar
    74    68    69   ar
    75   177   178    1
    76    14    16   ar
    77    24    26   ar
    78    24    25   ar
    79    98    96   ar
    80    98    97   ar
    81   184   183    2
    82   180   179    2
    83    96    94   ar
    84    26    28   ar
    85    13    15   ar
    86    97    95   ar
    87   181   178    1
    88   181   182    1
    89   178   179    1
    90   125   126   ar
    91   125   123   ar
    92    16    17   ar
    93    25    27   ar
    94    94    93   ar
    95   183   182    1
    96   183   185   am
    97   126   124   ar
    98    95    93   ar
    99   160   161    1
   100   160   159    1
   101    28    27   ar
   102   161   162    1
   103    15    17   ar
   104    93    92    1
   105   123   121   ar
   106    17    18    1
   107   159   156    1
   108    77    76   ar
   109    87    85   ar
   110   156   157    1
   111   156   155    1
   112    92    89    1
   113   157   158    2
   114   124   122   ar
   115    86    85   ar
   116    85    84    1
   117    83    84    1
   118    83    80    1
   119   135   136   ar
   120   135   133   ar
   121   121   122   ar
   122   121   120    1
   123    76    78   ar
   124    76    75    1
   125   154   152   ar
   126   136   134   ar
   127   133   132   ar
   128    72    73    1
   129    72    75    1
   130    72    71    1
   131    89    88    1
   132    89    90    1
   133    88    81   am
   134    73    74    2
   135   120   117    1
   136    81    82    2
   137    81    80    1
   138    80    79    1
   139   149   148    2
   140   152   153   ar
   141   152   151    1
   142   134   132   ar
   143    90    91    2
   144    90   100   am
   145   132   131    1
   146   150   151    1
   147   150   147    1
   148   117   116    1
   149   117   118    1
   150   100   101    1
   151   148   147    1
   152   115   114   ar
   153   115   113   ar
   154   103   102    2
   155   147   146    1
   156   114   112   ar
   157   118   127   am
   158   118   119    2
   159   113   111   ar
   160   131   128    1
   161   127   128    1
   162   101   102    1
   163   101   104    1
   164   128   129    1
   165   112   111   ar
   166   111   110    1
   167   104   105    1
   168   130   129    2
   169   110   107    1
   170   106   107    1
   171   107   108    1
   172   109   108    2
   173   145   143   am
   174   143   142    1
   175   143   144    2
   176   142   141    1
   177   141   138    1
   178   138   139    1
   179   138   137    1
   180   139   140    2
