@<TRIPOS>MOLECULE
tmp/4z7qD00.pdb
 92 88 0 0 0
SMALL
GASTEIGER

@<TRIPOS>ATOM
      1  N         68.8200  102.6480   94.2550 N.3   121  SER121     -0.1202
      2  CA        70.2090  102.2670   94.0800 C.3   121  SER121      0.2020
      3  C         70.4990  102.2690   92.5780 C.2   121  SER121      0.2619
      4  O         69.5680  102.2400   91.7750 O.2   121  SER121     -0.2717
      5  CB        70.4740  100.9000   94.7230 C.3   121  SER121      0.2103
      6  OG        69.7380   99.8660   94.0940 O.3   121  SER121     -0.2182
      7  N         71.7740  102.3240   92.1990 N.am  122  TYR122     -0.1961
      8  CA        72.1470  102.4750   90.7900 C.3   122  TYR122      0.1771
      9  C         71.5700  101.3670   89.9150 C.2   122  TYR122      0.2620
     10  O         71.4270  101.5310   88.7050 O.2   122  TYR122     -0.2715
     11  CB        73.6670  102.5030   90.6370 C.3   122  TYR122      0.0574
     12  CG        74.1250  102.9920   89.2810 C.ar  122  TYR122     -0.0198
     13  CD1       74.1320  104.3470   88.9780 C.ar  122  TYR122     -0.0009
     14  CD2       74.5500  102.1000   88.3060 C.ar  122  TYR122     -0.0009
     15  CE1       74.5480  104.8020   87.7420 C.ar  122  TYR122      0.0417
     16  CE2       74.9690  102.5450   87.0650 C.ar  122  TYR122      0.0417
     17  CZ        74.9660  103.8970   86.7880 C.ar  122  TYR122      0.1957
     18  OH        75.3810  104.3490   85.5560 O.3   122  TYR122     -0.2866
     19  N         71.2370  100.2420   90.5370 N.am  123  SER123     -0.1950
     20  CA        70.6260   99.1190   89.8350 C.3   123  SER123      0.1924
     21  C         69.2850   99.4930   89.2030 C.2   123  SER123      0.2314
     22  O         68.8040   98.8060   88.3010 O.2   123  SER123     -0.2863
     23  CB        70.4190   97.9480   90.7990 C.3   123  SER123      0.2116
     24  OG        71.0840   98.1710   92.0320 O.3   123  SER123     -0.2180
     25  N         74.2150  105.4530   94.3280 N.3   214  ARG214     -0.1231
     26  CA        75.0770  104.2990   94.1090 C.3   214  ARG214      0.1694
     27  C         75.7590  103.8700   95.4020 C.2   214  ARG214      0.2592
     28  O         76.2080  104.7040   96.1900 O.2   214  ARG214     -0.2718
     29  CB        76.1250  104.6210   93.0390 C.3   214  ARG214      0.0321
     30  CG        77.0050  103.4470   92.6360 C.3   214  ARG214      0.0489
     31  CD        78.2040  103.9220   91.8340 C.3   214  ARG214      0.2205
     32  NE        79.2060  102.8740   91.6610 N.pl3 214  ARG214     -0.0865
     33  CZ        80.4660  103.0940   91.3000 C.cat 214  ARG214      0.5346
     34  NH1       80.8940  104.3290   91.0750 N.pl3 214  ARG214      0.1354
     35  NH2       81.3060  102.0770   91.1700 N.pl3 214  ARG214      0.1354
     36  N         75.8240  102.5600   95.6100 N.am  215  ASN215     -0.1960
     37  CA        76.5150  101.9890   96.7570 C.3   215  ASN215      0.1819
     38  C         77.3190  100.7640   96.3330 C.2   215  ASN215      0.2621
     39  O         77.2960  100.3730   95.1650 O.2   215  ASN215     -0.2715
     40  CB        75.5160  101.6320   97.8580 C.3   215  ASN215      0.1195
     41  CG        74.6590  100.4400   97.5060 C.2   215  ASN215      0.2630
     42  OD1       74.7380   99.3940   98.1500 O.2   215  ASN215     -0.2716
     43  ND2       73.8270  100.5890   96.4840 N.am  215  ASN215     -0.0877
     44  N         78.0240  100.1610   97.2840 N.am  216  ARG216     -0.1963
     45  CA        79.0030   99.1270   96.9660 C.3   216  ARG216      0.1729
     46  C         78.4150   97.7160   96.9330 C.2   216  ARG216      0.2616
     47  O         78.7010   96.9500   96.0130 O.2   216  ARG216     -0.2715
     48  CB        80.1540   99.1790   97.9730 C.3   216  ARG216      0.0348
     49  CG        81.2320   98.1330   97.7350 C.3   216  ARG216      0.0492
     50  CD        82.4200   98.3300   98.6560 C.3   216  ARG216      0.2205
     51  NE        83.2830   99.4270   98.2190 N.pl3 216  ARG216     -0.0865
     52  CZ        83.6640  100.4500   98.9810 C.cat 216  ARG216      0.5346
     53  NH1       83.2700  100.5480  100.2450 N.pl3 216  ARG216      0.1354
     54  NH2       84.4530  101.3860   98.4750 N.pl3 216  ARG216      0.1354
     55  N         77.6000   97.3740   97.9280 N.am  217  ASP217     -0.1957
     56  CA        77.1310   95.9980   98.0910 C.3   217  ASP217      0.1840
     57  C         75.7130   95.7900   97.5590 C.2   217  ASP217      0.2621
     58  O         74.8320   96.6380   97.7360 O.2   217  ASP217     -0.2715
     59  CB        77.1970   95.5940   99.5650 C.3   217  ASP217      0.1450
     60  CG        76.1760   96.3180  100.4160 C.2   217  ASP217      0.3671
     61  OD1       75.7390   97.4200  100.0200 O.co2 217  ASP217     -0.2456
     62  OD2       75.8080   95.7820  101.4830 O.co2 217  ASP217     -0.2456
     63  N         75.5100   94.6350   96.9300 N.am  218  ALA218     -0.1977
     64  CA        74.2650   94.3150   96.2320 C.3   218  ALA218      0.1597
     65  C         73.0350   94.3420   97.1390 C.2   218  ALA218      0.2287
     66  O         71.9990   94.8810   96.7470 O.2   218  ALA218     -0.2864
     67  CB        74.3790   92.9510   95.5540 C.3   218  ALA218      0.0319
     68  N         70.4910   95.7350   99.7390 N.3   220  GLU220     -0.1245
     69  CA        70.1600   97.1300  100.0060 C.3   220  GLU220      0.1567
     70  C         69.4250   97.2890  101.3390 C.2   220  GLU220      0.2260
     71  O         68.9050   96.3210  101.8970 O.2   220  GLU220     -0.2867
     72  CB        69.3200   97.6920   98.8550 C.3   220  GLU220      0.0388
     73  CG        69.8530   97.3730   97.4610 C.3   220  GLU220      0.1160
     74  CD        71.1700   98.0710   97.1270 C.2   220  GLU220      0.3649
     75  OE1       72.0130   98.2450   98.0340 O.co2 220  GLU220     -0.2457
     76  OE2       71.3640   98.4450   95.9450 O.co2 220  GLU220     -0.2457
     77  N         65.5380   95.0760   93.0670 N.3   251  ASP251     -0.1239
     78  CA        66.0330   94.0560   92.1470 C.3   251  ASP251      0.1674
     79  C         67.2140   93.2930   92.7400 C.2   251  ASP251      0.2266
     80  O         68.0250   92.7210   92.0100 O.2   251  ASP251     -0.2867
     81  CB        66.4340   94.6940   90.8130 C.3   251  ASP251      0.1410
     82  CG        67.4110   95.8480   90.9810 C.2   251  ASP251      0.3668
     83  OD1       68.0160   95.9790   92.0660 O.co2 251  ASP251     -0.2456
     84  OD2       67.5780   96.6260   90.0170 O.co2 251  ASP251     -0.2456
     85  N         62.5280   94.0330   85.0470 N.3   335  MET335     -0.1245
     86  CA        63.8320   94.6500   85.2640 C.3   335  MET335      0.1570
     87  C         63.7940   96.1580   85.0180 C.2   335  MET335      0.2261
     88  O         64.8010   96.8480   85.2010 O.2   335  MET335     -0.2867
     89  CB        64.8860   94.0020   84.3610 C.3   335  MET335      0.0387
     90  CG        65.2240   92.5570   84.7160 C.3   335  MET335      0.0595
     91  SD        65.6910   92.3120   86.4460 S.3   335  MET335     -0.1393
     92  CE        67.0260   93.4950   86.6310 C.3   335  MET335      0.0692
@<TRIPOS>BOND
     1    89    90    1
     2    89    86    1
     3    90    91    1
     4    87    88    2
     5    87    86    1
     6    85    86    1
     7    18    17    1
     8    91    92    1
     9    17    16   ar
    10    17    15   ar
    11    16    14   ar
    12    15    13   ar
    13    22    21    2
    14    14    12   ar
    15    10     9    2
    16    13    12   ar
    17    21    20    1
    18    12    11    1
    19    20    19    1
    20    20    23    1
    21     9    19   am
    22     9     8    1
    23    84    82   ar
    24    11     8    1
    25     8     7    1
    26    23    24    1
    27    81    82    1
    28    81    78    1
    29    82    83   ar
    30    34    33    1
    31    35    33    1
    32    33    32    2
    33    32    31    1
    34     4     3    2
    35    31    30    1
    36    80    79    2
    37    78    79    1
    38    78    77    1
    39     7     3   am
    40     3     2    1
    41    30    29    1
    42    29    26    1
    43     2     1    1
    44     2     5    1
    45     6     5    1
    46    26    25    1
    47    26    27    1
    48    39    38    2
    49    27    36   am
    50    27    28    2
    51    67    64    1
    52    36    37    1
    53    76    74   ar
    54    47    46    2
    55    64    63    1
    56    64    65    1
    57    38    37    1
    58    38    44   am
    59    43    41   am
    60    66    65    2
    61    37    40    1
    62    63    57   am
    63    46    45    1
    64    46    55   am
    65    45    44    1
    66    45    48    1
    67    74    73    1
    68    74    75   ar
    69    73    72    1
    70    41    40    1
    71    41    42    2
    72    57    58    2
    73    57    56    1
    74    49    48    1
    75    49    50    1
    76    55    56    1
    77    56    59    1
    78    51    50    1
    79    51    52    2
    80    54    52    1
    81    72    69    1
    82    52    53    1
    83    59    60    1
    84    68    69    1
    85    69    70    1
    86    61    60   ar
    87    60    62   ar
    88    70    71    2
