@<TRIPOS>MOLECULE
tmp/4z7vC00.pdb
 222 218 0 0 0
SMALL
GASTEIGER

@<TRIPOS>ATOM
      1  N        -14.2000   84.4400   10.0600 N.3     6  ALA6       -0.1245
      2  CA       -15.3820   84.0710   10.8190 C.3     6  ALA6        0.1562
      3  C        -16.3140   85.2450   10.9980 C.2     6  ALA6        0.2260
      4  O        -15.8600   86.3840   11.0850 O.2     6  ALA6       -0.2867
      5  CB       -14.9680   83.5390   12.1730 C.3     6  ALA6        0.0290
      6  N        -19.1910   86.2350   13.6920 N.3     8  TYR8       -0.1227
      7  CA       -19.8190   85.9130   14.9790 C.3     8  TYR8        0.1736
      8  C        -20.7680   87.0480   15.4750 C.2     8  TYR8        0.2596
      9  O        -20.4900   87.6440   16.5140 O.2     8  TYR8       -0.2718
     10  CB       -18.7640   85.6260   16.0640 C.3     8  TYR8        0.0548
     11  CG       -17.7060   84.5900   15.7550 C.ar    8  TYR8       -0.0200
     12  CD1      -18.0560   83.2780   15.4330 C.ar    8  TYR8       -0.0009
     13  CD2      -16.3540   84.8780   15.9290 C.ar    8  TYR8       -0.0009
     14  CE1      -17.0830   82.3020   15.2170 C.ar    8  TYR8        0.0417
     15  CE2      -15.3740   83.9090   15.7240 C.ar    8  TYR8        0.0417
     16  CZ       -15.7440   82.6170   15.3890 C.ar    8  TYR8        0.1957
     17  OH       -14.7690   81.6730   15.1820 O.3     8  TYR8       -0.2866
     18  N        -21.8700   87.3380   14.7730 N.am    9  GLY9       -0.1957
     19  CA       -22.2920   86.6800   13.5450 C.3     9  GLY9        0.1869
     20  C        -22.9850   87.5530   12.5300 C.2     9  GLY9        0.2309
     21  O        -22.8420   88.7790   12.5380 O.2     9  GLY9       -0.2863
     22  N        -26.1790   89.1170   11.3880 N.3    11  ASN11      -0.1240
     23  CA       -27.4360   89.5940   11.9440 C.3    11  ASN11       0.1653
     24  C        -28.2730   90.1650   10.8120 C.2    11  ASN11       0.2266
     25  O        -27.8260   91.0810   10.1170 O.2    11  ASN11      -0.2867
     26  CB       -27.1900   90.6410   13.0440 C.3    11  ASN11       0.1155
     27  CG       -26.4980   90.1200   14.2790 C.2    11  ASN11       0.2627
     28  OD1      -27.0920   90.0380   15.3460 O.2    11  ASN11      -0.2716
     29  ND2      -25.2120   89.8200   14.1910 N.am   11  ASN11      -0.0877
     30  N        -30.3150   85.0360   12.5570 N.3    22  TYR22      -0.1241
     31  CA       -29.0730   85.0480   13.3250 C.3    22  TYR22       0.1605
     32  C        -28.3120   83.7640   13.0520 C.2    22  TYR22       0.2264
     33  O        -28.8770   82.6750   13.1840 O.2    22  TYR22      -0.2867
     34  CB       -29.2640   85.2460   14.8390 C.3    22  TYR22       0.0534
     35  CG       -27.9440   85.5360   15.5350 C.ar   22  TYR22      -0.0201
     36  CD1      -27.1260   84.5010   15.9860 C.ar   22  TYR22      -0.0009
     37  CD2      -27.4840   86.8430   15.6870 C.ar   22  TYR22      -0.0009
     38  CE1      -25.8860   84.7590   16.5670 C.ar   22  TYR22       0.0417
     39  CE2      -26.2480   87.1110   16.2700 C.ar   22  TYR22       0.0417
     40  CZ       -25.4540   86.0670   16.7120 C.ar   22  TYR22       0.1957
     41  OH       -24.2430   86.3360   17.2970 O.3    22  TYR22      -0.2866
     42  N        -23.8540   82.0980   12.8510 N.3    24  HIS24      -0.1241
     43  CA       -22.3980   82.2130   12.9360 C.3    24  HIS24       0.1621
     44  C        -21.7870   81.4160   11.8060 C.2    24  HIS24       0.2264
     45  O        -22.1810   80.2680   11.5680 O.2    24  HIS24      -0.2867
     46  CB       -21.8400   81.7330   14.2850 C.3    24  HIS24       0.0745
     47  CG       -21.9470   82.7160   15.4100 C.ar   24  HIS24       0.0817
     48  ND1      -21.1860   82.5740   16.5500 N.ar   24  HIS24      -0.2268
     49  CD2      -22.7540   83.7920   15.5580 C.ar   24  HIS24       0.1154
     50  CE1      -21.5310   83.5760   17.3430 C.ar   24  HIS24       0.1986
     51  NE2      -22.4680   84.3380   16.7860 N.ar   24  HIS24      -0.2212
     52  N        -22.1330   77.5100   11.0150 N.3    31  GLU31      -0.1231
     53  CA       -21.9040   76.7340   12.2410 C.3    31  GLU31       0.1699
     54  C        -23.2220   76.3810   12.8910 C.2    31  GLU31       0.2592
     55  O        -23.4640   75.2210   13.2430 O.2    31  GLU31      -0.2718
     56  CB       -21.0330   77.5140   13.2410 C.3    31  GLU31       0.0402
     57  CG       -19.6020   77.7160   12.7820 C.3    31  GLU31       0.1161
     58  CD       -18.6530   78.2390   13.8390 C.2    31  GLU31       0.3649
     59  OE1      -19.0760   79.0570   14.6890 O.co2  31  GLU31      -0.2457
     60  OE2      -17.4700   77.8330   13.8060 O.co2  31  GLU31      -0.2457
     61  N        -24.0650   77.4120   13.0720 N.am   32  PHE32      -0.1976
     62  CA       -25.3820   77.3250   13.6760 C.3    32  PHE32       0.1639
     63  C        -26.2260   78.5060   13.2820 C.2    32  PHE32       0.2290
     64  O        -25.7010   79.5420   12.8660 O.2    32  PHE32      -0.2864
     65  CB       -25.2670   77.2710   15.2190 C.3    32  PHE32       0.0560
     66  CG       -24.8860   78.5680   15.9130 C.ar   32  PHE32      -0.0200
     67  CD1      -25.8470   79.5350   16.1990 C.ar   32  PHE32      -0.0042
     68  CD2      -23.5800   78.7970   16.3220 C.ar   32  PHE32      -0.0042
     69  CE1      -25.4950   80.7250   16.8310 C.ar   32  PHE32      -0.0003
     70  CE2      -23.2380   79.9640   16.9980 C.ar   32  PHE32      -0.0003
     71  CZ       -24.1930   80.9300   17.2310 C.ar   32  PHE32      -0.0000
     72  N        -27.2690   73.8470   15.8060 N.3    43  TRP43      -0.1241
     73  CA       -25.9310   73.6270   15.2530 C.3    43  TRP43       0.1605
     74  C        -26.0230   72.7540   14.0070 C.2    43  TRP43       0.2264
     75  O        -26.8670   71.8500   13.9400 O.2    43  TRP43      -0.2867
     76  CB       -24.9800   73.0320   16.2940 C.3    43  TRP43       0.0550
     77  CG       -24.7100   73.9490   17.4580 C.ar   43  TRP43       0.0003
     78  CD1      -25.4530   74.0620   18.5980 C.ar   43  TRP43       0.0946
     79  CD2      -23.6180   74.8790   17.5960 C.ar   43  TRP43       0.0152
     80  NE1      -24.8880   74.9960   19.4420 N.ar   43  TRP43      -0.2442
     81  CE2      -23.7670   75.5190   18.8470 C.ar   43  TRP43       0.0810
     82  CE3      -22.5380   75.2490   16.7740 C.ar   43  TRP43       0.0012
     83  CZ2      -22.8690   76.4960   19.3020 C.ar   43  TRP43       0.0191
     84  CZ3      -21.6260   76.1850   17.2440 C.ar   43  TRP43       0.0001
     85  CH2      -21.8090   76.8140   18.4830 C.ar   43  TRP43       0.0015
     86  N        -20.0720   69.5020   21.7120 N.3    51  PHE51      -0.1227
     87  CA       -19.1140   70.2370   22.5350 C.3    51  PHE51       0.1736
     88  C        -19.3030   71.7570   22.6040 C.2    51  PHE51       0.2595
     89  O        -18.6660   72.3750   23.4520 O.2    51  PHE51      -0.2718
     90  CB       -17.6860   69.9350   22.0490 C.3    51  PHE51       0.0547
     91  CG       -17.3070   68.4760   22.1480 C.ar   51  PHE51      -0.0202
     92  CD1      -16.9670   67.9090   23.3720 C.ar   51  PHE51      -0.0042
     93  CD2      -17.3050   67.6640   21.0190 C.ar   51  PHE51      -0.0042
     94  CE1      -16.6250   66.5560   23.4630 C.ar   51  PHE51      -0.0003
     95  CE2      -16.9510   66.3140   21.1080 C.ar   51  PHE51      -0.0003
     96  CZ       -16.6190   65.7680   22.3310 C.ar   51  PHE51      -0.0000
     97  N        -20.1520   72.3590   21.7530 N.am   52  ARG52      -0.1966
     98  CA       -20.3120   73.8180   21.7250 C.3    52  ARG52       0.1729
     99  C        -21.7130   74.2850   22.1890 C.2    52  ARG52       0.2616
    100  O        -22.6940   73.5420   22.0800 O.2    52  ARG52      -0.2715
    101  CB       -19.9870   74.3640   20.3240 C.3    52  ARG52       0.0348
    102  CG       -18.6300   73.8910   19.7740 C.3    52  ARG52       0.0492
    103  CD       -18.3050   74.4220   18.3890 C.3    52  ARG52       0.2205
    104  NE       -17.9480   75.8430   18.4110 N.pl3  52  ARG52      -0.0865
    105  CZ       -17.4200   76.5070   17.3880 C.cat  52  ARG52       0.5346
    106  NH1      -17.1460   75.8790   16.2490 N.pl3  52  ARG52       0.1354
    107  NH2      -17.1490   77.7990   17.4980 N.pl3  52  ARG52       0.1354
    108  N        -21.7840   75.5280   22.7200 N.am   53  ARG53      -0.1963
    109  CA       -23.0110   76.1210   23.2650 C.3    53  ARG53       0.1729
    110  C        -23.0960   77.6260   23.0220 C.2    53  ARG53       0.2616
    111  O        -22.1310   78.3380   23.2730 O.2    53  ARG53      -0.2715
    112  CB       -23.0990   75.8550   24.7850 C.3    53  ARG53       0.0348
    113  CG       -23.4990   74.4240   25.0300 C.3    53  ARG53       0.0492
    114  CD       -24.9840   74.2090   24.8480 C.3    53  ARG53       0.2205
    115  NE       -25.8120   75.1200   25.6240 N.pl3  53  ARG53      -0.0865
    116  CZ       -26.6880   75.9750   25.0930 C.cat  53  ARG53       0.5346
    117  NH1      -26.8490   76.0720   23.7680 N.pl3  53  ARG53       0.1354
    118  NH2      -27.3810   76.7700   25.9280 N.pl3  53  ARG53       0.1354
    119  N        -24.2630   78.1030   22.5420 N.am   54  PHE54      -0.1960
    120  CA       -24.5590   79.5240   22.3300 C.3    54  PHE54       0.1771
    121  C        -25.9440   79.8450   22.8920 C.2    54  PHE54       0.2619
    122  O        -26.9120   79.1670   22.5590 O.2    54  PHE54      -0.2715
    123  CB       -24.4620   79.9350   20.8440 C.3    54  PHE54       0.0574
    124  CG       -24.7990   81.3950   20.5980 C.ar   54  PHE54      -0.0200
    125  CD1      -23.8520   82.3930   20.8180 C.ar   54  PHE54      -0.0042
    126  CD2      -26.0700   81.7730   20.1750 C.ar   54  PHE54      -0.0042
    127  CE1      -24.1740   83.7360   20.6180 C.ar   54  PHE54      -0.0003
    128  CE2      -26.3820   83.1190   19.9610 C.ar   54  PHE54      -0.0003
    129  CZ       -25.4330   84.0880   20.1820 C.ar   54  PHE54      -0.0000
    130  N        -26.0270   80.8830   23.7380 N.am   55  ASP55      -0.1971
    131  CA       -27.2630   81.3510   24.3760 C.3    55  ASP55       0.1709
    132  C        -28.1250   82.1140   23.3570 C.2    55  ASP55       0.2293
    133  O        -27.7250   83.1970   22.9240 O.2    55  ASP55      -0.2864
    134  CB       -26.9320   82.2390   25.5830 C.3    55  ASP55       0.1436
    135  CG       -28.0540   82.4690   26.5680 C.2    55  ASP55       0.3671
    136  OD1      -29.2310   82.4640   26.1450 O.co2  55  ASP55      -0.2456
    137  OD2      -27.7570   82.6850   27.7580 O.co2  55  ASP55      -0.2456
    138  N        -28.9890   86.2370   23.3310 N.3    58  PHE58      -0.1241
    139  CA       -28.0750   87.2140   22.7430 C.3    58  PHE58       0.1605
    140  C        -28.4280   87.4750   21.2940 C.2    58  PHE58       0.2264
    141  O        -28.2920   88.6080   20.8310 O.2    58  PHE58      -0.2867
    142  CB       -26.6100   86.7540   22.8880 C.3    58  PHE58       0.0534
    143  CG       -26.1660   86.5530   24.3230 C.ar   58  PHE58      -0.0203
    144  CD1      -26.5350   87.4530   25.3180 C.ar   58  PHE58      -0.0042
    145  CD2      -25.3810   85.4650   24.6780 C.ar   58  PHE58      -0.0042
    146  CE1      -26.1350   87.2600   26.6400 C.ar   58  PHE58      -0.0003
    147  CE2      -24.9760   85.2760   26.0010 C.ar   58  PHE58      -0.0003
    148  CZ       -25.3580   86.1710   26.9720 C.ar   58  PHE58      -0.0000
    149  N        -31.7590   89.5240   21.4550 N.3    61  THR61      -0.1203
    150  CA       -31.4600   90.8800   21.9130 C.3    61  THR61       0.1994
    151  C        -30.8760   91.6710   20.7330 C.2    61  THR61       0.2617
    152  O        -31.2210   92.8380   20.5590 O.2    61  THR61      -0.2717
    153  CB       -30.5250   90.8450   23.1470 C.3    61  THR61       0.1784
    154  OG1      -31.2100   90.2220   24.2290 O.3    61  THR61      -0.2211
    155  CG2      -30.0940   92.2120   23.6020 C.3    61  THR61       0.0376
    156  N        -30.0340   91.0200   19.9110 N.am   62  ASN62      -0.1974
    157  CA       -29.3850   91.6330   18.7500 C.3    62  ASN62       0.1688
    158  C        -30.3980   92.0440   17.6770 C.2    62  ASN62       0.2292
    159  O        -30.2740   93.1350   17.1210 O.2    62  ASN62      -0.2864
    160  CB       -28.3410   90.6840   18.1580 C.3    62  ASN62       0.1181
    161  CG       -26.9780   90.7290   18.8160 C.2    62  ASN62       0.2629
    162  OD1      -26.8200   91.0830   19.9940 O.2    62  ASN62      -0.2716
    163  ND2      -25.9520   90.3720   18.0640 N.am   62  ASN62      -0.0877
    164  N        -32.2450   95.2440   18.5600 N.3    65  VAL65      -0.1231
    165  CA       -31.4200   96.4340   18.3100 C.3    65  VAL65       0.1692
    166  C        -31.4680   96.7670   16.8040 C.2    65  VAL65       0.2591
    167  O        -31.6120   97.9430   16.4490 O.2    65  VAL65      -0.2718
    168  CB       -29.9600   96.2800   18.8340 C.3    65  VAL65       0.0266
    169  CG1      -29.1180   97.5220   18.5350 C.3    65  VAL65       0.0020
    170  CG2      -29.9370   95.9820   20.3320 C.3    65  VAL65       0.0020
    171  N        -31.3760   95.7290   15.9290 N.am   66  LEU66      -0.1980
    172  CA       -31.4470   95.8540   14.4680 C.3    66  LEU66       0.1596
    173  C        -32.7710   96.4820   14.0340 C.2    66  LEU66       0.2287
    174  O        -32.7720   97.3330   13.1440 O.2    66  LEU66      -0.2864
    175  CB       -31.2650   94.4810   13.7960 C.3    66  LEU66       0.0297
    176  CG       -29.8970   94.2090   13.1690 C.3    66  LEU66       0.0022
    177  CD1      -28.8380   93.8980   14.2240 C.3    66  LEU66       0.0001
    178  CD2      -29.9760   93.0890   12.1740 C.3    66  LEU66       0.0001
    179  N        -34.6390   98.5380   15.8590 N.3    68  HIS68      -0.1226
    180  CA       -34.5200   99.9410   16.2650 C.3    68  HIS68       0.1752
    181  C        -33.6720  100.7020   15.2390 C.2    68  HIS68       0.2596
    182  O        -34.1080  101.7370   14.7400 O.2    68  HIS68      -0.2718
    183  CB       -33.9180  100.0520   17.6800 C.3    68  HIS68       0.0759
    184  CG       -33.4890  101.4380   18.0480 C.ar   68  HIS68       0.0818
    185  ND1      -34.3990  102.3800   18.4930 N.ar   68  HIS68      -0.2268
    186  CD2      -32.2580  101.9990   18.0110 C.ar   68  HIS68       0.1154
    187  CE1      -33.6970  103.4800   18.7090 C.ar   68  HIS68       0.1986
    188  NE2      -32.4020  103.2940   18.4470 N.ar   68  HIS68      -0.2212
    189  N        -32.4820  100.1530   14.9070 N.am   69  ASN69      -0.1974
    190  CA       -31.5280  100.7050   13.9480 C.3    69  ASN69       0.1688
    191  C        -32.1240  100.8650   12.5510 C.2    69  ASN69       0.2292
    192  O        -31.8520  101.8800   11.9130 O.2    69  ASN69      -0.2864
    193  CB       -30.2800   99.8260   13.8760 C.3    69  ASN69       0.1181
    194  CG       -29.2810  100.0520   14.9870 C.2    69  ASN69       0.2629
    195  OD1      -29.6020  100.5620   16.0700 O.2    69  ASN69      -0.2716
    196  ND2      -28.0310   99.6940   14.7270 N.am   69  ASN69      -0.0877
    197  N        -34.5580  103.9200   12.2970 N.3    72  ILE72      -0.1231
    198  CA       -33.7900  105.1700   12.3730 C.3    72  ILE72       0.1692
    199  C        -33.2090  105.5030   10.9730 C.2    72  ILE72       0.2591
    200  O        -33.3990  106.6210   10.4870 O.2    72  ILE72      -0.2718
    201  CB       -32.6720  105.1130   13.4730 C.3    72  ILE72       0.0266
    202  CG1      -33.2100  104.8120   14.9120 C.3    72  ILE72       0.0019
    203  CG2      -31.7380  106.3410   13.4440 C.3    72  ILE72       0.0020
    204  CD1      -34.1410  105.8620   15.6230 C.3    72  ILE72       0.0001
    205  N        -32.5340  104.5210   10.3300 N.am   73  VAL73      -0.1980
    206  CA       -31.8840  104.6640    9.0140 C.3    73  VAL73       0.1595
    207  C        -32.9360  104.7770    7.8770 C.2    73  VAL73       0.2287
    208  O        -32.6600  105.4730    6.8960 O.2    73  VAL73      -0.2864
    209  CB       -30.8290  103.5540    8.7320 C.3    73  VAL73       0.0276
    210  CG1      -30.0200  103.8690    7.4810 C.3    73  VAL73       0.0022
    211  CG2      -29.8780  103.3860    9.9160 C.3    73  VAL73       0.0022
    212  N        -33.5810  108.4260    7.8840 N.3    76  ARG76      -0.1245
    213  CA       -32.3610  109.1230    7.4510 C.3    76  ARG76       0.1563
    214  C        -32.1240  109.0140    5.9290 C.2    76  ARG76       0.2260
    215  O        -31.5660  109.9410    5.3390 O.2    76  ARG76      -0.2867
    216  CB       -31.1340  108.5860    8.2100 C.3    76  ARG76       0.0307
    217  CG       -29.9300  109.5330    8.1950 C.3    76  ARG76       0.0489
    218  CD       -28.6690  108.8910    8.7350 C.3    76  ARG76       0.2205
    219  NE       -28.7810  108.6420   10.1690 N.pl3  76  ARG76      -0.0865
    220  CZ       -28.2710  107.5880   10.7960 C.cat  76  ARG76       0.5346
    221  NH1      -27.5860  106.6720   10.1220 N.pl3  76  ARG76       0.1354
    222  NH2      -28.4400  107.4430   12.1020 N.pl3  76  ARG76       0.1354
@<TRIPOS>BOND
     1   215   214    2
     2   214   213    1
     3   208   207    2
     4   213   212    1
     5   213   216    1
     6   210   209    1
     7   207   206    1
     8   217   216    1
     9   217   218    1
    10   209   206    1
    11   209   211    1
    12   218   219    1
    13   206   205    1
    14     1     2    1
    15    25    24    2
    16   221   220    1
    17   219   220    2
    18   205   199   am
    19   200   199    2
    20   220   222    1
    21    24    23    1
    22     2     3    1
    23     2     5    1
    24   199   198    1
    25     3     4    2
    26    52    53    1
    27    22    23    1
    28    45    44    2
    29    44    43    1
    30   192   191    2
    31    23    26    1
    32   178   176    1
    33    53    54    1
    34    53    56    1
    35   197   198    1
    36   198   201    1
    37    20    21    2
    38    20    19    1
    39   191   190    1
    40    30    31    1
    41    57    56    1
    42    57    58    1
    43    42    43    1
    44    64    63    2
    45    54    61   am
    46    54    55    2
    47    43    46    1
    48    26    27    1
    49    32    33    2
    50    32    31    1
    51    61    62    1
    52   174   173    2
    53   176   175    1
    54   176   177    1
    55    63    62    1
    56    31    34    1
    57   203   201    1
    58   201   202    1
    59    19    18    1
    60    62    65    1
    61     6     7    1
    62   175   172    1
    63    60    58   ar
    64    58    59   ar
    65   193   190    1
    66   193   194    1
    67    75    74    2
    68   190   189    1
    69    74    73    1
    70   173   172    1
    71    29    27   am
    72    27    28    2
    73    46    47    1
    74   172   171    1
    75   196   194   am
    76   182   181    2
    77    18     8   am
    78    34    35    1
    79   189   181   am
    80   202   204    1
    81     7     8    1
    82     7    10    1
    83   194   195    2
    84    17    16    1
    85    14    16   ar
    86    14    12   ar
    87    65    66    1
    88   181   180    1
    89    73    72    1
    90    73    76    1
    91    16    15   ar
    92    47    49   ar
    93    47    48   ar
    94    12    11   ar
    95     8     9    2
    96    35    37   ar
    97    35    36   ar
    98    49    51   ar
    99    37    39   ar
   100    15    13   ar
   101    11    13   ar
   102    11    10    1
   103   179   180    1
   104    66    67   ar
   105    66    68   ar
   106   171   166   am
   107    36    38   ar
   108    67    69   ar
   109   106   105    1
   110   180   183    1
   111    39    40   ar
   112    76    77    1
   113    68    70   ar
   114   167   166    2
   115    48    50   ar
   116    38    40   ar
   117    40    41    1
   118    82    84   ar
   119    82    79   ar
   120    51    50   ar
   121   166   165    1
   122    69    71   ar
   123    70    71   ar
   124   159   158    2
   125    84    85   ar
   126   105   107    1
   127   105   104    2
   128    77    79   ar
   129    77    78   ar
   130    79    81   ar
   131   158   157    1
   132   183   184    1
   133   186   184   ar
   134   186   188   ar
   135   184   185   ar
   136   163   161   am
   137   160   157    1
   138   160   161    1
   139   165   164    1
   140   165   168    1
   141   103   104    1
   142   103   102    1
   143   188   187   ar
   144    85    83   ar
   145   185   187   ar
   146   169   168    1
   147    78    80   ar
   148   157   156    1
   149   161   162    2
   150   168   170    1
   151    81    83   ar
   152    81    80   ar
   153   102   101    1
   154   156   151   am
   155   128   126   ar
   156   128   129   ar
   157   126   124   ar
   158   129   127   ar
   159   101    98    1
   160   152   151    2
   161   124   125   ar
   162   124   123    1
   163   127   125   ar
   164   151   150    1
   165   141   140    2
   166   123   120    1
   167    93    95   ar
   168    93    91   ar
   169    95    96   ar
   170   140   139    1
   171   149   150    1
   172    86    87    1
   173    98    97    1
   174    98    99    1
   175    97    88   am
   176   150   153    1
   177    90    91    1
   178    90    87    1
   179   100    99    2
   180    91    92   ar
   181    99   108   am
   182   120   119    1
   183   120   121    1
   184    96    94   ar
   185    87    88    1
   186   119   110   am
   187   122   121    2
   188    88    89    2
   189   108   109    1
   190   139   142    1
   191   139   138    1
   192   142   143    1
   193   121   130   am
   194   133   132    2
   195   110   109    1
   196   110   111    2
   197   153   155    1
   198   153   154    1
   199   109   112    1
   200   132   131    1
   201    92    94   ar
   202   130   131    1
   203   117   116    1
   204   143   145   ar
   205   143   144   ar
   206   131   134    1
   207   145   147   ar
   208   112   113    1
   209   114   113    1
   210   114   115    1
   211   116   115    2
   212   116   118    1
   213   144   146   ar
   214   134   135    1
   215   147   148   ar
   216   136   135   ar
   217   135   137   ar
   218   146   148   ar
