@<TRIPOS>MOLECULE
tmp/4z7xA00.pdb
 94 92 0 0 0
SMALL
GASTEIGER

@<TRIPOS>ATOM
      1  N         21.8960    0.8530  -47.7550 N.3    21  GLN21      -0.1245
      2  CA        23.2620    0.8030  -48.2620 C.3    21  GLN21       0.1566
      3  C         24.2540    1.5680  -47.3620 C.2    21  GLN21       0.2260
      4  O         25.4170    1.6570  -47.6730 O.2    21  GLN21      -0.2867
      5  CB        23.3340    1.2570  -49.7350 C.3    21  GLN21       0.0367
      6  CG        22.5240    0.3850  -50.6990 C.3    21  GLN21       0.0905
      7  CD        22.9770    0.4900  -52.1460 C.2    21  GLN21       0.2608
      8  OE1       24.0860    0.0620  -52.4850 O.2    21  GLN21      -0.2717
      9  NE2       22.0990    1.0320  -53.0320 N.am   21  GLN21      -0.0878
     10  N         28.1150    6.4230  -46.5380 N.3    28  TRP28      -0.1227
     11  CA        27.8140    5.6950  -47.7550 C.3    28  TRP28       0.1737
     12  C         28.8700    5.9840  -48.7830 C.2    28  TRP28       0.2596
     13  O         29.5510    7.0070  -48.6970 O.2    28  TRP28      -0.2718
     14  CB        26.4180    5.9570  -48.2760 C.3    28  TRP28       0.0564
     15  CG        26.1410    7.2430  -48.9130 C.ar   28  TRP28       0.0003
     16  CD1       26.0510    7.4500  -50.2490 C.ar   28  TRP28       0.0946
     17  CD2       25.7910    8.5060  -48.2890 C.ar   28  TRP28       0.0152
     18  NE1       25.6720    8.7380  -50.5010 N.ar   28  TRP28      -0.2442
     19  CE2       25.5190    9.4090  -49.3190 C.ar   28  TRP28       0.0810
     20  CE3       25.7380    8.9650  -46.9720 C.ar   28  TRP28       0.0012
     21  CZ2       25.1420   10.7260  -49.0730 C.ar   28  TRP28       0.0191
     22  CZ3       25.3770   10.2790  -46.7220 C.ar   28  TRP28       0.0001
     23  CH2       25.0750   11.1390  -47.7650 C.ar   28  TRP28       0.0015
     24  N         29.0020    5.0960  -49.7670 N.am   29  THR29      -0.1939
     25  CA        30.1610    5.1460  -50.6380 C.3    29  THR29       0.2028
     26  C         29.8400    4.9650  -52.1030 C.2    29  THR29       0.2642
     27  O         28.8140    4.3850  -52.4430 O.2    29  THR29      -0.2714
     28  CB        31.2520    4.1080  -50.2590 C.3    29  THR29       0.1808
     29  OG1       30.7950    2.7900  -50.5590 O.3    29  THR29      -0.2208
     30  CG2       31.5930    4.1820  -48.7750 C.3    29  THR29       0.0379
     31  N         30.7800    5.4610  -52.9210 N.am   30  TYR30      -0.1959
     32  CA        30.7560    5.3490  -54.3690 C.3    30  TYR30       0.1771
     33  C         32.1150    4.8470  -54.8470 C.2    30  TYR30       0.2620
     34  O         33.1340    5.4040  -54.4830 O.2    30  TYR30      -0.2715
     35  CB        30.4730    6.7250  -55.0310 C.3    30  TYR30       0.0574
     36  CG        29.1560    7.3530  -54.5920 C.ar   30  TYR30      -0.0198
     37  CD1       27.9930    7.1770  -55.3280 C.ar   30  TYR30      -0.0009
     38  CD2       29.0890    8.1180  -53.4480 C.ar   30  TYR30      -0.0009
     39  CE1       26.7950    7.7340  -54.9500 C.ar   30  TYR30       0.0417
     40  CE2       27.9090    8.7120  -53.0530 C.ar   30  TYR30       0.0417
     41  CZ        26.7440    8.5050  -53.7990 C.ar   30  TYR30       0.1957
     42  OH        25.5670    9.0990  -53.3530 O.3    30  TYR30      -0.2866
     43  N         32.0970    3.7940  -55.6650 N.am   31  GLY31      -0.1940
     44  CA        33.3020    3.2820  -56.3080 C.3    31  GLY31       0.2014
     45  C         34.1700    2.2500  -55.5780 C.2    31  GLY31       0.2639
     46  O         35.2330    1.8730  -56.0720 O.2    31  GLY31      -0.2714
     47  N         33.6770    1.7110  -54.4720 N.am   32  GLU32      -0.1963
     48  CA        34.4580    0.7700  -53.6670 C.3    32  GLU32       0.1733
     49  C         34.5780   -0.6390  -54.2050 C.2    32  GLU32       0.2617
     50  O         35.4140   -1.4160  -53.7110 O.2    32  GLU32      -0.2715
     51  CB        33.9190    0.7160  -52.2270 C.3    32  GLU32       0.0429
     52  CG        32.6810   -0.1160  -51.9640 C.3    32  GLU32       0.1163
     53  CD        31.3780    0.4730  -52.4980 C.2    32  GLU32       0.3649
     54  OE1       31.3600    1.6460  -52.9870 O.co2  32  GLU32      -0.2457
     55  OE2       30.3520   -0.2170  -52.3410 O.co2  32  GLU32      -0.2457
     56  N         33.7700   -0.9890  -55.2000 N.am   33  GLY33      -0.1940
     57  CA        33.6020   -2.4160  -55.5470 C.3    33  GLY33       0.2014
     58  C         34.1880   -2.8500  -56.8810 C.2    33  GLY33       0.2638
     59  O         33.7510   -3.8590  -57.4680 O.2    33  GLY33      -0.2714
     60  N         35.1900   -2.1170  -57.3600 N.am   34  ALA34      -0.1977
     61  CA        35.9280   -2.5000  -58.5780 C.3    34  ALA34       0.1597
     62  C         36.5680   -3.9030  -58.4850 C.2    34  ALA34       0.2287
     63  O         37.0000   -4.3440  -57.3990 O.2    34  ALA34      -0.2864
     64  CB        36.9970   -1.4650  -58.8780 C.3    34  ALA34       0.0319
     65  N         37.4920    6.7190  -62.2040 N.3    75  LYS75      -0.1245
     66  CA        37.8220    5.5730  -61.3400 C.3    75  LYS75       0.1561
     67  C         39.0910    5.7880  -60.5300 C.2    75  LYS75       0.2260
     68  O         39.8460    4.8420  -60.2710 O.2    75  LYS75      -0.2867
     69  CB        37.8810    4.2630  -62.1480 C.3    75  LYS75       0.0271
     70  CG        36.6210    3.9950  -62.9590 C.3    75  LYS75       0.0035
     71  CD        35.3920    4.1040  -62.0760 C.3    75  LYS75       0.0206
     72  CE        34.1960    3.2910  -62.5280 C.3    75  LYS75       0.1093
     73  NZ        33.2450    3.1250  -61.3750 N.3    75  LYS75      -0.1314
     74  N         18.3930    7.4480  -50.9600 N.3   101  LEU101     -0.1245
     75  CA        19.2970    6.3050  -50.9100 C.3   101  LEU101      0.1561
     76  C         18.5930    4.9800  -51.0520 C.2   101  LEU101      0.2260
     77  O         19.0720    4.0700  -51.7280 O.2   101  LEU101     -0.2867
     78  CB        20.1060    6.3180  -49.6250 C.3   101  LEU101      0.0270
     79  CG        21.1630    7.4300  -49.5510 C.3   101  LEU101      0.0019
     80  CD1       21.7570    7.5630  -48.1570 C.3   101  LEU101      0.0001
     81  CD2       22.3050    7.2300  -50.5590 C.3   101  LEU101      0.0001
     82  N         18.6740    5.4530  -55.5760 N.3   105  PRO105     -0.2116
     83  CA        20.1140    5.6290  -55.3320 C.3   105  PRO105      0.1372
     84  C         20.8710    6.2070  -56.5410 C.2   105  PRO105      0.2244
     85  O         21.8680    6.8880  -56.3530 O.2   105  PRO105     -0.2868
     86  CB        20.5970    4.2150  -54.9800 C.3   105  PRO105      0.0268
     87  CG        19.5190    3.3110  -55.5540 C.3   105  PRO105      0.0207
     88  CD        18.2360    4.0800  -55.3060 C.3   105  PRO105      0.0892
     89  N         21.3110    9.7840  -55.9700 N.3   108  SER108     -0.1217
     90  CA        21.7370   10.1860  -54.6190 C.3   108  SER108      0.1889
     91  C         22.8460   11.2440  -54.5980 C.2   108  SER108      0.2288
     92  O         22.7530   12.2030  -53.8230 O.2   108  SER108     -0.2866
     93  CB        22.1340    9.0030  -53.7440 C.3   108  SER108      0.2089
     94  OG        23.1800    8.2600  -54.2950 O.3   108  SER108     -0.2183
@<TRIPOS>BOND
     1    70    69    1
     2    70    71    1
     3    72    71    1
     4    72    73    1
     5    65    66    1
     6    69    66    1
     7    66    67    1
     8    67    68    2
     9    64    61    1
    10    61    62    1
    11    61    60    1
    12    62    63    2
    13    59    58    2
    14    60    58   am
    15    58    57    1
    16    84    85    2
    17    84    83    1
    18    44    43    1
    19    44    45    1
    20    46    45    2
    21    89    90    1
    22    43    33   am
    23    45    47   am
    24    82    83    1
    25    82    88    1
    26    87    88    1
    27    87    86    1
    28    57    56    1
    29    83    86    1
    30    37    39   ar
    31    37    36   ar
    32    56    49   am
    33    35    36    1
    34    35    32    1
    35    39    41   ar
    36    33    34    2
    37    33    32    1
    38    90    91    1
    39    90    93    1
    40    91    92    2
    41    36    38   ar
    42    47    48    1
    43    32    31    1
    44    94    93    1
    45    49    50    2
    46    49    48    1
    47    41    42    1
    48    41    40   ar
    49    48    51    1
    50    38    40   ar
    51     9     7   am
    52    54    53   ar
    53    31    26   am
    54    53    55   ar
    55    53    52    1
    56     8     7    2
    57    27    26    2
    58    51    52    1
    59     7     6    1
    60    26    25    1
    61    77    76    2
    62    76    75    1
    63    74    75    1
    64    75    78    1
    65     6     5    1
    66    25    28    1
    67    25    24    1
    68    29    28    1
    69    81    79    1
    70    18    16   ar
    71    18    19   ar
    72    28    30    1
    73    16    15   ar
    74    24    12   am
    75     5     2    1
    76    78    79    1
    77    79    80    1
    78    19    21   ar
    79    19    17   ar
    80    21    23   ar
    81    15    17   ar
    82    15    14    1
    83    12    13    2
    84    12    11    1
    85    17    20   ar
    86    14    11    1
    87     2     1    1
    88     2     3    1
    89    23    22   ar
    90    11    10    1
    91     4     3    2
    92    20    22   ar
