@<TRIPOS>MOLECULE
tmp/4z83A01.pdb
 93 90 0 0 0
SMALL
GASTEIGER

@<TRIPOS>ATOM
      1  N         10.2580    8.7290  -11.0810 N.3     1  SER1       -0.1202
      2  CA         9.1150    9.6420  -11.0520 C.3     1  SER1        0.2020
      3  C          7.7840    8.9140  -10.8060 C.2     1  SER1        0.2618
      4  O          7.6980    7.6950  -10.9410 O.2     1  SER1       -0.2717
      5  CB         9.0270   10.4150  -12.3640 C.3     1  SER1        0.2103
      6  OG         8.5710    9.5730  -13.4090 O.3     1  SER1       -0.2182
      7  N          6.7480    9.6710  -10.4480 N.am    2  VAL2       -0.1979
      8  CA         5.4350    9.1040  -10.1570 C.3     2  VAL2        0.1595
      9  C          4.8870    8.4170  -11.3990 C.2     2  VAL2        0.2287
     10  O          4.4350    7.2700  -11.3390 O.2     2  VAL2       -0.2864
     11  CB         4.4370   10.1900   -9.6750 C.3     2  VAL2        0.0276
     12  CG1        3.0120    9.6620   -9.6230 C.3     2  VAL2        0.0022
     13  CG2        4.8560   10.7330   -8.3040 C.3     2  VAL2        0.0022
     14  N          6.5480    5.2770  -12.0280 N.3     5  PHE5       -0.1227
     15  CA         6.2080    4.2460  -11.0630 C.3     5  PHE5        0.1736
     16  C          4.8740    3.5880  -11.4060 C.2     5  PHE5        0.2595
     17  O          4.7420    2.3640  -11.3450 O.2     5  PHE5       -0.2718
     18  CB         6.1610    4.8280   -9.6550 C.3     5  PHE5        0.0547
     19  CG         5.5930    3.8860   -8.6290 C.ar    5  PHE5       -0.0202
     20  CD1        6.4060    2.9580   -7.9880 C.ar    5  PHE5       -0.0042
     21  CD2        4.2500    3.9270   -8.3050 C.ar    5  PHE5       -0.0042
     22  CE1        5.8820    2.0940   -7.0380 C.ar    5  PHE5       -0.0003
     23  CE2        3.7210    3.0620   -7.3600 C.ar    5  PHE5       -0.0003
     24  CZ         4.5430    2.1460   -6.7270 C.ar    5  PHE5       -0.0000
     25  N          3.8910    4.4070  -11.7660 N.am    6  LEU6       -0.1980
     26  CA         2.5500    3.9200  -12.0630 C.3     6  LEU6        0.1596
     27  C          2.5220    3.1710  -13.3940 C.2     6  LEU6        0.2287
     28  O          1.7560    2.2210  -13.5660 O.2     6  LEU6       -0.2864
     29  CB         1.5510    5.0830  -12.0880 C.3     6  LEU6        0.0297
     30  CG         1.2150    5.7420  -10.7430 C.3     6  LEU6        0.0022
     31  CD1        0.3410    6.9830  -10.9550 C.3     6  LEU6        0.0001
     32  CD2        0.5200    4.7600   -9.7860 C.3     6  LEU6        0.0001
     33  N          0.6630   -3.4420   -3.6880 N.3    87  PHE87      -0.1241
     34  CA         0.7250   -2.1070   -3.0940 C.3    87  PHE87       0.1605
     35  C          0.8670   -2.2810   -1.5830 C.2    87  PHE87       0.2264
     36  O          0.3430   -3.2460   -1.0330 O.2    87  PHE87      -0.2867
     37  CB        -0.5220   -1.2840   -3.4460 C.3    87  PHE87       0.0534
     38  CG        -0.3360    0.1980   -3.2790 C.ar   87  PHE87      -0.0203
     39  CD1        0.5420    0.8960   -4.1000 C.ar   87  PHE87      -0.0042
     40  CD2       -1.0350    0.8960   -2.2980 C.ar   87  PHE87      -0.0042
     41  CE1        0.7190    2.2690   -3.9520 C.ar   87  PHE87      -0.0003
     42  CE2       -0.8740    2.2610   -2.1390 C.ar   87  PHE87      -0.0003
     43  CZ         0.0120    2.9560   -2.9600 C.ar   87  PHE87      -0.0000
     44  N         -3.6470    7.1560   -1.1910 N.3   139  LEU139     -0.1245
     45  CA        -2.6130    6.5620   -2.0510 C.3   139  LEU139      0.1561
     46  C         -3.0840    5.2330   -2.6570 C.2   139  LEU139      0.2260
     47  O         -2.8210    4.9440   -3.8170 O.2   139  LEU139     -0.2867
     48  CB        -1.3210    6.3490   -1.2650 C.3   139  LEU139      0.0270
     49  CG        -0.5640    7.5940   -0.8290 C.3   139  LEU139      0.0019
     50  CD1        0.6210    7.1920    0.0520 C.3   139  LEU139      0.0001
     51  CD2       -0.0840    8.4110   -2.0290 C.3   139  LEU139      0.0001
     52  N         -5.4880    6.0420   -5.4690 N.3   142  GLU142     -0.1231
     53  CA        -4.6640    6.5290   -6.5850 C.3   142  GLU142      0.1699
     54  C         -4.0800    5.3540   -7.3780 C.2   142  GLU142      0.2592
     55  O         -4.1750    5.3130   -8.6070 O.2   142  GLU142     -0.2718
     56  CB        -3.5330    7.4300   -6.0820 C.3   142  GLU142      0.0402
     57  CG        -2.6930    8.0190   -7.2210 C.3   142  GLU142      0.1161
     58  CD        -1.5270    8.8740   -6.7470 C.2   142  GLU142      0.3649
     59  OE1       -1.3440    9.0460   -5.5270 O.co2 142  GLU142     -0.2457
     60  OE2       -0.7830    9.3710   -7.6070 O.co2 142  GLU142     -0.2457
     61  N         -3.5190    4.3850   -6.6610 N.am  143  TYR143     -0.1976
     62  CA        -2.9600    3.1870   -7.2850 C.3   143  TYR143      0.1639
     63  C         -4.0400    2.3700   -8.0200 C.2   143  TYR143      0.2290
     64  O         -3.9350    2.1140   -9.2270 O.2   143  TYR143     -0.2864
     65  CB        -2.2630    2.3190   -6.2280 C.3   143  TYR143      0.0560
     66  CG        -1.9180    0.9340   -6.7170 C.ar  143  TYR143     -0.0198
     67  CD1       -0.7450    0.7030   -7.4270 C.ar  143  TYR143     -0.0009
     68  CD2       -2.7560   -0.1440   -6.4770 C.ar  143  TYR143     -0.0009
     69  CE1       -0.4270   -0.5520   -7.8840 C.ar  143  TYR143      0.0417
     70  CE2       -2.4320   -1.4070   -6.9270 C.ar  143  TYR143      0.0417
     71  CZ        -1.2670   -1.6030   -7.6290 C.ar  143  TYR143      0.1957
     72  OH        -0.9390   -2.8570   -8.0880 O.3   143  TYR143     -0.2866
     73  N         -4.8580   15.6850   -1.9610 N.3   278  LYS278     -0.1245
     74  CA        -3.5280   15.6980   -1.3670 C.3   278  LYS278      0.1561
     75  C         -3.0570   17.0950   -0.9770 C.2   278  LYS278      0.2260
     76  O         -2.2990   17.2470   -0.0140 O.2   278  LYS278     -0.2867
     77  CB        -2.5150   15.0860   -2.3300 C.3   278  LYS278      0.0271
     78  CG        -2.6220   13.5790   -2.4790 C.3   278  LYS278      0.0035
     79  CD        -1.7860   13.1130   -3.6570 C.3   278  LYS278      0.0206
     80  CE        -1.2980   11.6990   -3.5090 C.3   278  LYS278      0.1093
     81  NZ        -0.3730   11.3240   -4.6200 N.3   278  LYS278     -0.1314
     82  N          3.9320    6.4960    2.3570 N.3   292  TYR292     -0.1241
     83  CA         4.1180    5.3730    1.4340 C.3   292  TYR292      0.1605
     84  C          5.2770    4.4640    1.8560 C.2   292  TYR292      0.2264
     85  O          5.1940    3.2480    1.7390 O.2   292  TYR292     -0.2867
     86  CB         4.3570    5.8730   -0.0010 C.3   292  TYR292      0.0534
     87  CG         4.7570    4.7580   -0.9490 C.ar  292  TYR292     -0.0201
     88  CD1        3.8000    3.9560   -1.5660 C.ar  292  TYR292     -0.0009
     89  CD2        6.0940    4.4940   -1.2130 C.ar  292  TYR292     -0.0009
     90  CE1        4.1690    2.9240   -2.4220 C.ar  292  TYR292      0.0417
     91  CE2        6.4730    3.4720   -2.0650 C.ar  292  TYR292      0.0417
     92  CZ         5.5080    2.6870   -2.6700 C.ar  292  TYR292      0.1957
     93  OH         5.8910    1.6670   -3.5200 O.3   292  TYR292     -0.2866
@<TRIPOS>BOND
     1    28    27    2
     2     6     5    1
     3    27    26    1
     4     5     2    1
     5    29    26    1
     6    29    30    1
     7    26    25    1
     8    14    15    1
     9    25    16   am
    10    16    17    2
    11    16    15    1
    12     9    10    2
    13     9     8    1
    14     1     2    1
    15    15    18    1
    16     2     3    1
    17    31    30    1
    18     4     3    2
    19     3     7   am
    20    30    32    1
    21     7     8    1
    22     8    11    1
    23    11    12    1
    24    11    13    1
    25    18    19    1
    26    64    63    2
    27    19    21   ar
    28    19    20   ar
    29    55    54    2
    30    21    23   ar
    31    72    71    1
    32    63    62    1
    33    20    22   ar
    34    69    71   ar
    35    69    67   ar
    36    71    70   ar
    37    60    58   ar
    38    67    66   ar
    39    54    61   am
    40    54    53    1
    41    23    24   ar
    42    62    61    1
    43    62    65    1
    44    57    58    1
    45    57    56    1
    46    22    24   ar
    47    70    68   ar
    48    58    59   ar
    49    66    68   ar
    50    66    65    1
    51    53    56    1
    52    53    52    1
    53    81    80    1
    54    39    41   ar
    55    39    38   ar
    56    41    43   ar
    57    47    46    2
    58    33    34    1
    59    79    80    1
    60    79    78    1
    61    93    92    1
    62    37    38    1
    63    37    34    1
    64    38    40   ar
    65    34    35    1
    66    43    42   ar
    67    92    90   ar
    68    92    91   ar
    69    46    45    1
    70    78    77    1
    71    90    88   ar
    72    77    74    1
    73    40    42   ar
    74    91    89   ar
    75    45    48    1
    76    45    44    1
    77    51    49    1
    78    73    74    1
    79    35    36    2
    80    88    87   ar
    81    74    75    1
    82    48    49    1
    83    89    87   ar
    84    75    76    2
    85    87    86    1
    86    49    50    1
    87    86    83    1
    88    83    84    1
    89    83    82    1
    90    85    84    2
