@<TRIPOS>MOLECULE
tmp/4z87B00.pdb
 179 167 0 0 0
SMALL
GASTEIGER

@<TRIPOS>ATOM
      1  N         25.7520  -16.3510  -74.4210 N.3    73  SER73      -0.1217
      2  CA        26.3680  -15.0750  -74.7580 C.3    73  SER73       0.1889
      3  C         27.6270  -14.7980  -73.9350 C.2    73  SER73       0.2288
      4  O         27.7040  -15.1920  -72.7700 O.2    73  SER73      -0.2866
      5  CB        25.3560  -13.9520  -74.5510 C.3    73  SER73       0.2089
      6  OG        25.9630  -12.6810  -74.6820 O.3    73  SER73      -0.2183
      7  N         29.0310  -12.8030  -71.7410 N.3    75  MET75      -0.1245
      8  CA        28.7870  -11.7650  -70.7500 C.3    75  MET75       0.1570
      9  C         29.1400  -12.2930  -69.3640 C.2    75  MET75       0.2261
     10  O         28.9600  -13.4790  -69.0850 O.2    75  MET75      -0.2867
     11  CB        27.3290  -11.3180  -70.8180 C.3    75  MET75       0.0387
     12  CG        26.9570  -10.7460  -72.1760 C.3    75  MET75       0.0595
     13  SD        25.2610  -10.1540  -72.2930 S.3    75  MET75      -0.1393
     14  CE        24.3470  -11.6230  -71.8700 C.3    75  MET75       0.0692
     15  N         29.6290   -3.9230  -80.8430 N.3   278  SER278     -0.1217
     16  CA        28.2750   -3.5030  -81.1780 C.3   278  SER278      0.1889
     17  C         28.1750   -3.1230  -82.6530 C.2   278  SER278      0.2288
     18  O         27.0860   -3.1160  -83.2290 O.2   278  SER278     -0.2866
     19  CB        27.8520   -2.3230  -80.3030 C.3   278  SER278      0.2089
     20  OG        28.7070   -1.2100  -80.5060 O.3   278  SER278     -0.2183
     21  N         29.2000   -7.2700  -84.2280 N.3   305  ASN305     -0.1240
     22  CA        27.8390   -7.5540  -84.6860 C.3   305  ASN305      0.1653
     23  C         27.4590   -6.7760  -85.9420 C.2   305  ASN305      0.2266
     24  O         27.9670   -5.6810  -86.1840 O.2   305  ASN305     -0.2867
     25  CB        26.8350   -7.2470  -83.5770 C.3   305  ASN305      0.1155
     26  CG        26.8090   -8.3190  -82.5030 C.2   305  ASN305      0.2627
     27  OD1       27.8230   -8.9590  -82.2250 O.2   305  ASN305     -0.2716
     28  ND2       25.6460   -8.5230  -81.8960 N.am  305  ASN305     -0.0877
     29  N         27.6960  -12.6910  -86.3620 N.3   324  ARG324     -0.1245
     30  CA        26.8660  -12.4500  -85.1940 C.3   324  ARG324      0.1563
     31  C         25.8990  -11.3130  -85.5150 C.2   324  ARG324      0.2260
     32  O         26.3310  -10.1980  -85.7910 O.2   324  ARG324     -0.2867
     33  CB        27.7550  -12.1130  -83.9970 C.3   324  ARG324      0.0307
     34  CG        27.0850  -12.1450  -82.6420 C.3   324  ARG324      0.0489
     35  CD        28.1390  -11.9670  -81.5620 C.3   324  ARG324      0.2205
     36  NE        27.5680  -11.7020  -80.2470 N.pl3 324  ARG324     -0.0865
     37  CZ        28.2460  -11.1650  -79.2360 C.cat 324  ARG324      0.5346
     38  NH1       29.5200  -10.8230  -79.3880 N.pl3 324  ARG324      0.1354
     39  NH2       27.6480  -10.9620  -78.0710 N.pl3 324  ARG324      0.1354
     40  N         21.7820   -5.6790  -83.1550 N.3   327  MET327     -0.1230
     41  CA        22.2050   -4.3720  -82.6800 C.3   327  MET327      0.1702
     42  C         21.0300   -3.6640  -82.0230 C.2   327  MET327      0.2592
     43  O         20.1480   -3.1410  -82.7050 O.2   327  MET327     -0.2718
     44  CB        22.7660   -3.5300  -83.8230 C.3   327  MET327      0.0401
     45  CG        23.4360   -2.2510  -83.3560 C.3   327  MET327      0.0596
     46  SD        24.1800   -1.3120  -84.6990 S.3   327  MET327     -0.1393
     47  CE        25.0450   -0.0420  -83.7720 C.3   327  MET327      0.0692
     48  N         21.0220   -3.6620  -80.6940 N.am  328  GLY328     -0.1957
     49  CA        19.9690   -3.0140  -79.9370 C.3   328  GLY328      0.1869
     50  C         18.8590   -3.9640  -79.5320 C.2   328  GLY328      0.2309
     51  O         17.9280   -3.5690  -78.8350 O.2   328  GLY328     -0.2863
     52  N         19.1990   -6.5490  -77.6600 N.3   330  GLY330     -0.1210
     53  CA        19.5050   -7.0700  -76.3420 C.3   330  GLY330      0.1956
     54  C         18.6080   -6.5850  -75.2080 C.2   330  GLY330      0.2613
     55  O         18.2480   -5.4220  -75.1380 O.2   330  GLY330     -0.2717
     56  N         18.2760   -7.5160  -74.3210 N.am  331  SER331     -0.1938
     57  CA        17.4180   -7.2890  -73.1570 C.3   331  SER331      0.2055
     58  C         17.9050   -6.1820  -72.2320 C.2   331  SER331      0.2643
     59  O         17.1170   -5.4240  -71.6840 O.2   331  SER331     -0.2714
     60  CB        17.2490   -8.5920  -72.3470 C.3   331  SER331      0.2130
     61  OG        18.4530   -9.0750  -71.7780 O.3   331  SER331     -0.2179
     62  N         19.2190   -6.1210  -72.0740 N.am  332  ILE332     -0.1963
     63  CA        19.8880   -5.1910  -71.2000 C.3   332  ILE332      0.1727
     64  C         20.6350   -4.1050  -71.9830 C.2   332  ILE332      0.2616
     65  O         21.3930   -3.3460  -71.4060 O.2   332  ILE332     -0.2715
     66  CB        20.8830   -6.0020  -70.3280 C.3   332  ILE332      0.0290
     67  CG1       21.1970   -5.2970  -69.0190 C.3   332  ILE332      0.0022
     68  CG2       22.1330   -6.3640  -71.0970 C.3   332  ILE332      0.0023
     69  CD1       20.0730   -5.4040  -68.0170 C.3   332  ILE332      0.0001
     70  N         20.4090   -4.0470  -73.2950 N.am  333  CYS333     -0.1968
     71  CA        21.0930   -3.1050  -74.1930 C.3   333  CYS333      0.1712
     72  C         20.2730   -1.8580  -74.5490 C.2   333  CYS333      0.2296
     73  O         19.0590   -1.8840  -74.5490 O.2   333  CYS333     -0.2864
     74  CB        21.5300   -3.8420  -75.4670 C.3   333  CYS333      0.0983
     75  SG        22.3250   -2.8480  -76.7510 S.3   333  CYS333     -0.0798
     76  N         21.6900    0.5420  -77.1670 N.3   335  THR335     -0.1218
     77  CA        22.4250    1.1640  -78.2670 C.3   335  THR335      0.1862
     78  C         21.5220    2.0020  -79.1690 C.2   335  THR335      0.2287
     79  O         21.9110    3.0820  -79.6090 O.2   335  THR335     -0.2866
     80  CB        23.1520    0.1030  -79.1180 C.3   335  THR335      0.1770
     81  OG1       24.1370   -0.5530  -78.3120 O.3   335  THR335     -0.2211
     82  CG2       23.8480    0.7360  -80.3180 C.3   335  THR335      0.0375
     83  N         21.5480  -12.8980  -82.4610 N.3   366  ASP366     -0.1225
     84  CA        21.8890  -12.4470  -81.1130 C.3   366  ASP366      0.1805
     85  C         21.0730  -11.2950  -80.5250 C.2   366  ASP366      0.2598
     86  O         21.0770  -10.1760  -81.0100 O.2   366  ASP366     -0.2718
     87  CB        23.3820  -12.1140  -81.1260 C.3   366  ASP366      0.1424
     88  CG        23.8900  -11.4960  -79.8360 C.2   366  ASP366      0.3668
     89  OD1       23.2830  -11.6620  -78.7620 O.co2 366  ASP366     -0.2456
     90  OD2       24.9410  -10.8400  -79.9170 O.co2 366  ASP366     -0.2456
     91  N         20.4020  -11.6200  -79.4300 N.am  367  GLY367     -0.1942
     92  CA        19.5830  -10.7010  -78.6780 C.3   367  GLY367      0.2014
     93  C         18.1030  -10.7600  -78.9820 C.2   367  GLY367      0.2639
     94  O         17.6910  -11.0890  -80.0760 O.2   367  GLY367     -0.2714
     95  N         17.3040  -10.4230  -77.9790 N.am  368  GLY368     -0.1939
     96  CA        15.8640  -10.4030  -78.1150 C.3   368  GLY368      0.2014
     97  C         15.1820  -11.7450  -77.9880 C.2   368  GLY368      0.2639
     98  O         13.9780  -11.8290  -78.1320 O.2   368  GLY368     -0.2714
     99  N         15.9560  -12.7860  -77.7190 N.am  369  VAL369     -0.1963
    100  CA        15.4240  -14.1350  -77.5450 C.3   369  VAL369      0.1727
    101  C         15.0520  -14.3710  -76.0830 C.2   369  VAL369      0.2616
    102  O         15.8680  -14.1640  -75.1860 O.2   369  VAL369     -0.2715
    103  CB        16.4290  -15.2110  -77.9980 C.3   369  VAL369      0.0290
    104  CG1       15.7640  -16.5770  -78.0230 C.3   369  VAL369      0.0023
    105  CG2       16.9880  -14.8770  -79.3770 C.3   369  VAL369      0.0023
    106  N         13.8150  -14.8070  -75.8600 N.am  370  GLN370     -0.1977
    107  CA        13.2750  -15.0030  -74.5160 C.3   370  GLN370      0.1601
    108  C         12.5310  -16.3290  -74.3780 C.2   370  GLN370      0.2287
    109  O         12.2850  -16.7930  -73.2650 O.2   370  GLN370     -0.2864
    110  CB        12.3380  -13.8490  -74.1470 C.3   370  GLN370      0.0394
    111  CG        13.0480  -12.5300  -73.8840 C.3   370  GLN370      0.0908
    112  CD        13.8300  -12.5410  -72.5830 C.2   370  GLN370      0.2608
    113  OE1       13.3400  -13.0100  -71.5550 O.2   370  GLN370     -0.2717
    114  NE2       15.0550  -12.0270  -72.6220 N.am  370  GLN370     -0.0878
    115  N         21.8200  -16.9260  -80.0660 N.3   387  MET387     -0.1230
    116  CA        22.5940  -16.6030  -78.8770 C.3   387  MET387      0.1702
    117  C         21.6600  -16.1120  -77.7790 C.2   387  MET387      0.2592
    118  O         20.7760  -15.2920  -78.0270 O.2   387  MET387     -0.2718
    119  CB        23.6610  -15.5540  -79.1910 C.3   387  MET387      0.0401
    120  CG        24.5050  -15.1460  -77.9980 C.3   387  MET387      0.0596
    121  SD        25.9090  -14.1130  -78.4730 S.3   387  MET387     -0.1393
    122  CE        26.9780  -15.3110  -79.2590 C.3   387  MET387      0.0692
    123  N         21.8540  -16.6290  -76.5800 N.am  388  MET388     -0.1965
    124  CA        21.0350  -16.2800  -75.4350 C.3   388  MET388      0.1736
    125  C         21.8410  -15.7220  -74.2700 C.2   388  MET388      0.2617
    126  O         22.8070  -16.3280  -73.8230 O.2   388  MET388     -0.2715
    127  CB        20.3220  -17.5240  -74.9530 C.3   388  MET388      0.0427
    128  CG        19.1320  -17.9560  -75.7740 C.3   388  MET388      0.0599
    129  SD        18.5810  -19.5760  -75.2460 S.3   388  MET388     -0.1393
    130  CE        19.7540  -20.6320  -76.0750 C.3   388  MET388      0.0692
    131  N         21.4220  -14.5680  -73.7770 N.am  389  GLY389     -0.1940
    132  CA        22.0640  -13.9360  -72.6500 C.3   389  GLY389      0.2014
    133  C         21.1710  -14.0020  -71.4280 C.2   389  GLY389      0.2639
    134  O         21.3650  -14.8280  -70.5420 O.2   389  GLY389     -0.2714
    135  N         20.1500  -13.1600  -71.4250 N.am  390  GLY390     -0.1954
    136  CA        19.2210  -13.0680  -70.3250 C.3   390  GLY390      0.1869
    137  C         18.5090  -14.3620  -70.0070 C.2   390  GLY390      0.2309
    138  O         18.2750  -14.6520  -68.8420 O.2   390  GLY390     -0.2863
    139  N         22.3210   -9.1810  -63.7680 N.3   413  TYR413     -0.1241
    140  CA        22.5850   -9.3590  -65.1890 C.3   413  TYR413      0.1605
    141  C         22.8690   -7.9600  -65.7500 C.2   413  TYR413      0.2264
    142  O         22.0460   -7.0620  -65.6310 O.2   413  TYR413     -0.2867
    143  CB        21.4230  -10.0630  -65.8900 C.3   413  TYR413      0.0534
    144  CG        21.5180  -10.0950  -67.3880 C.ar  413  TYR413     -0.0201
    145  CD1       22.5760  -10.7080  -68.0210 C.ar  413  TYR413     -0.0009
    146  CD2       20.5370   -9.5210  -68.1710 C.ar  413  TYR413     -0.0009
    147  CE1       22.6660  -10.7440  -69.3890 C.ar  413  TYR413      0.0417
    148  CE2       20.6180   -9.5470  -69.5420 C.ar  413  TYR413      0.0417
    149  CZ        21.6890  -10.1560  -70.1410 C.ar  413  TYR413      0.1957
    150  OH        21.7870  -10.1890  -71.4830 O.3   413  TYR413     -0.2866
    151  N         24.6980   -5.4590  -69.0650 N.3   415  GLY415     -0.1210
    152  CA        25.1840   -5.2870  -70.4140 C.3   415  GLY415      0.1956
    153  C         26.6640   -4.9800  -70.3780 C.2   415  GLY415      0.2612
    154  O         27.1400   -4.3280  -69.4690 O.2   415  GLY415     -0.2717
    155  N         27.3950   -5.4600  -71.3690 N.am  416  MET416     -0.1965
    156  CA        28.8300   -5.2530  -71.3980 C.3   416  MET416      0.1736
    157  C         29.2260   -3.8080  -71.6870 C.2   416  MET416      0.2617
    158  O         30.3540   -3.4360  -71.4750 O.2   416  MET416     -0.2715
    159  CB        29.4840   -6.2040  -72.3870 C.3   416  MET416      0.0427
    160  CG        29.4090   -7.6570  -71.9820 C.3   416  MET416      0.0599
    161  SD        30.2570   -8.0470  -70.4480 S.3   416  MET416     -0.1393
    162  CE        28.8660   -8.4380  -69.4220 C.3   416  MET416      0.0692
    163  N         28.2930   -3.0000  -72.1660 N.am  417  GLY417     -0.1955
    164  CA        28.5810   -1.6140  -72.4260 C.3   417  GLY417      0.1869
    165  C         28.2680   -0.7450  -71.2270 C.2   417  GLY417      0.2309
    166  O         28.5130    0.4480  -71.2590 O.2   417  GLY417     -0.2863
    167  N         26.3830    2.0160  -73.2250 N.3   426  GLN426     -0.1231
    168  CA        25.4710    1.4740  -74.2250 C.3   426  GLN426      0.1698
    169  C         24.7340    0.2640  -73.6530 C.2   426  GLN426      0.2592
    170  O         24.1090   -0.5050  -74.3840 O.2   426  GLN426     -0.2718
    171  CB        26.2340    1.1020  -75.4960 C.3   426  GLN426      0.0381
    172  CG        26.8850    2.3000  -76.1740 C.3   426  GLN426      0.0905
    173  CD        27.5250    1.9540  -77.5040 C.2   426  GLN426      0.2608
    174  OE1       27.0980    1.0260  -78.1920 O.2   426  GLN426     -0.2717
    175  NE2       28.5560    2.7040  -77.8750 N.am  426  GLN426     -0.0878
    176  N         24.8150    0.1120  -72.3340 N.am  427  GLY427     -0.1957
    177  CA        24.1220   -0.9460  -71.6230 C.3   427  GLY427      0.1869
    178  C         23.8510   -0.4920  -70.2010 C.2   427  GLY427      0.2309
    179  O         24.3610    0.5460  -69.7770 O.2   427  GLY427     -0.2863
@<TRIPOS>BOND
     1    29    30    1
     2    24    23    2
     3    23    22    1
     4    32    31    2
     5    31    30    1
     6    30    33    1
     7    46    47    1
     8    46    45    1
     9    22    21    1
    10    22    25    1
    11    33    34    1
    12    44    45    1
    13    44    41    1
    14    25    26    1
    15    18    17    2
    16    40    41    1
    17    43    42    2
    18    41    42    1
    19    17    16    1
    20    34    35    1
    21    26    27    2
    22    26    28   am
    23    83    84    1
    24    42    48   am
    25    35    36    1
    26    16    15    1
    27    16    19    1
    28    87    84    1
    29    87    88    1
    30    84    85    1
    31    86    85    2
    32    48    49    1
    33    85    91   am
    34    20    19    1
    35    82    80    1
    36    36    37    2
    37    94    93    2
    38   115   116    1
    39    49    50    1
    40    90    88   ar
    41    88    89   ar
    42    79    78    2
    43    50    51    2
    44    91    92    1
    45    38    37    1
    46   105   103    1
    47   122   121    1
    48    37    39    1
    49   119   116    1
    50   119   120    1
    51    78    77    1
    52    80    81    1
    53    80    77    1
    54    93    92    1
    55    93    95   am
    56   116   117    1
    57   121   120    1
    58    77    76    1
    59   174   173    2
    60    98    97    2
    61    96    97    1
    62    96    95    1
    63   118   117    2
    64   104   103    1
    65   103   100    1
    66    97    99   am
    67   175   173   am
    68   117   123   am
    69    99   100    1
    70    52    53    1
    71   100   101    1
    72   173   172    1
    73    75    74    1
    74   123   124    1
    75    53    54    1
    76   172   171    1
    77   101   106   am
    78   101   102    2
    79   130   129    1
    80   106   107    1
    81   128   129    1
    82   128   127    1
    83   171   168    1
    84    74    71    1
    85   124   127    1
    86   124   125    1
    87    54    55    2
    88    54    56   am
    89     2     5    1
    90     2     1    1
    91     2     3    1
    92     6     5    1
    93    73    72    2
    94    72    71    1
    95   107   108    1
    96   107   110    1
    97   170   169    2
    98   108   109    2
    99    56    57    1
   100   125   126    2
   101   125   131   am
   102   168   169    1
   103   168   167    1
   104    71    70    1
   105   110   111    1
   106     3     4    2
   107   111   112    1
   108   131   132    1
   109   169   176   am
   110    70    64   am
   111    57    60    1
   112    57    58    1
   113   132   133    1
   114   114   112   am
   115   112   113    2
   116   164   163    1
   117   164   165    1
   118   159   160    1
   119   159   156    1
   120    60    61    1
   121   176   177    1
   122    13    12    1
   123    13    14    1
   124    58    62   am
   125    58    59    2
   126    12    11    1
   127   163   157   am
   128    62    63    1
   129    64    65    2
   130    64    63    1
   131   160   161    1
   132     7     8    1
   133   157   158    2
   134   157   156    1
   135   177   178    1
   136   150   149    1
   137   133   135   am
   138   133   134    2
   139   135   136    1
   140   156   155    1
   141   155   153   am
   142   166   165    2
   143    63    66    1
   144    68    66    1
   145    11     8    1
   146     8     9    1
   147   161   162    1
   148   152   153    1
   149   152   151    1
   150   153   154    2
   151    66    67    1
   152   136   137    1
   153   178   179    2
   154   149   148   ar
   155   149   147   ar
   156   137   138    2
   157   148   146   ar
   158   147   145   ar
   159     9    10    2
   160    67    69    1
   161   146   144   ar
   162   145   144   ar
   163   144   143    1
   164   143   140    1
   165   141   142    2
   166   141   140    1
   167   140   139    1
