@<TRIPOS>MOLECULE
tmp/4z87B03.pdb
 127 118 0 0 0
SMALL
GASTEIGER

@<TRIPOS>ATOM
      1  N         36.3540  -32.7220  -70.1850 N.3   116  GLU116     -0.1231
      2  CA        36.2390  -34.0660  -70.7330 C.3   116  GLU116      0.1699
      3  C         37.3850  -34.3730  -71.6810 C.2   116  GLU116      0.2592
      4  O         37.8120  -33.5250  -72.4570 O.2   116  GLU116     -0.2718
      5  CB        34.9010  -34.2610  -71.4480 C.3   116  GLU116      0.0402
      6  CG        34.7610  -35.6170  -72.1160 C.3   116  GLU116      0.1161
      7  CD        33.3450  -35.9260  -72.5630 C.2   116  GLU116      0.3649
      8  OE1       33.1320  -36.9950  -73.1630 O.co2 116  GLU116     -0.2457
      9  OE2       32.4440  -35.1070  -72.3180 O.co2 116  GLU116     -0.2457
     10  N         37.8800  -35.6000  -71.6050 N.am  117  ASN117     -0.1960
     11  CA        39.0430  -36.0110  -72.3690 C.3   117  ASN117      0.1819
     12  C         38.8530  -37.4050  -72.9330 C.2   117  ASN117      0.2621
     13  O         38.0940  -38.1980  -72.3910 O.2   117  ASN117     -0.2715
     14  CB        40.2910  -35.9730  -71.4940 C.3   117  ASN117      0.1195
     15  CG        40.5990  -34.5870  -70.9810 C.2   117  ASN117      0.2630
     16  OD1       41.2790  -33.8100  -71.6400 O.2   117  ASN117     -0.2716
     17  ND2       40.1000  -34.2710  -69.8000 N.am  117  ASN117     -0.0877
     18  N         39.5610  -37.7150  -74.0120 N.am  118  GLY118     -0.1954
     19  CA        39.8240  -39.1020  -74.3270 C.3   118  GLY118      0.1869
     20  C         41.1590  -39.5630  -73.7900 C.2   118  GLY118      0.2309
     21  O         41.2060  -40.2630  -72.7910 O.2   118  GLY118     -0.2863
     22  N         42.4140  -44.8140  -79.1810 N.3   195  LEU195     -0.1231
     23  CA        41.4510  -44.5350  -78.1210 C.3   195  LEU195      0.1693
     24  C         40.4250  -45.6490  -77.9150 C.2   195  LEU195      0.2591
     25  O         40.1070  -45.9970  -76.7790 O.2   195  LEU195     -0.2718
     26  CB        40.7180  -43.2250  -78.4170 C.3   195  LEU195      0.0284
     27  CG        39.7890  -42.7210  -77.3120 C.3   195  LEU195      0.0019
     28  CD1       40.5750  -42.4000  -76.0540 C.3   195  LEU195      0.0001
     29  CD2       39.0040  -41.5050  -77.7820 C.3   195  LEU195      0.0001
     30  N         39.9130  -46.2060  -79.0060 N.am  196  GLU196     -0.1979
     31  CA        38.8940  -47.2480  -78.9210 C.3   196  GLU196      0.1602
     32  C         39.4620  -48.4900  -78.2470 C.2   196  GLU196      0.2287
     33  O         38.8000  -49.1300  -77.4310 O.2   196  GLU196     -0.2864
     34  CB        38.3580  -47.5970  -80.3100 C.3   196  GLU196      0.0415
     35  CG        37.5750  -46.4670  -80.9760 C.3   196  GLU196      0.1163
     36  CD        36.3590  -45.9970  -80.1610 C.2   196  GLU196      0.3649
     37  OE1       36.5260  -45.1820  -79.2190 O.co2 196  GLU196     -0.2457
     38  OE2       35.2230  -46.4280  -80.4770 O.co2 196  GLU196     -0.2457
     39  N         40.0020  -47.6560  -74.4810 N.3   199  ASN199     -0.1240
     40  CA        38.7280  -47.6110  -73.7860 C.3   199  ASN199      0.1653
     41  C         38.2440  -49.0000  -73.4220 C.2   199  ASN199      0.2266
     42  O         37.7220  -49.1980  -72.3260 O.2   199  ASN199     -0.2867
     43  CB        37.6590  -46.9480  -74.6470 C.3   199  ASN199      0.1155
     44  CG        37.7040  -45.4330  -74.6010 C.2   199  ASN199      0.2627
     45  OD1       38.3370  -44.8400  -73.7380 O.2   199  ASN199     -0.2716
     46  ND2       37.0180  -44.8010  -75.5440 N.am  199  ASN199     -0.0877
     47  N         37.2150  -50.4350  -69.7890 N.3   203  LYS203     -0.1245
     48  CA        35.8940  -50.9900  -69.5290 C.3   203  LYS203      0.1561
     49  C         35.9860  -52.4040  -68.9500 C.2   203  LYS203      0.2260
     50  O         35.1300  -52.8160  -68.1670 O.2   203  LYS203     -0.2867
     51  CB        35.0680  -50.9860  -70.8170 C.3   203  LYS203      0.0271
     52  CG        34.6210  -49.5920  -71.2370 C.3   203  LYS203      0.0035
     53  CD        34.0330  -49.5710  -72.6410 C.3   203  LYS203      0.0206
     54  CE        32.7330  -50.3470  -72.7310 C.3   203  LYS203      0.1093
     55  NZ        32.1410  -50.2650  -74.0970 N.3   203  LYS203     -0.1314
     56  N         43.5100  -42.5370  -69.2910 N.3   223  LEU223     -0.1231
     57  CA        42.0740  -42.4990  -69.5370 C.3   223  LEU223      0.1693
     58  C         41.3420  -42.4270  -68.2040 C.2   223  LEU223      0.2592
     59  O         41.8960  -42.7920  -67.1660 O.2   223  LEU223     -0.2718
     60  CB        41.6050  -43.7350  -70.3110 C.3   223  LEU223      0.0284
     61  CG        41.9940  -43.9090  -71.7800 C.3   223  LEU223      0.0019
     62  CD1       41.2990  -45.1330  -72.3450 C.3   223  LEU223      0.0001
     63  CD2       41.6700  -42.6850  -72.6020 C.3   223  LEU223      0.0001
     64  N         40.1000  -41.9530  -68.2400 N.am  224  SER224     -0.1952
     65  CA        39.2560  -41.9000  -67.0510 C.3   224  SER224      0.1924
     66  C         37.9020  -42.5120  -67.3690 C.2   224  SER224      0.2314
     67  O         37.3210  -42.2490  -68.4220 O.2   224  SER224     -0.2863
     68  CB        39.0860  -40.4640  -66.5570 C.3   224  SER224      0.2116
     69  OG        38.1960  -40.4100  -65.4560 O.3   224  SER224     -0.2180
     70  N         34.9710  -40.1950  -68.1340 N.3   227  ASP227     -0.1225
     71  CA        34.8790  -39.6560  -69.4790 C.3   227  ASP227      0.1805
     72  C         33.9030  -40.5110  -70.2880 C.2   227  ASP227      0.2597
     73  O         33.1070  -39.9840  -71.0510 O.2   227  ASP227     -0.2718
     74  CB        36.2400  -39.5410  -70.1430 C.3   227  ASP227      0.1424
     75  CG        37.0640  -38.4320  -69.5470 C.2   227  ASP227      0.3668
     76  OD1       36.5870  -37.2870  -69.5580 O.co2 227  ASP227     -0.2456
     77  OD2       38.1600  -38.7030  -69.0420 O.co2 227  ASP227     -0.2456
     78  N         33.9720  -41.8260  -70.1050 N.am  228  LEU228     -0.1979
     79  CA        33.0620  -42.7410  -70.7780 C.3   228  LEU228      0.1596
     80  C         31.6380  -42.4920  -70.2700 C.2   228  LEU228      0.2287
     81  O         30.6850  -42.5140  -71.0320 O.2   228  LEU228     -0.2864
     82  CB        33.4640  -44.2010  -70.5990 C.3   228  LEU228      0.0297
     83  CG        34.8700  -44.6220  -71.0410 C.3   228  LEU228      0.0022
     84  CD1       35.0730  -46.1100  -70.8630 C.3   228  LEU228      0.0001
     85  CD2       35.2130  -44.2010  -72.4600 C.3   228  LEU228      0.0001
     86  N         30.3270  -39.3230  -71.8160 N.3   231  ASN231     -0.1225
     87  CA        29.9610  -39.5780  -73.1980 C.3   231  ASN231      0.1785
     88  C         28.5900  -40.2490  -73.2730 C.2   231  ASN231      0.2597
     89  O         27.7640  -39.8960  -74.1010 O.2   231  ASN231     -0.2718
     90  CB        31.0120  -40.4260  -73.9060 C.3   231  ASN231      0.1169
     91  CG        30.7400  -40.5640  -75.3980 C.2   231  ASN231      0.2627
     92  OD1       30.7000  -39.5840  -76.1160 O.2   231  ASN231     -0.2716
     93  ND2       30.5470  -41.7820  -75.8560 N.am  231  ASN231     -0.0877
     94  N         28.3720  -41.2090  -72.3830 N.am  232  GLN232     -0.1979
     95  CA        27.1200  -41.9530  -72.2910 C.3   232  GLN232      0.1601
     96  C         25.9300  -41.0880  -71.8790 C.2   232  GLN232      0.2287
     97  O         24.8310  -41.2540  -72.3870 O.2   232  GLN232     -0.2864
     98  CB        27.2630  -43.1110  -71.2910 C.3   232  GLN232      0.0394
     99  CG        25.9930  -43.8760  -70.9760 C.3   232  GLN232      0.0908
    100  CD        26.2600  -45.1180  -70.1370 C.2   232  GLN232      0.2608
    101  OE1       26.3610  -45.0490  -68.9230 O.2   232  GLN232     -0.2717
    102  NE2       26.3670  -46.2530  -70.7910 N.am  232  GLN232     -0.0878
    103  N         25.2390  -37.7800  -75.1520 N.3   235  PRO235     -0.2116
    104  CA        25.5710  -38.2870  -76.4880 C.3   235  PRO235      0.1372
    105  C         25.5510  -37.2210  -77.5840 C.2   235  PRO235      0.2244
    106  O         26.0710  -37.4730  -78.6720 O.2   235  PRO235     -0.2868
    107  CB        24.4880  -39.3410  -76.7360 C.3   235  PRO235      0.0268
    108  CG        23.3360  -38.8980  -75.9150 C.3   235  PRO235      0.0207
    109  CD        23.9240  -38.2620  -74.6910 C.3   235  PRO235      0.0892
    110  N         31.8470  -31.8010  -79.1750 N.3   239  LYS239     -0.1245
    111  CA        33.2440  -32.1680  -78.9050 C.3   239  LYS239      0.1561
    112  C         34.1440  -32.3010  -80.1330 C.2   239  LYS239      0.2260
    113  O         33.6770  -32.5080  -81.2490 O.2   239  LYS239     -0.2867
    114  CB        33.3160  -33.5150  -78.1830 C.3   239  LYS239      0.0271
    115  CG        32.2910  -33.7730  -77.1180 C.3   239  LYS239      0.0035
    116  CD        32.5690  -35.0760  -76.4110 C.3   239  LYS239      0.0206
    117  CE        31.8710  -36.2360  -77.0780 C.3   239  LYS239      0.1093
    118  NZ        31.8200  -37.3820  -76.1620 N.3   239  LYS239     -0.1314
    119  N         38.1700  -35.5210  -78.2180 N.3   244  LYS244     -0.1245
    120  CA        37.0200  -35.8210  -77.3840 C.3   244  LYS244      0.1561
    121  C         36.7690  -34.7160  -76.3550 C.2   244  LYS244      0.2260
    122  O         35.9540  -34.8800  -75.4590 O.2   244  LYS244     -0.2867
    123  CB        37.1670  -37.1710  -76.6850 C.3   244  LYS244      0.0271
    124  CG        36.4810  -38.3110  -77.4060 C.3   244  LYS244      0.0035
    125  CD        36.7840  -38.2990  -78.8860 C.3   244  LYS244      0.0206
    126  CE        35.9730  -39.3070  -79.6790 C.3   244  LYS244      0.1093
    127  NZ        36.3660  -39.3100  -81.1100 N.3   244  LYS244     -0.1314
@<TRIPOS>BOND
     1   113   112    2
     2   127   126    1
     3    35    34    1
     4    35    36    1
     5    38    36   ar
     6    34    31    1
     7    36    37   ar
     8   112   111    1
     9   126   125    1
    10    22    23    1
    11   110   111    1
    12    30    31    1
    13    30    24   am
    14    31    32    1
    15   111   114    1
    16   125   124    1
    17   106   105    2
    18    26    23    1
    19    26    27    1
    20    32    33    2
    21   119   120    1
    22   114   115    1
    23    23    24    1
    24    24    25    2
    25    29    27    1
    26   105   104    1
    27   124   123    1
    28   120   123    1
    29   120   121    1
    30    27    28    1
    31   115   116    1
    32   117   116    1
    33   117   118    1
    34   107   104    1
    35   107   108    1
    36   104   103    1
    37   121   122    2
    38    92    91    2
    39   108   109    1
    40    93    91   am
    41    46    44   am
    42    91    90    1
    43   103   109    1
    44    43    44    1
    45    43    40    1
    46    44    45    2
    47    39    40    1
    48    19    18    1
    49    19    20    1
    50    89    88    2
    51    55    54    1
    52    18    12   am
    53    90    87    1
    54    20    21    2
    55    40    41    1
    56    41    42    2
    57    88    87    1
    58    88    94   am
    59    87    86    1
    60     8     7   ar
    61    12    13    2
    62    12    11    1
    63    54    53    1
    64    53    52    1
    65    63    61    1
    66     7     9   ar
    67     7     6    1
    68    85    83    1
    69     4     3    2
    70    97    96    2
    71    94    95    1
    72    11    10    1
    73    11    14    1
    74    62    61    1
    75    95    96    1
    76    95    98    1
    77     6     5    1
    78    61    60    1
    79     3    10   am
    80     3     2    1
    81    16    15    2
    82    14    15    1
    83     5     2    1
    84    98    99    1
    85    52    51    1
    86    73    72    2
    87    83    84    1
    88    83    82    1
    89    81    80    2
    90    15    17   am
    91    99   100    1
    92    51    48    1
    93   102   100   am
    94    79    82    1
    95    79    80    1
    96    79    78    1
    97     2     1    1
    98    60    57    1
    99    72    78   am
   100    72    71    1
   101    74    75    1
   102    74    71    1
   103   100   101    2
   104    47    48    1
   105    76    75   ar
   106    75    77   ar
   107    57    56    1
   108    57    58    1
   109    48    49    1
   110    71    70    1
   111    49    50    2
   112    67    66    2
   113    64    58   am
   114    64    65    1
   115    58    59    2
   116    66    65    1
   117    65    68    1
   118    68    69    1
