@<TRIPOS>MOLECULE
tmp/4z87B02.pdb
 133 125 0 0 0
SMALL
GASTEIGER

@<TRIPOS>ATOM
      1  N         39.4940  -29.1430  -70.6170 N.3   114  LYS114     -0.1231
      2  CA        39.9670  -30.2470  -69.7950 C.3   114  LYS114      0.1693
      3  C         38.8630  -30.9610  -69.0130 C.2   114  LYS114      0.2592
      4  O         39.1340  -31.9340  -68.3180 O.2   114  LYS114     -0.2718
      5  CB        41.0610  -29.7580  -68.8330 C.3   114  LYS114      0.0285
      6  CG        42.3860  -29.3680  -69.4780 C.3   114  LYS114      0.0035
      7  CD        43.0420  -30.5150  -70.2300 C.3   114  LYS114      0.0206
      8  CE        43.4850  -31.6400  -69.3130 C.3   114  LYS114      0.1093
      9  NZ        44.9200  -31.5900  -68.9940 N.3   114  LYS114     -0.1314
     10  N         37.6300  -30.4720  -69.1180 N.am  115  TYR115     -0.1976
     11  CA        36.5090  -31.0740  -68.4070 C.3   115  TYR115      0.1639
     12  C         36.2710  -32.5030  -68.8790 C.2   115  TYR115      0.2290
     13  O         35.9530  -33.3740  -68.0900 O.2   115  TYR115     -0.2864
     14  CB        35.2300  -30.2450  -68.5230 C.3   115  TYR115      0.0560
     15  CG        34.1000  -30.8440  -67.7240 C.ar  115  TYR115     -0.0198
     16  CD1       33.9450  -30.5540  -66.3790 C.ar  115  TYR115     -0.0009
     17  CD2       33.2240  -31.7440  -68.3020 C.ar  115  TYR115     -0.0009
     18  CE1       32.9270  -31.1210  -65.6420 C.ar  115  TYR115      0.0417
     19  CE2       32.2100  -32.3120  -67.5770 C.ar  115  TYR115      0.0417
     20  CZ        32.0590  -31.9940  -66.2480 C.ar  115  TYR115      0.1957
     21  OH        31.0480  -32.5670  -65.5400 O.3   115  TYR115     -0.2866
     22  N         37.8800  -35.6000  -71.6050 N.3   117  ASN117     -0.1240
     23  CA        39.0430  -36.0110  -72.3690 C.3   117  ASN117      0.1653
     24  C         38.8530  -37.4050  -72.9330 C.2   117  ASN117      0.2266
     25  O         38.0940  -38.1980  -72.3910 O.2   117  ASN117     -0.2867
     26  CB        40.2910  -35.9730  -71.4940 C.3   117  ASN117      0.1155
     27  CG        40.5990  -34.5870  -70.9810 C.2   117  ASN117      0.2627
     28  OD1       41.2790  -33.8100  -71.6400 O.2   117  ASN117     -0.2716
     29  ND2       40.1000  -34.2710  -69.8000 N.am  117  ASN117     -0.0877
     30  N         44.1130  -38.1930  -71.7520 N.3   120  ILE120     -0.1245
     31  CA        44.4320  -37.0070  -70.9950 C.3   120  ILE120      0.1561
     32  C         45.8700  -36.6010  -71.2580 C.2   120  ILE120      0.2260
     33  O         46.7870  -37.3790  -71.0730 O.2   120  ILE120     -0.2867
     34  CB        44.2440  -37.2340  -69.4860 C.3   120  ILE120      0.0252
     35  CG1       42.7850  -37.5490  -69.1640 C.3   120  ILE120      0.0019
     36  CG2       44.7460  -36.0370  -68.6950 C.3   120  ILE120      0.0019
     37  CD1       42.5530  -37.9730  -67.7400 C.3   120  ILE120      0.0001
     38  N         49.2080  -34.7640  -70.3090 N.3   122  ALA122     -0.1231
     39  CA        49.8870  -34.2830  -69.1010 C.3   122  ALA122      0.1679
     40  C         49.0390  -34.4330  -67.8330 C.2   122  ALA122      0.2434
     41  O         48.7190  -33.4550  -67.1680 O.2   122  ALA122     -0.2733
     42  CB        50.3200  -32.8450  -69.2850 C.3   122  ALA122      0.0304
     43  N         48.6480  -35.7330  -67.5360 N.am  123  PRO123     -0.2718
     44  CA        47.7950  -35.8570  -66.3340 C.3   123  PRO123      0.1535
     45  C         48.4740  -35.4880  -65.0240 C.2   123  PRO123      0.2598
     46  O         49.6820  -35.6310  -64.8890 O.2   123  PRO123     -0.2715
     47  CB        47.4290  -37.3380  -66.2900 C.3   123  PRO123      0.0310
     48  CG        48.5730  -38.0210  -66.9010 C.3   123  PRO123      0.0237
     49  CD        48.9430  -37.1480  -68.0420 C.3   123  PRO123      0.0939
     50  N         47.6800  -35.0030  -64.0800 N.am  124  VAL124     -0.1978
     51  CA        48.1970  -34.6180  -62.7840 C.3   124  VAL124      0.1596
     52  C         48.7100  -35.8720  -62.1100 C.2   124  VAL124      0.2287
     53  O         48.0450  -36.8900  -62.0860 O.2   124  VAL124     -0.2864
     54  CB        47.1270  -33.9350  -61.9230 C.3   124  VAL124      0.0276
     55  CG1       47.6340  -33.6990  -60.5140 C.3   124  VAL124      0.0022
     56  CG2       46.6840  -32.6370  -62.5620 C.3   124  VAL124      0.0022
     57  N         40.3560  -33.4380  -58.2100 N.3   144  PHE144     -0.1227
     58  CA        39.9840  -34.8300  -58.4600 C.3   144  PHE144      0.1736
     59  C         40.9260  -35.6530  -57.5990 C.2   144  PHE144      0.2595
     60  O         41.9860  -35.1600  -57.2260 O.2   144  PHE144     -0.2718
     61  CB        40.0650  -35.2190  -59.9390 C.3   144  PHE144      0.0547
     62  CG        41.1180  -34.4870  -60.7150 C.ar  144  PHE144     -0.0202
     63  CD1       42.4590  -34.7490  -60.5130 C.ar  144  PHE144     -0.0042
     64  CD2       40.7610  -33.5550  -61.6710 C.ar  144  PHE144     -0.0042
     65  CE1       43.4260  -34.0800  -61.2360 C.ar  144  PHE144     -0.0003
     66  CE2       41.7210  -32.8830  -62.3980 C.ar  144  PHE144     -0.0003
     67  CZ        43.0560  -33.1460  -62.1800 C.ar  144  PHE144     -0.0000
     68  N         40.5640  -36.8810  -57.2510 N.am  145  ALA145     -0.1966
     69  CA        41.4380  -37.6380  -56.3800 C.3   145  ALA145      0.1728
     70  C         42.2050  -38.7810  -57.0220 C.2   145  ALA145      0.2616
     71  O         42.8700  -39.5300  -56.3270 O.2   145  ALA145     -0.2715
     72  CB        40.6380  -38.1500  -55.2040 C.3   145  ALA145      0.0334
     73  N         42.1170  -38.9350  -58.3320 N.am  146  GLY146     -0.1955
     74  CA        42.8270  -40.0250  -58.9660 C.3   146  GLY146      0.1869
     75  C         44.1320  -39.5580  -59.5480 C.2   146  GLY146      0.2309
     76  O         44.1640  -38.9120  -60.5770 O.2   146  GLY146     -0.2863
     77  N         40.7090  -41.7380  -54.4690 N.3   165  SER165     -0.1217
     78  CA        39.9900  -41.2010  -53.3330 C.3   165  SER165      0.1889
     79  C         39.7430  -42.2750  -52.2930 C.2   165  SER165      0.2288
     80  O         39.8700  -41.9980  -51.1150 O.2   165  SER165     -0.2866
     81  CB        38.6620  -40.5700  -53.7510 C.3   165  SER165      0.2089
     82  OG        37.8380  -41.4650  -54.4610 O.3   165  SER165     -0.2183
     83  N         38.8770  -46.9230  -62.1530 N.3   208  GLY208     -0.1210
     84  CA        38.7220  -45.5100  -62.3750 C.3   208  GLY208      0.1956
     85  C         39.5860  -44.9640  -63.5050 C.2   208  GLY208      0.2611
     86  O         39.1990  -44.0210  -64.1930 O.2   208  GLY208     -0.2717
     87  N         40.7750  -45.5350  -63.6800 N.am  209  LYS209     -0.1979
     88  CA        41.7290  -45.0020  -64.6470 C.3   209  LYS209      0.1596
     89  C         42.4000  -46.1020  -65.4550 C.2   209  LYS209      0.2287
     90  O         42.3900  -47.2690  -65.0630 O.2   209  LYS209     -0.2864
     91  CB        42.8090  -44.1820  -63.9320 C.3   209  LYS209      0.0298
     92  CG        42.2870  -43.0190  -63.1070 C.3   209  LYS209      0.0038
     93  CD        41.7380  -41.9080  -63.9820 C.3   209  LYS209      0.0206
     94  CE        41.4230  -40.6660  -63.1620 C.3   209  LYS209      0.1093
     95  NZ        40.4240  -40.9330  -62.0940 N.3   209  LYS209     -0.1314
     96  N         46.6740  -40.9950  -69.9730 N.3   222  MET222     -0.1245
     97  CA        45.7460  -41.6480  -69.0600 C.3   222  MET222      0.1570
     98  C         44.3070  -41.5010  -69.5400 C.2   222  MET222      0.2261
     99  O         43.9350  -40.4830  -70.1300 O.2   222  MET222     -0.2867
    100  CB        45.8910  -41.0650  -67.6490 C.3   222  MET222      0.0387
    101  CG        45.0400  -41.7510  -66.5900 C.3   222  MET222      0.0595
    102  SD        45.2780  -41.0710  -64.9320 S.3   222  MET222     -0.1393
    103  CE        44.5940  -39.4290  -65.1350 C.3   222  MET222      0.0692
    104  N         40.1000  -41.9530  -68.2400 N.3   224  SER224     -0.1217
    105  CA        39.2560  -41.9000  -67.0510 C.3   224  SER224      0.1889
    106  C         37.9020  -42.5120  -67.3690 C.2   224  SER224      0.2288
    107  O         37.3210  -42.2490  -68.4220 O.2   224  SER224     -0.2866
    108  CB        39.0860  -40.4640  -66.5570 C.3   224  SER224      0.2089
    109  OG        38.1960  -40.4100  -65.4560 O.3   224  SER224     -0.2183
    110  N         35.0490  -41.9020  -65.9690 N.3   226  THR226     -0.1203
    111  CA        34.0340  -40.8550  -65.9600 C.3   226  THR226      0.1994
    112  C         33.8960  -40.2140  -67.3480 C.2   226  THR226      0.2617
    113  O         32.8250  -39.7670  -67.7020 O.2   226  THR226     -0.2717
    114  CB        34.2290  -39.8250  -64.8110 C.3   226  THR226      0.1784
    115  OG1       35.2800  -38.9120  -65.1080 O.3   226  THR226     -0.2211
    116  CG2       34.5300  -40.5300  -63.5140 C.3   226  THR226      0.0376
    117  N         34.9710  -40.1950  -68.1340 N.am  227  ASP227     -0.1973
    118  CA        34.8790  -39.6560  -69.4790 C.3   227  ASP227      0.1709
    119  C         33.9030  -40.5110  -70.2880 C.2   227  ASP227      0.2293
    120  O         33.1070  -39.9840  -71.0510 O.2   227  ASP227     -0.2864
    121  CB        36.2400  -39.5410  -70.1430 C.3   227  ASP227      0.1436
    122  CG        37.0640  -38.4320  -69.5470 C.2   227  ASP227      0.3671
    123  OD1       36.5870  -37.2870  -69.5580 O.co2 227  ASP227     -0.2456
    124  OD2       38.1600  -38.7030  -69.0420 O.co2 227  ASP227     -0.2456
    125  N         30.4740  -39.6480  -69.1390 N.3   230  LYS230     -0.1245
    126  CA        30.1050  -38.3320  -69.6100 C.3   230  LYS230      0.1561
    127  C         29.6270  -38.4910  -71.0500 C.2   230  LYS230      0.2260
    128  O         28.6360  -37.8870  -71.4490 O.2   230  LYS230     -0.2867
    129  CB        31.2700  -37.3360  -69.4880 C.3   230  LYS230      0.0271
    130  CG        31.4940  -36.7940  -68.0800 C.3   230  LYS230      0.0035
    131  CD        32.7520  -35.9520  -67.9350 C.3   230  LYS230      0.0206
    132  CE        32.9530  -35.4950  -66.4970 C.3   230  LYS230      0.1093
    133  NZ        34.0170  -34.4890  -66.2990 N.3   230  LYS230     -0.1314
@<TRIPOS>BOND
     1    24    25    2
     2    24    23    1
     3    23    22    1
     4    23    26    1
     5    30    31    1
     6    28    27    2
     7    26    27    1
     8   128   127    2
     9    32    33    2
    10    32    31    1
    11   120   119    2
    12   127   126    1
    13    31    34    1
    14    27    29   am
    15     1     2    1
    16    38    39    1
    17   119   118    1
    18     7     6    1
    19     7     8    1
    20   121   122    1
    21   121   118    1
    22    99    98    2
    23    96    97    1
    24     2     3    1
    25     2     5    1
    26   126   129    1
    27   126   125    1
    28   123   122   ar
    29   122   124   ar
    30    98    97    1
    31   129   130    1
    32    34    35    1
    33    34    36    1
    34   118   117    1
    35     6     5    1
    36     8     9    1
    37    42    39    1
    38    35    37    1
    39    10     3   am
    40    10    11    1
    41    39    40    1
    42    97   100    1
    43     3     4    2
    44    12    11    1
    45    12    13    2
    46    14    11    1
    47    14    15    1
    48   107   106    2
    49    17    15   ar
    50    17    19   ar
    51   104   105    1
    52   117   112   am
    53   130   131    1
    54    49    43    1
    55    49    48    1
    56   131   132    1
    57    40    43   am
    58    40    41    2
    59    15    16   ar
    60   113   112    2
    61   100   101    1
    62    19    20   ar
    63    43    44    1
    64   106   105    1
    65   112   111    1
    66   105   108    1
    67    48    47    1
    68   101   102    1
    69   108   109    1
    70   132   133    1
    71    16    18   ar
    72    44    47    1
    73    44    45    1
    74    20    18   ar
    75    20    21    1
    76   110   111    1
    77   111   114    1
    78    89    90    2
    79    89    88    1
    80   103   102    1
    81   115   114    1
    82    45    46    2
    83    45    50   am
    84   114   116    1
    85    88    91    1
    86    88    87    1
    87    86    85    2
    88    50    51    1
    89    93    94    1
    90    93    92    1
    91    91    92    1
    92    87    85   am
    93    85    84    1
    94    94    95    1
    95    51    52    1
    96    51    54    1
    97    56    54    1
    98    66    67   ar
    99    66    64   ar
   100    84    83    1
   101    67    65   ar
   102    52    53    2
   103    54    55    1
   104    64    62   ar
   105    65    63   ar
   106    62    63   ar
   107    62    61    1
   108    76    75    2
   109    61    58    1
   110    75    74    1
   111    74    73    1
   112    58    57    1
   113    58    59    1
   114    73    70   am
   115    59    68   am
   116    59    60    2
   117    68    69    1
   118    70    69    1
   119    70    71    2
   120    69    72    1
   121    77    78    1
   122    82    81    1
   123    81    78    1
   124    78    79    1
   125    79    80    2
