@<TRIPOS>MOLECULE
tmp/4z87B01.pdb
 101 96 0 0 0
SMALL
GASTEIGER

@<TRIPOS>ATOM
      1  N         49.3280  -46.0400  -58.2560 N.3   162  ILE162     -0.1245
      2  CA        48.2330  -45.0980  -58.2930 C.3   162  ILE162      0.1561
      3  C         47.5560  -44.9080  -56.9330 C.2   162  ILE162      0.2260
      4  O         47.4680  -45.8250  -56.1220 O.2   162  ILE162     -0.2867
      5  CB        47.2150  -45.4950  -59.3970 C.3   162  ILE162      0.0252
      6  CG1       46.2930  -44.3320  -59.7310 C.3   162  ILE162      0.0019
      7  CG2       46.4210  -46.7230  -59.0130 C.3   162  ILE162      0.0019
      8  CD1       45.4190  -44.5880  -60.9300 C.3   162  ILE162      0.0001
      9  N         43.9770  -43.2080  -55.2810 N.3   164  THR164     -0.1203
     10  CA        42.5940  -42.8090  -55.5690 C.3   164  THR164      0.1994
     11  C         41.9100  -42.2930  -54.3100 C.2   164  THR164      0.2619
     12  O         42.4580  -42.4140  -53.2100 O.2   164  THR164     -0.2717
     13  CB        41.7230  -43.9770  -56.0810 C.3   164  THR164      0.1784
     14  OG1       41.4770  -44.9030  -55.0180 O.3   164  THR164     -0.2211
     15  CG2       42.3540  -44.6890  -57.2470 C.3   164  THR164      0.0376
     16  N         40.7090  -41.7380  -54.4690 N.am  165  SER165     -0.1937
     17  CA        39.9900  -41.2010  -53.3330 C.3   165  SER165      0.2055
     18  C         39.7430  -42.2750  -52.2930 C.2   165  SER165      0.2643
     19  O         39.8700  -41.9980  -51.1150 O.2   165  SER165     -0.2714
     20  CB        38.6620  -40.5700  -53.7510 C.3   165  SER165      0.2130
     21  OG        37.8380  -41.4650  -54.4610 O.3   165  SER165     -0.2179
     22  N         39.3990  -43.4900  -52.7070 N.am  166  ARG166     -0.1963
     23  CA        39.1790  -44.5390  -51.7250 C.3   166  ARG166      0.1729
     24  C         40.4230  -44.8150  -50.8700 C.2   166  ARG166      0.2616
     25  O         40.3070  -45.1590  -49.6970 O.2   166  ARG166     -0.2715
     26  CB        38.6890  -45.8150  -52.3890 C.3   166  ARG166      0.0348
     27  CG        37.2450  -45.7850  -52.8550 C.3   166  ARG166      0.0492
     28  CD        36.7570  -47.1840  -53.1540 C.3   166  ARG166      0.2205
     29  NE        35.3300  -47.2620  -53.4050 N.pl3 166  ARG166     -0.0865
     30  CZ        34.8020  -47.4220  -54.6080 C.cat 166  ARG166      0.5346
     31  NH1       35.5900  -47.5170  -55.6600 N.pl3 166  ARG166      0.1354
     32  NH2       33.4990  -47.4740  -54.7610 N.pl3 166  ARG166      0.1354
     33  N         41.5970  -44.7040  -51.4780 N.am  167  ASP167     -0.1971
     34  CA        42.8510  -44.9400  -50.7820 C.3   167  ASP167      0.1709
     35  C         43.1070  -43.9530  -49.6290 C.2   167  ASP167      0.2293
     36  O         43.6090  -44.3410  -48.5950 O.2   167  ASP167     -0.2864
     37  CB        44.0290  -44.9330  -51.7600 C.3   167  ASP167      0.1436
     38  CG        43.8830  -45.9670  -52.8650 C.2   167  ASP167      0.3671
     39  OD1       43.5330  -47.1300  -52.5810 O.co2 167  ASP167     -0.2456
     40  OD2       44.1220  -45.6090  -54.0290 O.co2 167  ASP167     -0.2456
     41  N         48.5700  -48.1460  -54.5220 N.3   183  THR183     -0.1218
     42  CA        48.3970  -49.4670  -55.0780 C.3   183  THR183      0.1862
     43  C         49.5270  -49.6470  -56.0970 C.2   183  THR183      0.2287
     44  O         49.6120  -48.9120  -57.0730 O.2   183  THR183     -0.2866
     45  CB        47.0410  -49.6110  -55.7800 C.3   183  THR183      0.1770
     46  OG1       45.9930  -49.6520  -54.8120 O.3   183  THR183     -0.2211
     47  CG2       47.0120  -50.8770  -56.6360 C.3   183  THR183      0.0375
     48  N         50.3140  -52.5830  -58.0040 N.3   185  ASP185     -0.1225
     49  CA        50.0130  -53.3570  -59.2070 C.3   185  ASP185      0.1805
     50  C         48.8990  -52.6820  -59.9920 C.2   185  ASP185      0.2598
     51  O         47.7340  -52.8060  -59.6580 O.2   185  ASP185     -0.2718
     52  CB        49.6110  -54.7680  -58.7950 C.3   185  ASP185      0.1424
     53  CG        49.5360  -55.7340  -59.9540 C.2   185  ASP185      0.3668
     54  OD1       50.2600  -55.5590  -60.9440 O.co2 185  ASP185     -0.2456
     55  OD2       48.7620  -56.7100  -59.8440 O.co2 185  ASP185     -0.2456
     56  N         49.2720  -51.9690  -61.0460 N.am  186  VAL186     -0.1966
     57  CA        48.2950  -51.2560  -61.8560 C.3   186  VAL186      0.1727
     58  C         48.2740  -51.6460  -63.3240 C.2   186  VAL186      0.2616
     59  O         49.3080  -51.6120  -63.9940 O.2   186  VAL186     -0.2715
     60  CB        48.5590  -49.7390  -61.8190 C.3   186  VAL186      0.0290
     61  CG1       47.4550  -48.9960  -62.5410 C.3   186  VAL186      0.0023
     62  CG2       48.6980  -49.2430  -60.3960 C.3   186  VAL186      0.0023
     63  N         47.0810  -51.9810  -63.8160 N.am  187  ILE187     -0.1977
     64  CA        46.8820  -52.3310  -65.2180 C.3   187  ILE187      0.1596
     65  C         47.1260  -51.0990  -66.0830 C.2   187  ILE187      0.2287
     66  O         46.6020  -50.0200  -65.7990 O.2   187  ILE187     -0.2864
     67  CB        45.4520  -52.8660  -65.4840 C.3   187  ILE187      0.0276
     68  CG1       45.1510  -54.0870  -64.6080 C.3   187  ILE187      0.0022
     69  CG2       45.2630  -53.1980  -66.9660 C.3   187  ILE187      0.0022
     70  CD1       45.9560  -55.3260  -64.9560 C.3   187  ILE187      0.0001
     71  N         37.2570  -52.1780  -65.0500 N.3   206  LYS206     -0.1231
     72  CA        36.2390  -51.5820  -64.1790 C.3   206  LYS206      0.1693
     73  C         36.8930  -50.6830  -63.1340 C.2   206  LYS206      0.2592
     74  O         36.3790  -50.4760  -62.0440 O.2   206  LYS206     -0.2718
     75  CB        35.3490  -52.6400  -63.5360 C.3   206  LYS206      0.0285
     76  CG        34.5100  -53.3790  -64.5540 C.3   206  LYS206      0.0035
     77  CD        33.7330  -54.5280  -63.9620 C.3   206  LYS206      0.0206
     78  CE        33.2720  -55.4730  -65.0510 C.3   206  LYS206      0.1093
     79  NZ        32.3490  -56.5270  -64.6050 N.3   206  LYS206     -0.1314
     80  N         38.0520  -50.1640  -63.5040 N.am  207  LYS207     -0.1966
     81  CA        38.8150  -49.2630  -62.6660 C.3   207  LYS207      0.1728
     82  C         38.5360  -47.8230  -63.0550 C.2   207  LYS207      0.2617
     83  O         38.0230  -47.5360  -64.1240 O.2   207  LYS207     -0.2715
     84  CB        40.3230  -49.5210  -62.7810 C.3   207  LYS207      0.0311
     85  CG        40.7930  -50.7810  -62.0990 C.3   207  LYS207      0.0038
     86  CD        40.4330  -50.7700  -60.6350 C.3   207  LYS207      0.0206
     87  CE        40.6290  -52.1200  -59.9960 C.3   207  LYS207      0.1093
     88  NZ        40.2530  -52.1060  -58.5650 N.3   207  LYS207     -0.1314
     89  N         38.8770  -46.9230  -62.1530 N.am  208  GLY208     -0.1940
     90  CA        38.7220  -45.5100  -62.3750 C.3   208  GLY208      0.2014
     91  C         39.5860  -44.9640  -63.5050 C.2   208  GLY208      0.2638
     92  O         39.1990  -44.0210  -64.1930 O.2   208  GLY208     -0.2714
     93  N         40.7750  -45.5350  -63.6800 N.am  209  LYS209     -0.1977
     94  CA        41.7290  -45.0020  -64.6470 C.3   209  LYS209      0.1596
     95  C         42.4000  -46.1020  -65.4550 C.2   209  LYS209      0.2287
     96  O         42.3900  -47.2690  -65.0630 O.2   209  LYS209     -0.2864
     97  CB        42.8090  -44.1820  -63.9320 C.3   209  LYS209      0.0298
     98  CG        42.2870  -43.0190  -63.1070 C.3   209  LYS209      0.0038
     99  CD        41.7380  -41.9080  -63.9820 C.3   209  LYS209      0.0206
    100  CE        41.4230  -40.6660  -63.1620 C.3   209  LYS209      0.1093
    101  NZ        40.4240  -40.9330  -62.0940 N.3   209  LYS209     -0.1314
@<TRIPOS>BOND
     1    69    67    1
     2    65    66    2
     3    65    64    1
     4    67    64    1
     5    67    68    1
     6    95    96    2
     7    95    94    1
     8    64    63    1
     9    78    79    1
    10    78    77    1
    11    71    72    1
    12    70    68    1
    13    94    97    1
    14    94    93    1
    15    76    77    1
    16    76    75    1
    17    92    91    2
    18    72    75    1
    19    72    73    1
    20    83    82    2
    21    59    58    2
    22    99   100    1
    23    99    98    1
    24    97    98    1
    25    63    58   am
    26    93    91   am
    27    91    90    1
    28    80    73   am
    29    80    81    1
    30    58    57    1
    31   100   101    1
    32    73    74    2
    33    82    81    1
    34    82    89   am
    35    84    81    1
    36    84    85    1
    37    61    60    1
    38    90    89    1
    39    85    86    1
    40    57    60    1
    41    57    56    1
    42    60    62    1
    43    56    50   am
    44    54    53   ar
    45     8     6    1
    46    86    87    1
    47    87    88    1
    48    50    51    2
    49    50    49    1
    50    53    55   ar
    51    53    52    1
    52     6     5    1
    53     5     7    1
    54     5     2    1
    55    49    52    1
    56    49    48    1
    57     2     1    1
    58     2     3    1
    59    15    13    1
    60    44    43    2
    61     3     4    2
    62    47    45    1
    63    43    42    1
    64    13    10    1
    65    13    14    1
    66    45    42    1
    67    45    46    1
    68    31    30    1
    69    10     9    1
    70    10    11    1
    71    42    41    1
    72    32    30    1
    73    30    29    2
    74    16    11   am
    75    16    17    1
    76    21    20    1
    77    11    12    2
    78    40    38   ar
    79    20    17    1
    80    29    28    1
    81    17    18    1
    82    28    27    1
    83    38    39   ar
    84    38    37    1
    85    27    26    1
    86    22    18   am
    87    22    23    1
    88    26    23    1
    89    18    19    2
    90    37    34    1
    91    23    24    1
    92    33    24   am
    93    33    34    1
    94    24    25    2
    95    34    35    1
    96    35    36    2
