@<TRIPOS>MOLECULE
tmp/4z88C00.pdb
 119 119 0 0 0
SMALL
GASTEIGER

@<TRIPOS>ATOM
      1  N          9.4250  -22.2230  -72.1710 N.3     8  PHE8       -0.1227
      2  CA         8.3450  -23.2080  -72.0280 C.3     8  PHE8        0.1736
      3  C          6.9830  -22.5090  -71.9030 C.2     8  PHE8        0.2595
      4  O          6.9060  -21.3040  -71.6380 O.2     8  PHE8       -0.2718
      5  CB         8.5670  -24.0710  -70.7830 C.3     8  PHE8        0.0547
      6  CG         9.9680  -24.6130  -70.6540 C.ar    8  PHE8       -0.0202
      7  CD1       10.3200  -25.8170  -71.2520 C.ar    8  PHE8       -0.0042
      8  CD2       10.9350  -23.9080  -69.9570 C.ar    8  PHE8       -0.0042
      9  CE1       11.6060  -26.3090  -71.1480 C.ar    8  PHE8       -0.0003
     10  CE2       12.2290  -24.3980  -69.8440 C.ar    8  PHE8       -0.0003
     11  CZ        12.5670  -25.5970  -70.4430 C.ar    8  PHE8       -0.0000
     12  N          5.9160  -23.2750  -72.1120 N.am    9  ASP9       -0.1960
     13  CA         4.5560  -22.8170  -71.7990 C.3     9  ASP9        0.1840
     14  C          4.4050  -22.7870  -70.2820 C.2     9  ASP9        0.2622
     15  O          4.9370  -23.6610  -69.5890 O.2     9  ASP9       -0.2715
     16  CB         3.5000  -23.7700  -72.3750 C.3     9  ASP9        0.1450
     17  CG         3.5040  -23.8210  -73.8890 C.2     9  ASP9        0.3671
     18  OD1        3.8720  -22.8220  -74.5400 O.co2   9  ASP9       -0.2456
     19  OD2        3.1330  -24.8720  -74.4390 O.co2   9  ASP9       -0.2456
     20  N          3.6960  -21.7840  -69.7640 N.am   10  TYR10      -0.1974
     21  CA         3.3980  -21.7200  -68.3360 C.3    10  TYR10       0.1639
     22  C          1.9670  -21.2620  -68.0910 C.2    10  TYR10       0.2290
     23  O          1.6040  -20.1270  -68.4000 O.2    10  TYR10      -0.2864
     24  CB         4.3880  -20.7970  -67.6080 C.3    10  TYR10       0.0560
     25  CG         4.2730  -20.8580  -66.0950 C.ar   10  TYR10      -0.0198
     26  CD1        4.3330  -22.0770  -65.4200 C.ar   10  TYR10      -0.0009
     27  CD2        4.1170  -19.6970  -65.3370 C.ar   10  TYR10      -0.0009
     28  CE1        4.2240  -22.1400  -64.0360 C.ar   10  TYR10       0.0417
     29  CE2        4.0190  -19.7520  -63.9480 C.ar   10  TYR10       0.0417
     30  CZ         4.0690  -20.9780  -63.3080 C.ar   10  TYR10       0.1957
     31  OH         3.9500  -21.0480  -61.9410 O.3    10  TYR10      -0.2866
     32  N         -0.3690  -25.1960  -63.3500 N.3    15  MET15      -0.1245
     33  CA         1.0570  -25.5090  -63.1670 C.3    15  MET15       0.1570
     34  C          1.7350  -24.8380  -61.9630 C.2    15  MET15       0.2261
     35  O          2.7960  -25.2880  -61.5320 O.2    15  MET15      -0.2867
     36  CB         1.8410  -25.1510  -64.4400 C.3    15  MET15       0.0387
     37  CG         1.4040  -25.9280  -65.6770 C.3    15  MET15       0.0595
     38  SD         2.2090  -25.3750  -67.1950 S.3    15  MET15      -0.1393
     39  CE         3.9250  -25.7220  -66.8290 C.3    15  MET15       0.0692
     40  N          2.8270  -23.9730  -58.2700 N.3    17  PRO17      -0.2102
     41  CA         2.8660  -24.6060  -56.9450 C.3    17  PRO17       0.1504
     42  C          2.3560  -23.6910  -55.8250 C.2    17  PRO17       0.2575
     43  O          2.2860  -24.1100  -54.6740 O.2    17  PRO17      -0.2718
     44  CB         4.3570  -24.8830  -56.7430 C.3    17  PRO17       0.0282
     45  CG         5.0350  -23.7980  -57.4930 C.3    17  PRO17       0.0208
     46  CD         4.1570  -23.4750  -58.6710 C.3    17  PRO17       0.0893
     47  N          2.0000  -22.4590  -56.1760 N.am   18  ASN18      -0.1975
     48  CA         1.5560  -21.4640  -55.2200 C.3    18  ASN18       0.1688
     49  C          0.0440  -21.3090  -55.2490 C.2    18  ASN18       0.2292
     50  O         -0.5430  -21.3220  -56.3280 O.2    18  ASN18      -0.2864
     51  CB         2.2460  -20.1590  -55.5490 C.3    18  ASN18       0.1181
     52  CG         3.7780  -20.2840  -55.4150 C.2    18  ASN18       0.2629
     53  OD1        4.4370  -19.6020  -56.1190 O.2    18  ASN18      -0.2716
     54  ND2        4.3420  -21.1730  -54.5350 N.am   18  ASN18      -0.0877
     55  N          5.5260  -20.6850  -74.8570 N.3    30  GLU30      -0.1245
     56  CA         6.8810  -20.6850  -75.3950 C.3    30  GLU30       0.1567
     57  C          7.0190  -19.6780  -76.5420 C.2    30  GLU30       0.2260
     58  O          6.1390  -19.5680  -77.4010 O.2    30  GLU30      -0.2867
     59  CB         7.2930  -22.0920  -75.8550 C.3    30  GLU30       0.0388
     60  CG         6.5330  -22.6270  -77.0600 C.3    30  GLU30       0.1160
     61  CD         7.0510  -23.9660  -77.5500 C.2    30  GLU30       0.3649
     62  OE1        7.8250  -24.6320  -76.8300 O.co2  30  GLU30      -0.2457
     63  OE2        6.6690  -24.3600  -78.6730 O.co2  30  GLU30      -0.2457
     64  N         12.9190  -14.9710  -54.1920 N.3    43  ASP43      -0.1225
     65  CA        12.1730  -16.1850  -54.5330 C.3    43  ASP43       0.1805
     66  C         12.5050  -16.7210  -55.9300 C.2    43  ASP43       0.2598
     67  O         12.1660  -17.8600  -56.2490 O.2    43  ASP43      -0.2718
     68  CB        10.6710  -15.9260  -54.4290 C.3    43  ASP43       0.1424
     69  CG        10.2380  -15.5590  -53.0260 C.2    43  ASP43       0.3668
     70  OD1       11.1100  -15.3300  -52.1690 O.co2  43  ASP43      -0.2456
     71  OD2        9.0180  -15.5010  -52.7760 O.co2  43  ASP43      -0.2456
     72  N         13.1730  -15.9090  -56.7470 N.am   44  GLY44      -0.1942
     73  CA        13.5790  -16.3040  -58.0980 C.3    44  GLY44       0.2014
     74  C         12.5950  -15.8620  -59.1690 C.2    44  GLY44       0.2638
     75  O         12.5800  -16.4260  -60.2600 O.2    44  GLY44      -0.2714
     76  N         11.7830  -14.8510  -58.8540 N.am   45  PHE45      -0.1973
     77  CA        10.7520  -14.3570  -59.7580 C.3    45  PHE45       0.1639
     78  C         11.0410  -12.9450  -60.2540 C.2    45  PHE45       0.2290
     79  O         11.4210  -12.0670  -59.4700 O.2    45  PHE45      -0.2864
     80  CB         9.3880  -14.3770  -59.0620 C.3    45  PHE45       0.0560
     81  CG         8.7800  -15.7480  -58.9640 C.ar   45  PHE45      -0.0200
     82  CD1        9.1930  -16.6350  -57.9830 C.ar   45  PHE45      -0.0042
     83  CD2        7.7940  -16.1500  -59.8550 C.ar   45  PHE45      -0.0042
     84  CE1        8.6370  -17.9000  -57.8880 C.ar   45  PHE45      -0.0003
     85  CE2        7.2390  -17.4130  -59.7710 C.ar   45  PHE45      -0.0003
     86  CZ         7.6620  -18.2900  -58.7880 C.ar   45  PHE45      -0.0000
     87  N          8.5830  -16.7010  -63.2750 N.3    58  PRO58      -0.2102
     88  CA         9.6780  -17.5210  -62.7750 C.3    58  PRO58       0.1504
     89  C         10.9050  -17.5030  -63.6980 C.2    58  PRO58       0.2576
     90  O         10.7790  -17.6900  -64.9090 O.2    58  PRO58      -0.2718
     91  CB         9.0640  -18.9190  -62.6950 C.3    58  PRO58       0.0282
     92  CG         7.9860  -18.9210  -63.7180 C.3    58  PRO58       0.0208
     93  CD         7.5060  -17.5090  -63.8760 C.3    58  PRO58       0.0893
     94  N         12.0810  -17.2720  -63.1140 N.am   59  HIS59      -0.1962
     95  CA        13.3170  -17.1040  -63.8880 C.3    59  HIS59       0.1787
     96  C         13.7040  -18.3690  -64.6530 C.2    59  HIS59       0.2620
     97  O         14.2420  -18.2900  -65.7550 O.2    59  HIS59      -0.2715
     98  CB        14.4710  -16.6820  -62.9730 C.3    59  HIS59       0.0785
     99  CG        15.1220  -17.8260  -62.2600 C.ar   59  HIS59       0.0821
    100  ND1       14.6870  -18.2940  -61.0390 N.ar   59  HIS59      -0.2267
    101  CD2       16.1680  -18.6110  -62.6110 C.ar   59  HIS59       0.1154
    102  CE1       15.4340  -19.3180  -60.6690 C.ar   59  HIS59       0.1986
    103  NE2       16.3420  -19.5280  -61.6040 N.ar   59  HIS59      -0.2212
    104  N         13.4140  -19.5300  -64.0690 N.am   60  ASN60      -0.1958
    105  CA        13.7600  -20.8160  -64.6870 C.3    60  ASN60       0.1819
    106  C         12.9460  -21.1800  -65.9350 C.2    60  ASN60       0.2621
    107  O         13.2520  -22.1640  -66.5990 O.2    60  ASN60      -0.2715
    108  CB        13.6770  -21.9520  -63.6570 C.3    60  ASN60       0.1195
    109  CG        12.2600  -22.1990  -63.1460 C.2    60  ASN60       0.2630
    110  OD1       11.3710  -21.3600  -63.2960 O.2    60  ASN60      -0.2716
    111  ND2       12.0530  -23.3510  -62.5200 N.am   60  ASN60      -0.0877
    112  N         11.9080  -20.4040  -66.2430 N.am   61  MET61      -0.1977
    113  CA        11.0810  -20.6440  -67.4230 C.3    61  MET61       0.1605
    114  C         11.4300  -19.7060  -68.5800 C.2    61  MET61       0.2287
    115  O         10.8760  -19.8510  -69.6730 O.2    61  MET61      -0.2864
    116  CB         9.6000  -20.4660  -67.0690 C.3    61  MET61       0.0413
    117  CG         9.0820  -21.3940  -65.9780 C.3    61  MET61       0.0598
    118  SD         8.9190  -23.1000  -66.5140 S.3    61  MET61      -0.1393
    119  CE         7.1430  -23.2980  -66.6540 C.3    61  MET61       0.0692
@<TRIPOS>BOND
     1    63    61   ar
     2    61    60    1
     3    61    62   ar
     4    58    57    2
     5    60    59    1
     6    57    56    1
     7    59    56    1
     8    56    55    1
     9    18    17   ar
    10    19    17   ar
    11    17    16    1
    12    16    13    1
    13     1     2    1
    14    12     3   am
    15    12    13    1
    16     2     3    1
    17     2     5    1
    18     3     4    2
    19    13    14    1
    20     7     9   ar
    21     7     6   ar
    22     9    11   ar
    23     5     6    1
    24     6     8   ar
    25    11    10   ar
    26    14    20   am
    27    14    15    2
    28     8    10   ar
    29    20    21    1
    30   115   114    2
    31   114   113    1
    32    23    22    2
    33    21    22    1
    34    21    24    1
    35    24    25    1
    36   113   116    1
    37   113   112    1
    38    38    39    1
    39    38    37    1
    40   116   117    1
    41   119   118    1
    42   107   106    2
    43   118   117    1
    44   112   106   am
    45    25    26   ar
    46    25    27   ar
    47   106   105    1
    48    97    96    2
    49    37    36    1
    50    26    28   ar
    51    27    29   ar
    52    90    89    2
    53   105   104    1
    54   105   108    1
    55    96   104   am
    56    96    95    1
    57    36    33    1
    58    28    30   ar
    59    29    30   ar
    60    95    94    1
    61    95    98    1
    62    93    92    1
    63    93    87    1
    64    92    91    1
    65    89    94   am
    66    89    88    1
    67   108   109    1
    68    32    33    1
    69    30    31    1
    70   110   109    2
    71    87    88    1
    72    33    34    1
    73   109   111   am
    74    98    99    1
    75    88    91    1
    76   101    99   ar
    77   101   103   ar
    78    99   100   ar
    79    34    35    2
    80   103   102   ar
    81   100   102   ar
    82    75    74    2
    83    78    77    1
    84    78    79    2
    85    83    85   ar
    86    83    81   ar
    87    85    86   ar
    88    77    80    1
    89    77    76    1
    90    74    76   am
    91    74    73    1
    92    80    81    1
    93    81    82   ar
    94    86    84   ar
    95    46    40    1
    96    46    45    1
    97    40    41    1
    98    73    72    1
    99    82    84   ar
   100    45    44    1
   101    41    44    1
   102    41    42    1
   103    72    66   am
   104    50    49    2
   105    67    66    2
   106    47    42   am
   107    47    48    1
   108    53    52    2
   109    66    65    1
   110    42    43    2
   111    51    52    1
   112    51    48    1
   113    52    54   am
   114    49    48    1
   115    65    68    1
   116    65    64    1
   117    68    69    1
   118    69    71   ar
   119    69    70   ar
