@<TRIPOS>MOLECULE
tmp/4z88H00.pdb
 141 138 0 0 0
SMALL
GASTEIGER

@<TRIPOS>ATOM
      1  N         14.1250   -5.6820  -17.5240 N.3    14  TYR14      -0.1241
      2  CA        14.9900   -5.8470  -16.3580 C.3    14  TYR14       0.1605
      3  C         14.9600   -4.6060  -15.4740 C.2    14  TYR14       0.2264
      4  O         15.4110   -3.5350  -15.8740 O.2    14  TYR14      -0.2867
      5  CB        16.4300   -6.1690  -16.7770 C.3    14  TYR14       0.0534
      6  CG        17.3260   -6.5710  -15.6220 C.ar   14  TYR14      -0.0201
      7  CD1       16.9530   -7.5890  -14.7430 C.ar   14  TYR14      -0.0009
      8  CD2       18.5520   -5.9370  -15.4060 C.ar   14  TYR14      -0.0009
      9  CE1       17.7660   -7.9620  -13.6850 C.ar   14  TYR14       0.0417
     10  CE2       19.3720   -6.3080  -14.3500 C.ar   14  TYR14       0.0417
     11  CZ        18.9740   -7.3190  -13.4940 C.ar   14  TYR14       0.1957
     12  OH        19.7810   -7.6930  -12.4390 O.3    14  TYR14      -0.2866
     13  N         14.5570   -6.8690   -9.2970 N.3    19  MET19      -0.1245
     14  CA        14.9560   -8.1360   -9.9290 C.3    19  MET19       0.1570
     15  C         16.4230   -8.5410   -9.7280 C.2    19  MET19       0.2261
     16  O         16.7650   -9.7090   -9.9220 O.2    19  MET19      -0.2867
     17  CB        14.6480   -8.0940  -11.4330 C.3    19  MET19       0.0387
     18  CG        13.1660   -7.9170  -11.7590 C.3    19  MET19       0.0595
     19  SD        12.8340   -7.6850  -13.5150 S.3    19  MET19      -0.1393
     20  CE        13.4290   -9.2310  -14.1930 C.3    19  MET19       0.0692
     21  N         19.7720   -9.8460   -8.1120 N.3    21  PRO21      -0.2102
     22  CA        20.2150  -10.6540   -6.9760 C.3    21  PRO21       0.1504
     23  C         21.3860  -10.0330   -6.2080 C.2    21  PRO21       0.2575
     24  O         21.8220  -10.5870   -5.2020 O.2    21  PRO21      -0.2718
     25  CB        20.6620  -11.9560   -7.6400 C.3    21  PRO21       0.0282
     26  CG        21.1480  -11.5320   -8.9830 C.3    21  PRO21       0.0208
     27  CD        20.3130  -10.3530   -9.3880 C.3    21  PRO21       0.0893
     28  N         21.8810   -8.8950   -6.6870 N.am   22  ASN22      -0.1975
     29  CA        23.0290   -8.2160   -6.1070 C.3    22  ASN22       0.1688
     30  C         22.5800   -7.0380   -5.2480 C.2    22  ASN22       0.2292
     31  O         21.6640   -6.3110   -5.6390 O.2    22  ASN22      -0.2864
     32  CB        23.9260   -7.7270   -7.2420 C.3    22  ASN22       0.1181
     33  CG        24.3670   -8.8560   -8.1570 C.2    22  ASN22       0.2629
     34  OD1       25.0660   -9.7830   -7.7360 O.2    22  ASN22      -0.2716
     35  ND2       23.9430   -8.7950   -9.4130 N.am   22  ASN22      -0.0877
     36  N         24.0300   -4.2000   -4.5930 N.3    24  ASP24      -0.1225
     37  CA        24.3150   -2.9170   -5.2430 C.3    24  ASP24       0.1805
     38  C         23.7100   -2.8390   -6.6530 C.2    24  ASP24       0.2598
     39  O         24.1110   -1.9940   -7.4570 O.2    24  ASP24      -0.2718
     40  CB        25.8330   -2.6980   -5.3190 C.3    24  ASP24       0.1424
     41  CG        26.5270   -3.7000   -6.2330 C.2    24  ASP24       0.3668
     42  OD1       26.0060   -4.8270   -6.4010 O.co2  24  ASP24      -0.2456
     43  OD2       27.5970   -3.3630   -6.7790 O.co2  24  ASP24      -0.2456
     44  N         22.7430   -3.7100   -6.9420 N.am   25  GLY25      -0.1957
     45  CA        22.1960   -3.8600   -8.2900 C.3    25  GLY25       0.1869
     46  C         21.5850   -2.5940   -8.8610 C.2    25  GLY25       0.2309
     47  O         21.8600   -2.2290  -10.0050 O.2    25  GLY25      -0.2863
     48  N         24.3620    0.0050   -9.7840 N.3    28  GLU28      -0.1231
     49  CA        25.4140   -0.4000  -10.7280 C.3    28  GLU28       0.1699
     50  C         24.9270   -1.0340  -12.0300 C.2    28  GLU28       0.2592
     51  O         25.6640   -1.0490  -13.0200 O.2    28  GLU28      -0.2718
     52  CB        26.3870   -1.3550  -10.0360 C.3    28  GLU28       0.0402
     53  CG        27.0990   -0.7530   -8.8300 C.3    28  GLU28       0.1161
     54  CD        28.0620    0.3650   -9.1900 C.2    28  GLU28       0.3649
     55  OE1       28.7400    0.2710  -10.2380 O.co2  28  GLU28      -0.2457
     56  OE2       28.1520    1.3360   -8.4070 O.co2  28  GLU28      -0.2457
     57  N         23.7040   -1.5570  -12.0380 N.am   29  GLU29      -0.1979
     58  CA        23.1870   -2.2720  -13.2030 C.3    29  GLU29       0.1602
     59  C         22.1490   -1.4360  -13.9380 C.2    29  GLU29       0.2287
     60  O         21.3440   -0.7400  -13.3150 O.2    29  GLU29      -0.2864
     61  CB        22.5710   -3.6050  -12.7830 C.3    29  GLU29       0.0415
     62  CG        23.5050   -4.4910  -11.9770 C.3    29  GLU29       0.1163
     63  CD        22.8030   -5.6850  -11.3580 C.2    29  GLU29       0.3649
     64  OE1       21.6520   -5.9780  -11.7350 O.co2  29  GLU29      -0.2457
     65  OE2       23.4120   -6.3330  -10.4820 O.co2  29  GLU29      -0.2457
     66  N         32.4580   -9.6860  -18.9810 N.3    45  ASP45      -0.1239
     67  CA        33.4270   -9.9930  -17.9240 C.3    45  ASP45       0.1674
     68  C         33.2290  -11.4180  -17.4090 C.2    45  ASP45       0.2266
     69  O         32.3220  -12.1220  -17.8550 O.2    45  ASP45      -0.2867
     70  CB        33.3510   -8.9560  -16.7820 C.3    45  ASP45       0.1410
     71  CG        32.0000   -8.9390  -16.0690 C.2    45  ASP45       0.3668
     72  OD1       31.2400   -9.9230  -16.1660 O.co2  45  ASP45      -0.2456
     73  OD2       31.6990   -7.9320  -15.3950 O.co2  45  ASP45      -0.2456
     74  N         32.0240  -12.4520  -14.6910 N.3    47  ASP47      -0.1225
     75  CA        30.7240  -12.6050  -14.0370 C.3    47  ASP47       0.1805
     76  C         29.5730  -12.7830  -15.0280 C.2    47  ASP47       0.2598
     77  O         28.4740  -13.1680  -14.6310 O.2    47  ASP47      -0.2718
     78  CB        30.4440  -11.4000  -13.1320 C.3    47  ASP47       0.1424
     79  CG        31.4490  -11.2700  -12.0050 C.2    47  ASP47       0.3668
     80  OD1       32.4670  -11.9920  -12.0180 O.co2  47  ASP47      -0.2456
     81  OD2       31.2250  -10.4400  -11.1020 O.co2  47  ASP47      -0.2456
     82  N         29.8270  -12.5020  -16.3050 N.am   48  GLY48      -0.1942
     83  CA        28.8240  -12.6380  -17.3560 C.3    48  GLY48       0.2014
     84  C         28.0910  -11.3400  -17.6610 C.2    48  GLY48       0.2638
     85  O         26.9940  -11.3620  -18.2150 O.2    48  GLY48      -0.2714
     86  N         28.7020  -10.2090  -17.3080 N.am   49  PHE49      -0.1973
     87  CA        28.0920   -8.8920  -17.4870 C.3    49  PHE49       0.1639
     88  C         28.8300   -8.0490  -18.5210 C.2    49  PHE49       0.2290
     89  O         30.0660   -7.9830  -18.5190 O.2    49  PHE49      -0.2864
     90  CB        28.0580   -8.1390  -16.1530 C.3    49  PHE49       0.0560
     91  CG        26.9820   -8.6140  -15.2200 C.ar   49  PHE49      -0.0200
     92  CD1       27.1560   -9.7670  -14.4670 C.ar   49  PHE49      -0.0042
     93  CD2       25.7950   -7.9070  -15.0900 C.ar   49  PHE49      -0.0042
     94  CE1       26.1640  -10.2100  -13.6050 C.ar   49  PHE49      -0.0003
     95  CE2       24.8030   -8.3400  -14.2310 C.ar   49  PHE49      -0.0003
     96  CZ        24.9890   -9.4930  -13.4850 C.ar   49  PHE49      -0.0000
     97  N         26.2490   -2.0630  -15.6400 N.3    60  TYR60      -0.1241
     98  CA        26.4140   -3.4720  -15.9750 C.3    60  TYR60       0.1605
     99  C         25.1320   -4.0360  -16.5640 C.2    60  TYR60       0.2264
    100  O         24.0320   -3.6730  -16.1410 O.2    60  TYR60      -0.2867
    101  CB        26.8500   -4.2790  -14.7500 C.3    60  TYR60       0.0534
    102  CG        28.2660   -3.9660  -14.3080 C.ar   60  TYR60      -0.0201
    103  CD1       29.3600   -4.4260  -15.0380 C.ar   60  TYR60      -0.0009
    104  CD2       28.5110   -3.2170  -13.1610 C.ar   60  TYR60      -0.0009
    105  CE1       30.6580   -4.1460  -14.6400 C.ar   60  TYR60       0.0417
    106  CE2       29.8060   -2.9350  -12.7520 C.ar   60  TYR60       0.0417
    107  CZ        30.8740   -3.3970  -13.4970 C.ar   60  TYR60       0.1957
    108  OH        32.1550   -3.1210  -13.0910 O.3    60  TYR60      -0.2866
    109  N         23.4440   -7.8080  -17.8350 N.3    62  PRO62      -0.2102
    110  CA        23.6140   -9.2620  -17.8190 C.3    62  PRO62       0.1504
    111  C         23.4540   -9.8510  -19.2140 C.2    62  PRO62       0.2576
    112  O         22.5000   -9.5210  -19.9190 O.2    62  PRO62      -0.2718
    113  CB        22.5150   -9.7370  -16.8740 C.3    62  PRO62       0.0282
    114  CG        21.4760   -8.6730  -16.9240 C.3    62  PRO62       0.0208
    115  CD        22.1620   -7.3840  -17.2530 C.3    62  PRO62       0.0893
    116  N         24.3920  -10.7070  -19.6080 N.am   63  HIS63      -0.1962
    117  CA        24.4350  -11.2400  -20.9690 C.3    63  HIS63       0.1787
    118  C         23.2110  -12.1020  -21.2870 C.2    63  HIS63       0.2620
    119  O         22.7390  -12.1190  -22.4220 O.2    63  HIS63      -0.2715
    120  CB        25.7110  -12.0600  -21.1850 C.3    63  HIS63       0.0785
    121  CG        25.6160  -13.4590  -20.6660 C.ar   63  HIS63       0.0821
    122  ND1       25.9330  -13.8030  -19.3680 N.ar   63  HIS63      -0.2267
    123  CD2       25.2020  -14.5980  -21.2660 C.ar   63  HIS63       0.1154
    124  CE1       25.7400  -15.0970  -19.1980 C.ar   63  HIS63       0.1986
    125  NE2       25.2860  -15.5990  -20.3310 N.ar   63  HIS63      -0.2212
    126  N         22.6980  -12.8080  -20.2810 N.am   64  ASN64      -0.1958
    127  CA        21.5470  -13.6970  -20.4670 C.3    64  ASN64       0.1819
    128  C         20.2090  -12.9840  -20.7180 C.2    64  ASN64       0.2621
    129  O         19.2130  -13.6420  -21.0180 O.2    64  ASN64      -0.2715
    130  CB        21.4110  -14.6690  -19.2830 C.3    64  ASN64       0.1195
    131  CG        21.1000  -13.9710  -17.9630 C.2    64  ASN64       0.2630
    132  OD1       21.2540  -12.7600  -17.8290 O.2    64  ASN64      -0.2716
    133  ND2       20.6490  -14.7420  -16.9820 N.am   64  ASN64      -0.0877
    134  N         20.1810  -11.6590  -20.5760 N.am   65  MET65      -0.1977
    135  CA        18.9690  -10.8740  -20.8050 C.3    65  MET65       0.1605
    136  C         18.9830  -10.1700  -22.1620 C.2    65  MET65       0.2287
    137  O         17.9790   -9.5740  -22.5530 O.2    65  MET65      -0.2864
    138  CB        18.8070   -9.8150  -19.7120 C.3    65  MET65       0.0413
    139  CG        18.7030  -10.3650  -18.2960 C.3    65  MET65       0.0598
    140  SD        17.1450  -11.1810  -17.9610 S.3    65  MET65      -0.1393
    141  CE        16.3040  -10.0050  -16.9070 C.3    65  MET65       0.0692
@<TRIPOS>BOND
     1   137   136    2
     2   119   118    2
     3   136   135    1
     4   118   117    1
     5   118   126   am
     6   123   121   ar
     7   123   125   ar
     8   120   117    1
     9   120   121    1
    10   129   128    2
    11   117   116    1
    12   135   134    1
    13   135   138    1
    14   128   134   am
    15   128   127    1
    16   121   122   ar
    17   127   126    1
    18   127   130    1
    19   125   124   ar
    20   112   111    2
    21   138   139    1
    22   116   111   am
    23   122   124   ar
    24   130   131    1
    25   111   110    1
    26    66    67    1
    27    88    89    2
    28    88    87    1
    29   139   140    1
    30    85    84    2
    31   131   132    2
    32   131   133   am
    33   140   141    1
    34    67    68    1
    35    67    70    1
    36    69    68    2
    37   109   110    1
    38   109   115    1
    39   110   113    1
    40    84    83    1
    41    84    86   am
    42     1     2    1
    43    87    86    1
    44    87    90    1
    45    83    82    1
    46   115   114    1
    47   114   113    1
    48    70    71    1
    49     5     2    1
    50     5     6    1
    51    99   100    2
    52    99    98    1
    53     2     3    1
    54    82    76   am
    55    72    71   ar
    56    90    91    1
    57    71    73   ar
    58    98    97    1
    59    98   101    1
    60     4     3    2
    61     6     8   ar
    62     6     7   ar
    63     8    10   ar
    64    91    93   ar
    65    91    92   ar
    66    93    95   ar
    67   103   105   ar
    68   103   102   ar
    69    76    77    2
    70    76    75    1
    71   101   102    1
    72     7     9   ar
    73    74    75    1
    74   105   107   ar
    75    92    94   ar
    76    10    11   ar
    77   102   104   ar
    78    95    96   ar
    79    20    19    1
    80    75    78    1
    81    59    60    2
    82    59    58    1
    83     9    11   ar
    84    94    96   ar
    85    19    18    1
    86   107   108    1
    87   107   106   ar
    88    11    12    1
    89    58    61    1
    90    58    57    1
    91   104   106   ar
    92    78    79    1
    93    51    50    2
    94    61    62    1
    95    57    50   am
    96    50    49    1
    97    80    79   ar
    98    79    81   ar
    99    62    63    1
   100    18    17    1
   101    64    63   ar
   102    17    14    1
   103    63    65   ar
   104    49    52    1
   105    49    48    1
   106    55    54   ar
   107    52    53    1
   108    47    46    2
   109    14    15    1
   110    14    13    1
   111    16    15    2
   112    35    33   am
   113    27    26    1
   114    27    21    1
   115    54    53    1
   116    54    56   ar
   117    26    25    1
   118    46    45    1
   119    45    44    1
   120    33    34    2
   121    33    32    1
   122    21    22    1
   123    25    22    1
   124    39    38    2
   125    32    29    1
   126    22    23    1
   127    44    38   am
   128    43    41   ar
   129    28    23   am
   130    28    29    1
   131    38    37    1
   132    42    41   ar
   133    41    40    1
   134    23    24    2
   135    29    30    1
   136    31    30    2
   137    40    37    1
   138    37    36    1
