@<TRIPOS>MOLECULE
tmp/4z88D00.pdb
 155 154 0 0 0
SMALL
GASTEIGER

@<TRIPOS>ATOM
      1  N        -14.3010   -7.4210  -76.1090 N.3    12  PHE12      -0.1241
      2  CA       -13.6820   -6.6560  -75.0260 C.3    12  PHE12       0.1605
      3  C        -12.4970   -7.4210  -74.4290 C.2    12  PHE12       0.2264
      4  O        -12.3580   -8.6270  -74.6310 O.2    12  PHE12      -0.2867
      5  CB       -14.7000   -6.3790  -73.9150 C.3    12  PHE12       0.0534
      6  CG       -16.0190   -5.8560  -74.4080 C.ar   12  PHE12      -0.0203
      7  CD1      -16.2230   -4.4930  -74.5810 C.ar   12  PHE12      -0.0042
      8  CD2      -17.0650   -6.7280  -74.6910 C.ar   12  PHE12      -0.0042
      9  CE1      -17.4400   -4.0090  -75.0330 C.ar   12  PHE12      -0.0003
     10  CE2      -18.2890   -6.2490  -75.1370 C.ar   12  PHE12      -0.0003
     11  CZ       -18.4750   -4.8890  -75.3140 C.ar   12  PHE12      -0.0000
     12  N        -10.8310   -9.1640  -71.2650 N.3    14  TYR14      -0.1241
     13  CA       -11.3360   -9.8310  -70.0710 C.3    14  TYR14       0.1605
     14  C        -10.1890  -10.4240  -69.2500 C.2    14  TYR14       0.2264
     15  O         -9.5190  -11.3550  -69.6880 O.2    14  TYR14      -0.2867
     16  CB       -12.3540  -10.9160  -70.4380 C.3    14  TYR14       0.0534
     17  CG       -13.0930  -11.4970  -69.2430 C.ar   14  TYR14      -0.0201
     18  CD1      -13.7410  -10.6690  -68.3300 C.ar   14  TYR14      -0.0009
     19  CD2      -13.1450  -12.8730  -69.0290 C.ar   14  TYR14      -0.0009
     20  CE1      -14.4100  -11.1890  -67.2340 C.ar   14  TYR14       0.0417
     21  CE2      -13.8170  -13.4050  -67.9380 C.ar   14  TYR14       0.0417
     22  CZ       -14.4450  -12.5570  -67.0420 C.ar   14  TYR14       0.1957
     23  OH       -15.1150  -13.0720  -65.9530 O.3    14  TYR14      -0.2866
     24  N        -11.6190   -8.9750  -62.9850 N.3    19  MET19      -0.1245
     25  CA       -12.9450   -8.6840  -63.5450 C.3    19  MET19       0.1570
     26  C        -14.0210   -9.7540  -63.3000 C.2    19  MET19       0.2261
     27  O        -15.2100   -9.4600  -63.4170 O.2    19  MET19      -0.2867
     28  CB       -12.8330   -8.4290  -65.0520 C.3    19  MET19       0.0387
     29  CG       -11.9580   -7.2390  -65.4180 C.3    19  MET19       0.0595
     30  SD       -11.6860   -7.0580  -67.1910 S.3    19  MET19      -0.1393
     31  CE       -13.3580   -6.7940  -67.7730 C.3    19  MET19       0.0692
     32  N        -16.7390  -12.0050  -61.5360 N.3    21  PRO21      -0.2102
     33  CA       -17.6030  -11.9810  -60.3510 C.3    21  PRO21       0.1504
     34  C        -17.6190  -13.3090  -59.5870 C.2    21  PRO21       0.2576
     35  O        -18.2600  -13.4090  -58.5420 O.2    21  PRO21      -0.2718
     36  CB       -18.9830  -11.7120  -60.9420 C.3    21  PRO21       0.0282
     37  CG       -18.9330  -12.3430  -62.2860 C.3    21  PRO21       0.0208
     38  CD       -17.5180  -12.2100  -62.7710 C.3    21  PRO21       0.0893
     39  N        -16.9040  -14.3030  -60.1040 N.am   22  ASN22      -0.1961
     40  CA       -16.8630  -15.6390  -59.5290 C.3    22  ASN22       0.1804
     41  C        -15.5720  -15.8410  -58.7370 C.2    22  ASN22       0.2463
     42  O        -14.5060  -15.4150  -59.1840 O.2    22  ASN22      -0.2730
     43  CB       -16.9510  -16.6570  -60.6610 C.3    22  ASN22       0.1195
     44  CG       -18.1880  -16.4630  -61.5100 C.2    22  ASN22       0.2630
     45  OD1      -19.3200  -16.6120  -61.0320 O.2    22  ASN22      -0.2716
     46  ND2      -17.9870  -16.1190  -62.7740 N.am   22  ASN22      -0.0877
     47  N        -15.6590  -16.4940  -57.5600 N.am   23  PRO23      -0.2716
     48  CA       -14.4880  -16.7040  -56.6950 C.3    23  PRO23       0.1536
     49  C        -13.4090  -17.6120  -57.3020 C.2    23  PRO23       0.2598
     50  O        -12.2310  -17.4810  -56.9590 O.2    23  PRO23      -0.2715
     51  CB       -15.0880  -17.3450  -55.4360 C.3    23  PRO23       0.0310
     52  CG       -16.3580  -17.9730  -55.8900 C.3    23  PRO23       0.0237
     53  CD       -16.8800  -17.0950  -56.9900 C.3    23  PRO23       0.0939
     54  N        -13.8120  -18.5240  -58.1800 N.am   24  ASP24      -0.1972
     55  CA       -12.8810  -19.4140  -58.8820 C.3    24  ASP24       0.1709
     56  C        -12.5910  -18.9260  -60.3100 C.2    24  ASP24       0.2293
     57  O        -12.0990  -19.6920  -61.1450 O.2    24  ASP24      -0.2864
     58  CB       -13.4580  -20.8340  -58.9320 C.3    24  ASP24       0.1436
     59  CG       -14.7230  -20.9270  -59.7840 C.2    24  ASP24       0.3671
     60  OD1      -15.4410  -19.9120  -59.9110 O.co2  24  ASP24      -0.2456
     61  OD2      -14.9960  -22.0160  -60.3250 O.co2  24  ASP24      -0.2456
     62  N        -10.6230  -20.9080  -63.5490 N.3    28  GLU28      -0.1231
     63  CA       -11.5470  -21.6130  -64.4520 C.3    28  GLU28       0.1699
     64  C        -11.9140  -20.8670  -65.7410 C.2    28  GLU28       0.2592
     65  O        -12.3380  -21.4910  -66.7120 O.2    28  GLU28      -0.2718
     66  CB       -12.8230  -21.9750  -63.6960 C.3    28  GLU28       0.0402
     67  CG       -12.6020  -22.8920  -62.5020 C.3    28  GLU28       0.1161
     68  CD       -12.1400  -24.2850  -62.8870 C.2    28  GLU28       0.3649
     69  OE1      -12.6000  -24.8240  -63.9120 O.co2  28  GLU28      -0.2457
     70  OE2      -11.3000  -24.8520  -62.1470 O.co2  28  GLU28      -0.2457
     71  N        -11.7480  -19.5490  -65.7590 N.am   29  GLU29      -0.1979
     72  CA       -12.1680  -18.7350  -66.9000 C.3    29  GLU29       0.1602
     73  C        -10.9670  -18.2450  -67.7000 C.2    29  GLU29       0.2287
     74  O         -9.9310  -17.9000  -67.1270 O.2    29  GLU29      -0.2864
     75  CB       -12.9930  -17.5370  -66.4270 C.3    29  GLU29       0.0415
     76  CG       -14.1810  -17.9050  -65.5530 C.3    29  GLU29       0.1163
     77  CD       -14.8350  -16.7000  -64.8960 C.2    29  GLU29       0.3649
     78  OE1      -14.5300  -15.5530  -65.2890 O.co2  29  GLU29      -0.2457
     79  OE2      -15.6530  -16.9040  -63.9760 O.co2  29  GLU29      -0.2457
     80  N        -23.5190  -23.0300  -72.0640 N.3    45  ASP45      -0.1239
     81  CA       -24.2120  -23.7190  -70.9680 C.3    45  ASP45       0.1674
     82  C        -25.3120  -22.8360  -70.3850 C.2    45  ASP45       0.2266
     83  O        -25.4990  -21.6980  -70.8230 O.2    45  ASP45      -0.2867
     84  CB       -23.2160  -24.1760  -69.8800 C.3    45  ASP45       0.1410
     85  CG       -22.4970  -23.0190  -69.1970 C.2    45  ASP45       0.3668
     86  OD1      -22.9670  -21.8670  -69.2690 O.co2  45  ASP45      -0.2456
     87  OD2      -21.4330  -23.2620  -68.5850 O.co2  45  ASP45      -0.2456
     88  N        -25.4660  -21.2910  -67.6440 N.3    47  ASP47      -0.1225
     89  CA       -24.9130  -20.0890  -67.0190 C.3    47  ASP47       0.1805
     90  C        -24.5450  -19.0030  -68.0270 C.2    47  ASP47       0.2598
     91  O        -24.3110  -17.8590  -67.6440 O.2    47  ASP47      -0.2718
     92  CB       -23.6870  -20.4510  -66.1820 C.3    47  ASP47       0.1424
     93  CG       -24.0200  -21.3880  -65.0370 C.2    47  ASP47       0.3668
     94  OD1      -25.1500  -21.9120  -64.9970 O.co2  47  ASP47      -0.2456
     95  OD2      -23.1480  -21.6100  -64.1790 O.co2  47  ASP47      -0.2456
     96  N        -24.5000  -19.3580  -69.3110 N.am   48  GLY48      -0.1942
     97  CA       -24.1800  -18.4140  -70.3770 C.3    48  GLY48       0.2014
     98  C        -22.7030  -18.4200  -70.7570 C.2    48  GLY48       0.2638
     99  O        -22.2090  -17.4580  -71.3450 O.2    48  GLY48      -0.2714
    100  N        -22.0110  -19.5180  -70.4440 N.am   49  PHE49      -0.1973
    101  CA       -20.5730  -19.6510  -70.7060 C.3    49  PHE49       0.1639
    102  C        -20.2690  -20.7060  -71.7650 C.2    49  PHE49       0.2290
    103  O        -20.8320  -21.8090  -71.7450 O.2    49  PHE49      -0.2864
    104  CB       -19.8310  -20.0040  -69.4160 C.3    49  PHE49       0.0560
    105  CG       -19.6520  -18.8420  -68.4880 C.ar   49  PHE49      -0.0200
    106  CD1      -20.6930  -18.4220  -67.6740 C.ar   49  PHE49      -0.0042
    107  CD2      -18.4460  -18.1600  -68.4330 C.ar   49  PHE49      -0.0042
    108  CE1      -20.5340  -17.3470  -66.8210 C.ar   49  PHE49      -0.0003
    109  CE2      -18.2810  -17.0880  -67.5770 C.ar   49  PHE49      -0.0003
    110  CZ       -19.3250  -16.6750  -66.7780 C.ar   49  PHE49      -0.0000
    111  N        -13.6680  -21.4880  -69.2690 N.3    60  TYR60      -0.1241
    112  CA       -14.9820  -20.9160  -69.5260 C.3    60  TYR60       0.1605
    113  C        -14.8590  -19.5160  -70.1080 C.2    60  TYR60       0.2264
    114  O        -13.9620  -18.7500  -69.7380 O.2    60  TYR60      -0.2867
    115  CB       -15.8320  -20.8990  -68.2540 C.3    60  TYR60       0.0534
    116  CG       -16.2430  -22.2780  -67.7950 C.ar   60  TYR60      -0.0201
    117  CD1      -17.2200  -22.9950  -68.4780 C.ar   60  TYR60      -0.0009
    118  CD2      -15.6540  -22.8700  -66.6800 C.ar   60  TYR60      -0.0009
    119  CE1      -17.6060  -24.2570  -68.0640 C.ar   60  TYR60       0.0417
    120  CE2      -16.0270  -24.1350  -66.2620 C.ar   60  TYR60       0.0417
    121  CZ       -17.0050  -24.8230  -66.9570 C.ar   60  TYR60       0.1957
    122  OH       -17.3810  -26.0810  -66.5400 O.3    60  TYR60      -0.2866
    123  N        -17.3450  -16.1770  -71.2110 N.3    62  PRO62      -0.2102
    124  CA       -18.6820  -15.5870  -71.1340 C.3    62  PRO62       0.1504
    125  C        -19.1910  -15.1430  -72.5050 C.2    62  PRO62       0.2576
    126  O        -18.4650  -14.4810  -73.2510 O.2    62  PRO62      -0.2718
    127  CB       -18.4860  -14.3970  -70.1990 C.3    62  PRO62       0.0282
    128  CG       -17.0530  -14.0310  -70.3340 C.3    62  PRO62       0.0208
    129  CD       -16.2980  -15.2700  -70.7060 C.3    62  PRO62       0.0893
    130  N        -20.4230  -15.5260  -72.8320 N.am   63  HIS63      -0.1962
    131  CA       -20.9830  -15.2900  -74.1660 C.3    63  HIS63       0.1787
    132  C        -21.1350  -13.8010  -74.4660 C.2    63  HIS63       0.2620
    133  O        -20.9690  -13.3760  -75.6070 O.2    63  HIS63      -0.2715
    134  CB       -22.3410  -15.9830  -74.3060 C.3    63  HIS63       0.0785
    135  CG       -23.4760  -15.1960  -73.7270 C.ar   63  HIS63       0.0821
    136  ND1      -23.8640  -15.3010  -72.4080 N.ar   63  HIS63      -0.2267
    137  CD2      -24.2900  -14.2690  -74.2860 C.ar   63  HIS63       0.1154
    138  CE1      -24.8770  -14.4830  -72.1840 C.ar   63  HIS63       0.1986
    139  NE2      -25.1600  -13.8510  -73.3090 N.ar   63  HIS63      -0.2212
    140  N        -21.4320  -13.0110  -73.4330 N.am   64  ASN64      -0.1958
    141  CA       -21.6300  -11.5670  -73.5910 C.3    64  ASN64       0.1819
    142  C        -20.3610  -10.7590  -73.9040 C.2    64  ASN64       0.2621
    143  O        -20.4490   -9.5670  -74.2080 O.2    64  ASN64      -0.2715
    144  CB       -22.3390  -10.9760  -72.3640 C.3    64  ASN64       0.1195
    145  CG       -21.5140  -11.0770  -71.0840 C.2    64  ASN64       0.2630
    146  OD1      -20.5230  -11.7960  -71.0260 O.2    64  ASN64      -0.2716
    147  ND2      -21.9080  -10.3300  -70.0690 N.am   64  ASN64      -0.0877
    148  N        -19.1950  -11.3980  -73.8410 N.am   65  MET65      -0.1977
    149  CA       -17.9220  -10.7400  -74.1530 C.3    65  MET65       0.1605
    150  C        -17.3990  -11.0940  -75.5420 C.2    65  MET65       0.2287
    151  O        -16.4000  -10.5250  -75.9860 O.2    65  MET65      -0.2864
    152  CB       -16.8600  -11.1340  -73.1190 C.3    65  MET65       0.0413
    153  CG       -17.2010  -10.7780  -71.6800 C.3    65  MET65       0.0598
    154  SD       -17.0990   -9.0170  -71.3410 S.3    65  MET65      -0.1393
    155  CE       -15.6110   -8.8830  -70.3720 C.3    65  MET65       0.0692
@<TRIPOS>BOND
     1     1     2    1
     2   151   150    2
     3   133   132    2
     4   150   149    1
     5    11    10   ar
     6    11     9   ar
     7    10     8   ar
     8     9     7   ar
     9     2     3    1
    10     2     5    1
    11     8     6   ar
    12     4     3    2
    13     7     6   ar
    14   132   131    1
    15   132   140   am
    16     6     5    1
    17   134   131    1
    18   134   135    1
    19   137   135   ar
    20   137   139   ar
    21   143   142    2
    22   131   130    1
    23   149   148    1
    24   149   152    1
    25   142   148   am
    26   142   141    1
    27   135   136   ar
    28   141   140    1
    29   141   144    1
    30   139   138   ar
    31   126   125    2
    32   152   153    1
    33   130   125   am
    34   125   124    1
    35   136   138   ar
    36   144   145    1
    37    80    81    1
    38   102   103    2
    39   102   101    1
    40   153   154    1
    41    99    98    2
    42   154   155    1
    43    12    13    1
    44   123   124    1
    45   123   129    1
    46   124   127    1
    47   145   146    2
    48   145   147   am
    49    81    82    1
    50    81    84    1
    51    83    82    2
    52    98   100   am
    53    98    97    1
    54   129   128    1
    55   101   100    1
    56   101   104    1
    57    16    13    1
    58    16    17    1
    59    97    96    1
    60   128   127    1
    61   113   114    2
    62   113   112    1
    63    13    14    1
    64    84    85    1
    65    15    14    2
    66   112   111    1
    67   112   115    1
    68   104   105    1
    69    96    90   am
    70    86    85   ar
    71    17    19   ar
    72    17    18   ar
    73    85    87   ar
    74    19    21   ar
    75   105   107   ar
    76   105   106   ar
    77   117   119   ar
    78   117   116   ar
    79   107   109   ar
    80    18    20   ar
    81   115   116    1
    82   119   121   ar
    83    90    91    2
    84    90    89    1
    85    21    22   ar
    86   116   118   ar
    87    31    30    1
    88    73    74    2
    89    73    72    1
    90   106   108   ar
    91    88    89    1
    92   109   110   ar
    93    20    22   ar
    94    30    29    1
    95    22    23    1
    96    89    92    1
    97   121   122    1
    98   121   120   ar
    99    72    75    1
   100    72    71    1
   101   108   110   ar
   102    65    64    2
   103   118   120   ar
   104    75    76    1
   105    92    93    1
   106    71    64   am
   107    64    63    1
   108    76    77    1
   109    29    28    1
   110    78    77   ar
   111    28    25    1
   112    93    94   ar
   113    93    95   ar
   114    77    79   ar
   115    63    66    1
   116    63    62    1
   117    69    68   ar
   118    66    67    1
   119    25    26    1
   120    25    24    1
   121    27    26    2
   122    68    67    1
   123    68    70   ar
   124    46    44   am
   125    38    37    1
   126    38    32    1
   127    37    36    1
   128    32    33    1
   129    44    45    2
   130    44    43    1
   131    57    56    2
   132    36    33    1
   133    43    40    1
   134    33    34    1
   135    61    59   ar
   136    56    55    1
   137    39    34   am
   138    39    40    1
   139    60    59   ar
   140    59    58    1
   141    34    35    2
   142    40    41    1
   143    42    41    2
   144    58    55    1
   145    55    54    1
   146    41    47   am
   147    54    49   am
   148    47    53    1
   149    47    48    1
   150    49    50    2
   151    49    48    1
   152    53    52    1
   153    48    51    1
   154    52    51    1
