@<TRIPOS>MOLECULE
tmp/4z88A00.pdb
 165 162 0 0 0
SMALL
GASTEIGER

@<TRIPOS>ATOM
      1  N        -23.1300   -3.5290  -36.9120 N.3     7  PHE7       -0.1227
      2  CA       -23.4400   -4.9550  -37.0590 C.3     7  PHE7        0.1736
      3  C        -22.1620   -5.7830  -37.1480 C.2     7  PHE7        0.2595
      4  O        -21.0760   -5.2460  -37.3930 O.2     7  PHE7       -0.2718
      5  CB       -24.2670   -5.1970  -38.3250 C.3     7  PHE7        0.0547
      6  CG       -25.4880   -4.3330  -38.4280 C.ar    7  PHE7       -0.0202
      7  CD1      -25.3930   -3.0120  -38.8380 C.ar    7  PHE7       -0.0042
      8  CD2      -26.7450   -4.8500  -38.1130 C.ar    7  PHE7       -0.0042
      9  CE1      -26.5230   -2.2160  -38.9320 C.ar    7  PHE7       -0.0003
     10  CE2      -27.8740   -4.0600  -38.2040 C.ar    7  PHE7       -0.0003
     11  CZ       -27.7650   -2.7400  -38.6140 C.ar    7  PHE7       -0.0000
     12  N        -22.3010   -7.0900  -36.9410 N.am    8  ASP8       -0.1960
     13  CA       -21.2230   -8.0360  -37.2270 C.3     8  ASP8        0.1840
     14  C        -21.0800   -8.1570  -38.7370 C.2     8  ASP8        0.2622
     15  O        -22.0750   -8.1340  -39.4590 O.2     8  ASP8       -0.2715
     16  CB       -21.5330   -9.4230  -36.6540 C.3     8  ASP8        0.1450
     17  CG       -21.6270   -9.4380  -35.1440 C.2     8  ASP8        0.3671
     18  OD1      -20.9610   -8.6250  -34.4760 O.co2   8  ASP8       -0.2456
     19  OD2      -22.3610  -10.2950  -34.6130 O.co2   8  ASP8       -0.2456
     20  N        -19.8420   -8.2640  -39.2170 N.am    9  TYR9       -0.1974
     21  CA       -19.5960   -8.5020  -40.6350 C.3     9  TYR9        0.1639
     22  C        -18.4740   -9.5250  -40.8290 C.2     9  TYR9        0.2290
     23  O        -17.3170   -9.2620  -40.5020 O.2     9  TYR9       -0.2864
     24  CB       -19.2600   -7.1940  -41.3620 C.3     9  TYR9        0.0560
     25  CG       -19.2100   -7.3280  -42.8680 C.ar    9  TYR9       -0.0198
     26  CD1      -20.2720   -7.8920  -43.5720 C.ar    9  TYR9       -0.0009
     27  CD2      -18.1050   -6.8830  -43.5970 C.ar    9  TYR9       -0.0009
     28  CE1      -20.2340   -8.0170  -44.9560 C.ar    9  TYR9        0.0417
     29  CE2      -18.0570   -7.0080  -44.9770 C.ar    9  TYR9        0.0417
     30  CZ       -19.1270   -7.5740  -45.6510 C.ar    9  TYR9        0.1957
     31  OH       -19.0900   -7.7000  -47.0230 O.3     9  TYR9       -0.2866
     32  N        -20.5800  -13.5100  -45.6300 N.3    14  MET14      -0.1245
     33  CA       -21.5560  -12.4270  -45.8480 C.3    14  MET14       0.1570
     34  C        -21.2740  -11.5100  -47.0530 C.2    14  MET14       0.2261
     35  O        -22.1750  -10.8140  -47.5140 O.2    14  MET14      -0.2867
     36  CB       -21.6730  -11.5690  -44.5840 C.3    14  MET14       0.0387
     37  CG       -22.1640  -12.3300  -43.3590 C.3    14  MET14       0.0595
     38  SD       -22.1330  -11.3610  -41.8410 S.3    14  MET14      -0.1393
     39  CE       -23.2730  -10.0410  -42.2460 C.3    14  MET14       0.0692
     40  N        -20.9280  -10.1400  -50.7560 N.3    16  PRO16      -0.2102
     41  CA       -21.4580  -10.4340  -52.0860 C.3    16  PRO16       0.1504
     42  C        -20.3840  -10.4180  -53.1710 C.2    16  PRO16       0.2575
     43  O        -20.6820  -10.6830  -54.3360 O.2    16  PRO16      -0.2718
     44  CB       -22.4550   -9.2900  -52.3200 C.3    16  PRO16       0.0282
     45  CG       -21.8870   -8.1520  -51.5550 C.3    16  PRO16       0.0208
     46  CD       -21.1940   -8.7420  -50.3590 C.3    16  PRO16       0.0893
     47  N        -19.1510  -10.0990  -52.7820 N.am   17  ASN17      -0.1975
     48  CA       -18.0310   -9.9740  -53.7010 C.3    17  ASN17       0.1688
     49  C        -17.1530  -11.2200  -53.6420 C.2    17  ASN17       0.2292
     50  O        -16.9140  -11.7470  -52.5550 O.2    17  ASN17      -0.2864
     51  CB       -17.2230   -8.7410  -53.3170 C.3    17  ASN17       0.1181
     52  CG       -18.0650   -7.4780  -53.3140 C.2    17  ASN17       0.2629
     53  OD1      -18.5840   -7.0540  -54.3490 O.2    17  ASN17      -0.2716
     54  ND2      -18.2180   -6.8790  -52.1410 N.am   17  ASN17      -0.0877
     55  N        -13.9600  -11.6040  -54.1110 N.3    19  ASP19      -0.1239
     56  CA       -12.6920  -11.3410  -53.4280 C.3    19  ASP19       0.1674
     57  C        -12.9100  -10.7490  -52.0240 C.2    19  ASP19       0.2266
     58  O        -11.9910  -10.1790  -51.4440 O.2    19  ASP19      -0.2867
     59  CB       -11.8380  -10.3890  -54.2680 C.3    19  ASP19       0.1410
     60  CG       -12.4510   -9.0010  -54.3890 C.2    19  ASP19       0.3668
     61  OD1      -13.6920   -8.8750  -54.2960 O.co2  19  ASP19      -0.2456
     62  OD2      -11.6880   -8.0310  -54.5720 O.co2  19  ASP19      -0.2456
     63  N        -10.1220   -8.9680  -49.3200 N.3    23  GLU23      -0.1231
     64  CA       -10.0330   -7.5030  -49.4570 C.3    23  GLU23       0.1699
     65  C        -10.8280   -6.7010  -48.4290 C.2    23  GLU23       0.2592
     66  O        -10.5500   -5.5180  -48.2190 O.2    23  GLU23      -0.2718
     67  CB       -10.4550   -7.0880  -50.8690 C.3    23  GLU23       0.0402
     68  CG        -9.5880   -7.6720  -51.9780 C.3    23  GLU23       0.1161
     69  CD        -8.1660   -7.1380  -51.9760 C.2    23  GLU23       0.3649
     70  OE1       -7.9700   -5.9310  -51.6970 O.co2  23  GLU23      -0.2457
     71  OE2       -7.2420   -7.9250  -52.2760 O.co2  23  GLU23      -0.2457
     72  N        -11.8190   -7.3190  -47.8020 N.am   24  GLU24      -0.1979
     73  CA       -12.7170   -6.5950  -46.8990 C.3    24  GLU24       0.1602
     74  C        -12.4260   -6.9800  -45.4590 C.2    24  GLU24       0.2287
     75  O        -12.1640   -8.1450  -45.1650 O.2    24  GLU24      -0.2864
     76  CB       -14.1820   -6.8930  -47.2370 C.3    24  GLU24       0.0415
     77  CG       -14.5600   -6.6120  -48.6850 C.3    24  GLU24       0.1163
     78  CD       -15.9390   -7.1420  -49.0570 C.2    24  GLU24       0.3649
     79  OE1      -16.7140   -7.5180  -48.1530 O.co2  24  GLU24      -0.2457
     80  OE2      -16.2450   -7.1840  -50.2670 O.co2  24  GLU24      -0.2457
     81  N        -19.9500   -6.1390  -34.1070 N.3    29  GLU29      -0.1245
     82  CA       -20.6420   -4.9510  -33.6160 C.3    29  GLU29       0.1567
     83  C        -19.8700   -4.3200  -32.4500 C.2    29  GLU29       0.2260
     84  O        -19.3670   -5.0240  -31.5740 O.2    29  GLU29      -0.2867
     85  CB       -22.0820   -5.2910  -33.2000 C.3    29  GLU29       0.0388
     86  CG       -22.2020   -6.2170  -31.9970 C.3    29  GLU29       0.1160
     87  CD       -23.6340   -6.4410  -31.5510 C.2    29  GLU29       0.3649
     88  OE1      -24.5760   -6.0910  -32.2990 O.co2  29  GLU29      -0.2457
     89  OE2      -23.8180   -6.9690  -30.4360 O.co2  29  GLU29      -0.2457
     90  N        -15.4710    5.6060  -51.1520 N.3    40  ASP40      -0.1239
     91  CA       -15.3100    5.5630  -52.6080 C.3    40  ASP40       0.1674
     92  C        -16.6780    5.5050  -53.2930 C.2    40  ASP40       0.2266
     93  O        -17.6940    5.4360  -52.6310 O.2    40  ASP40      -0.2867
     94  CB       -14.3860    4.3940  -53.0320 C.3    40  ASP40       0.1410
     95  CG       -14.9410    3.0180  -52.6670 C.2    40  ASP40       0.3668
     96  OD1      -16.1570    2.8960  -52.4230 O.co2  40  ASP40      -0.2456
     97  OD2      -14.1500    2.0490  -52.6170 O.co2  40  ASP40      -0.2456
     98  N        -18.0660    3.0910  -54.7720 N.3    42  ASP42      -0.1225
     99  CA       -18.7590    1.8410  -54.4500 C.3    42  ASP42       0.1805
    100  C        -19.4360    1.8680  -53.0770 C.2    42  ASP42       0.2598
    101  O        -20.2550    1.0000  -52.7760 O.2    42  ASP42      -0.2718
    102  CB       -17.7820    0.6640  -54.5190 C.3    42  ASP42       0.1424
    103  CG       -17.2060    0.4650  -55.9080 C.2    42  ASP42       0.3668
    104  OD1      -17.4130    1.3360  -56.7760 O.co2  42  ASP42      -0.2456
    105  OD2      -16.5470   -0.5660  -56.1350 O.co2  42  ASP42      -0.2456
    106  N        -19.0970    2.8610  -52.2560 N.am   43  GLY43      -0.1942
    107  CA       -19.6700    3.0100  -50.9200 C.3    43  GLY43       0.2014
    108  C        -18.8270    2.3820  -49.8220 C.2    43  GLY43       0.2638
    109  O        -19.3390    2.0820  -48.7430 O.2    43  GLY43      -0.2714
    110  N        -17.5350    2.1830  -50.0950 N.am   44  PHE44      -0.1973
    111  CA       -16.6200    1.5320  -49.1580 C.3    44  PHE44       0.1639
    112  C        -15.5600    2.4920  -48.6320 C.2    44  PHE44       0.2290
    113  O        -14.9600    3.2510  -49.4010 O.2    44  PHE44      -0.2864
    114  CB       -15.9320    0.3380  -49.8290 C.3    44  PHE44       0.0560
    115  CG       -16.8110   -0.8730  -49.9510 C.ar   44  PHE44      -0.0200
    116  CD1      -17.7600   -0.9560  -50.9600 C.ar   44  PHE44      -0.0042
    117  CD2      -16.6960   -1.9260  -49.0570 C.ar   44  PHE44      -0.0042
    118  CE1      -18.5730   -2.0690  -51.0760 C.ar   44  PHE44      -0.0003
    119  CE2      -17.5050   -3.0420  -49.1680 C.ar   44  PHE44      -0.0003
    120  CZ       -18.4480   -3.1120  -50.1780 C.ar   44  PHE44      -0.0000
    121  N        -11.2500   -2.9650  -47.0960 N.3    55  TYR55      -0.1241
    122  CA       -12.4500   -2.2130  -47.4160 C.3    55  TYR55       0.1605
    123  C        -13.5250   -2.4450  -46.3620 C.2    55  TYR55       0.2264
    124  O        -13.6770   -3.5530  -45.8400 O.2    55  TYR55      -0.2867
    125  CB       -12.9680   -2.5720  -48.8110 C.3    55  TYR55       0.0534
    126  CG       -12.0670   -2.0820  -49.9220 C.ar   55  TYR55      -0.0201
    127  CD1      -12.0080   -0.7280  -50.2480 C.ar   55  TYR55      -0.0009
    128  CD2      -11.2650   -2.9670  -50.6410 C.ar   55  TYR55      -0.0009
    129  CE1      -11.1790   -0.2720  -51.2610 C.ar   55  TYR55       0.0417
    130  CE2      -10.4290   -2.5190  -51.6540 C.ar   55  TYR55       0.0417
    131  CZ       -10.3900   -1.1720  -51.9580 C.ar   55  TYR55       0.1957
    132  OH        -9.5710   -0.7260  -52.9650 O.3    55  TYR55      -0.2866
    133  N        -17.6740   -1.5030  -45.6270 N.3    57  PRO57      -0.2102
    134  CA       -18.9110   -0.9690  -46.2010 C.3    57  PRO57       0.1504
    135  C        -19.5320    0.1000  -45.3060 C.2    57  PRO57       0.2576
    136  O        -19.6740   -0.1050  -44.0990 O.2    57  PRO57      -0.2718
    137  CB       -19.8140   -2.2010  -46.3110 C.3    57  PRO57       0.0282
    138  CG       -19.3090   -3.1400  -45.2710 C.3    57  PRO57       0.0208
    139  CD       -17.8530   -2.8510  -45.0630 C.3    57  PRO57       0.0893
    140  N        -19.9020    1.2290  -45.9030 N.am   58  HIS58      -0.1962
    141  CA       -20.3980    2.3820  -45.1480 C.3    58  HIS58       0.1787
    142  C        -21.7090    2.0820  -44.4220 C.2    58  HIS58       0.2620
    143  O        -21.9460    2.5970  -43.3310 O.2    58  HIS58      -0.2715
    144  CB       -20.5830    3.5920  -46.0720 C.3    58  HIS58       0.0785
    145  CG       -21.8780    3.5830  -46.8230 C.ar   58  HIS58       0.0821
    146  ND1      -22.0300    2.9680  -48.0480 N.ar   58  HIS58      -0.2267
    147  CD2      -23.0910    4.0930  -46.5070 C.ar   58  HIS58       0.1154
    148  CE1      -23.2770    3.1100  -48.4580 C.ar   58  HIS58       0.1986
    149  NE2      -23.9400    3.7930  -47.5440 N.ar   58  HIS58      -0.2212
    150  N        -22.5540    1.2480  -45.0290 N.am   59  ASN59      -0.1958
    151  CA       -23.8580    0.9120  -44.4510 C.3    59  ASN59       0.1819
    152  C        -23.8080    0.0250  -43.1990 C.2    59  ASN59       0.2621
    153  O        -24.8340   -0.1930  -42.5640 O.2    59  ASN59      -0.2715
    154  CB       -24.7700    0.2740  -45.5070 C.3    59  ASN59       0.1195
    155  CG       -24.2620   -1.0750  -46.0010 C.2    59  ASN59       0.2630
    156  OD1      -23.0990   -1.4300  -45.8140 O.2    59  ASN59      -0.2716
    157  ND2      -25.1410   -1.8320  -46.6460 N.am   59  ASN59      -0.0877
    158  N        -22.6270   -0.4920  -42.8590 N.am   60  MET60      -0.1977
    159  CA       -22.4530   -1.3240  -41.6670 C.3    60  MET60       0.1605
    160  C        -21.8410   -0.5500  -40.4960 C.2    60  MET60       0.2287
    161  O        -21.7390   -1.0880  -39.3920 O.2    60  MET60      -0.2864
    162  CB       -21.5520   -2.5180  -41.9880 C.3    60  MET60       0.0413
    163  CG       -22.0670   -3.4280  -43.0920 C.3    60  MET60       0.0598
    164  SD       -23.4740   -4.4220  -42.5900 S.3    60  MET60      -0.1393
    165  CE       -22.7700   -6.0510  -42.4220 C.3    60  MET60       0.0692
@<TRIPOS>BOND
     1   104   103   ar
     2   105   103   ar
     3   103   102    1
     4    98    99    1
     5    62    60   ar
     6   102    99    1
     7    99   100    1
     8    60    61   ar
     9    60    59    1
    10    53    52    2
    11    43    42    2
    12    59    56    1
    13    55    56    1
    14    48    49    1
    15    48    51    1
    16    48    47    1
    17    49    50    2
    18    56    57    1
    19    51    52    1
    20    52    54   am
    21    92    93    2
    22    92    91    1
    23    42    47   am
    24    42    41    1
    25   100   101    2
    26   100   106   am
    27    94    95    1
    28    94    91    1
    29   132   131    1
    30    95    97   ar
    31    95    96   ar
    32    91    90    1
    33    44    41    1
    34    44    45    1
    35    71    69   ar
    36   106   107    1
    37    41    40    1
    38    57    58    2
    39    68    69    1
    40    68    67    1
    41    69    70   ar
    42   131   130   ar
    43   131   129   ar
    44   130   128   ar
    45    45    46    1
    46   129   127   ar
    47   118   116   ar
    48   118   120   ar
    49   116   115   ar
    50   107   108    1
    51    67    64    1
    52    40    46    1
    53   128   126   ar
    54    80    78   ar
    55   127   126   ar
    56   120   119   ar
    57   110   108   am
    58   110   111    1
    59   115   114    1
    60   115   117   ar
    61   126   125    1
    62   114   111    1
    63   108   109    2
    64    64    63    1
    65    64    65    1
    66   113   112    2
    67   119   117   ar
    68   111   112    1
    69    78    77    1
    70    78    79   ar
    71   125   122    1
    72    77    76    1
    73   148   146   ar
    74   148   149   ar
    75    65    66    2
    76    65    72   am
    77   146   145   ar
    78    72    73    1
    79   149   147   ar
    80    35    34    2
    81   122   121    1
    82   122   123    1
    83    76    73    1
    84    34    33    1
    85    31    30    1
    86    73    74    1
    87   145   147   ar
    88   145   144    1
    89   157   155   am
    90   123   124    2
    91   137   134    1
    92   137   138    1
    93   134   133    1
    94   134   135    1
    95   144   141    1
    96   155   156    2
    97   155   154    1
    98   140   135   am
    99   140   141    1
   100    33    32    1
   101    33    36    1
   102    30    29   ar
   103    30    28   ar
   104   133   139    1
   105   154   151    1
   106    74    75    2
   107   135   136    2
   108   138   139    1
   109   141   142    1
   110   150   151    1
   111   150   142   am
   112    29    27   ar
   113    28    26   ar
   114    36    37    1
   115   151   152    1
   116   142   143    2
   117    27    25   ar
   118    26    25   ar
   119    37    38    1
   120   152   158   am
   121   152   153    2
   122   163   164    1
   123   163   162    1
   124    25    24    1
   125   158   159    1
   126   164   165    1
   127    39    38    1
   128   162   159    1
   129   159   160    1
   130    24    21    1
   131    22    21    1
   132    22    23    2
   133    21    20    1
   134   160   161    2
   135    15    14    2
   136    20    14   am
   137     9     7   ar
   138     9    11   ar
   139     7     6   ar
   140    14    13    1
   141    11    10   ar
   142     6     5    1
   143     6     8   ar
   144     5     2    1
   145    10     8   ar
   146     4     3    2
   147    13    12    1
   148    13    16    1
   149     3     2    1
   150     3    12   am
   151     2     1    1
   152    16    17    1
   153    17    19   ar
   154    17    18   ar
   155    81    82    1
   156    82    85    1
   157    82    83    1
   158    85    86    1
   159    83    84    2
   160    88    87   ar
   161    86    87    1
   162    87    89   ar
