@<TRIPOS>MOLECULE
tmp/4z89B00.pdb
 165 161 0 0 0
SMALL
GASTEIGER

@<TRIPOS>ATOM
      1  N         -5.7970   30.8680  -17.9050 N.3     7  MET7       -0.1230
      2  CA        -6.2550   31.6410  -19.0440 C.3     7  MET7        0.1702
      3  C         -7.6090   31.1040  -19.4580 C.2     7  MET7        0.2592
      4  O         -8.3410   31.7390  -20.2150 O.2     7  MET7       -0.2718
      5  CB        -5.2630   31.5470  -20.1980 C.3     7  MET7        0.0401
      6  CG        -3.8550   31.9850  -19.8350 C.3     7  MET7        0.0596
      7  SD        -3.6720   33.7780  -19.7190 S.3     7  MET7       -0.1393
      8  CE        -4.2290   34.2790  -21.3460 C.3     7  MET7        0.0692
      9  N         -7.9370   29.9320  -18.9200 N.am    8  PHE8       -0.1976
     10  CA        -9.1560   29.2150  -19.2630 C.3     8  PHE8        0.1639
     11  C         -9.7920   28.5620  -18.0500 C.2     8  PHE8        0.2290
     12  O         -9.1040   28.2110  -17.1020 O.2     8  PHE8       -0.2864
     13  CB        -8.8430   28.1430  -20.3090 C.3     8  PHE8        0.0560
     14  CG        -8.3590   28.6880  -21.6200 C.ar    8  PHE8       -0.0200
     15  CD1       -9.0830   29.6600  -22.2870 C.ar    8  PHE8       -0.0042
     16  CD2       -7.1640   28.2580  -22.1680 C.ar    8  PHE8       -0.0042
     17  CE1       -8.6480   30.1630  -23.4990 C.ar    8  PHE8       -0.0003
     18  CE2       -6.7160   28.7630  -23.3750 C.ar    8  PHE8       -0.0003
     19  CZ        -7.4590   29.7180  -24.0420 C.ar    8  PHE8       -0.0000
     20  N        -11.2150   25.2250  -16.4450 N.3    10  TYR10      -0.1241
     21  CA       -10.8940   23.8170  -16.7040 C.3    10  TYR10       0.1605
     22  C        -11.6150   22.8650  -15.7550 C.2    10  TYR10       0.2264
     23  O        -11.4200   22.9240  -14.5390 O.2    10  TYR10      -0.2867
     24  CB        -9.3890   23.5770  -16.6150 C.3    10  TYR10       0.0534
     25  CG        -8.9740   22.1770  -17.0020 C.ar   10  TYR10      -0.0201
     26  CD1       -9.2850   21.6610  -18.2490 C.ar   10  TYR10      -0.0009
     27  CD2       -8.2740   21.3720  -16.1200 C.ar   10  TYR10      -0.0009
     28  CE1       -8.9090   20.3850  -18.6100 C.ar   10  TYR10       0.0417
     29  CE2       -7.8920   20.0930  -16.4720 C.ar   10  TYR10       0.0417
     30  CZ        -8.2120   19.6060  -17.7200 C.ar   10  TYR10       0.1957
     31  OH        -7.8400   18.3330  -18.0810 O.3    10  TYR10      -0.2866
     32  N        -13.4390   17.3840  -19.3150 N.3    15  MET15      -0.1245
     33  CA       -12.5200   17.9760  -20.2870 C.3    15  MET15       0.1570
     34  C        -11.1740   17.2570  -20.3350 C.2    15  MET15       0.2261
     35  O        -10.3930   17.4510  -21.2750 O.2    15  MET15      -0.2867
     36  CB       -12.2880   19.4500  -19.9610 C.3    15  MET15       0.0387
     37  CG       -13.5460   20.3020  -19.9770 C.3    15  MET15       0.0595
     38  SD       -13.2790   21.9300  -19.2280 S.3    15  MET15      -0.1393
     39  CE       -11.9880   22.5780  -20.2860 C.3    15  MET15       0.0692
     40  N         -8.6310   14.0260  -20.7210 N.3    17  PRO17      -0.2102
     41  CA        -8.4290   12.7440  -21.4040 C.3    17  PRO17       0.1504
     42  C         -7.9740   11.6670  -20.4400 C.2    17  PRO17       0.2575
     43  O         -7.8410   10.4960  -20.8070 O.2    17  PRO17      -0.2718
     44  CB        -7.3240   13.0560  -22.4140 C.3    17  PRO17       0.0282
     45  CG        -6.5600   14.1750  -21.7900 C.3    17  PRO17       0.0208
     46  CD        -7.5920   15.0090  -21.0800 C.3    17  PRO17       0.0893
     47  N         -7.7340   12.0910  -19.2060 N.am   18  ASN18      -0.1975
     48  CA        -7.2790   11.2190  -18.1440 C.3    18  ASN18       0.1688
     49  C         -8.4610   10.8170  -17.2850 C.2    18  ASN18       0.2292
     50  O         -9.1110   11.6740  -16.6860 O.2    18  ASN18      -0.2864
     51  CB        -6.2320   11.9490  -17.3190 C.3    18  ASN18       0.1181
     52  CG        -5.1910   12.6190  -18.1860 C.2    18  ASN18       0.2629
     53  OD1       -4.3400   11.9560  -18.7780 O.2    18  ASN18      -0.2716
     54  ND2       -5.2670   13.9420  -18.2870 N.am   18  ASN18      -0.0877
     55  N         -8.5190    9.5670  -14.5260 N.3    20  ASP20      -0.1239
     56  CA        -8.2230    9.8930  -13.1360 C.3    20  ASP20       0.1674
     57  C         -8.1830   11.3970  -12.9200 C.2    20  ASP20       0.2266
     58  O         -7.9430   11.8630  -11.8060 O.2    20  ASP20      -0.2867
     59  CB        -6.8800    9.2950  -12.7170 C.3    20  ASP20       0.1410
     60  CG        -5.7190    9.8210  -13.5560 C.2    20  ASP20       0.3668
     61  OD1       -5.8530    9.8970  -14.7950 O.co2  20  ASP20      -0.2456
     62  OD2       -4.6780   10.1880  -12.9770 O.co2  20  ASP20      -0.2456
     63  N         -6.7680   13.8910   -9.8650 N.3    24  GLU24      -0.1231
     64  CA        -5.3400   14.1560   -9.9770 C.3    24  GLU24       0.1699
     65  C         -5.0160   15.5290  -10.5770 C.2    24  GLU24       0.2592
     66  O         -3.9060   16.0340  -10.3990 O.2    24  GLU24      -0.2718
     67  CB        -4.6800   13.0520  -10.8150 C.3    24  GLU24       0.0402
     68  CG        -4.7140   11.6640  -10.1710 C.3    24  GLU24       0.1161
     69  CD        -3.9420   11.5710   -8.8750 C.2    24  GLU24       0.3649
     70  OE1       -3.1090   12.4600   -8.5970 O.co2  24  GLU24      -0.2457
     71  OE2       -4.1830   10.6150   -8.1070 O.co2  24  GLU24      -0.2457
     72  N         -5.9700   16.1140  -11.3010 N.am   25  GLU25      -0.1979
     73  CA        -5.7870   17.4290  -11.9170 C.3    25  GLU25       0.1602
     74  C         -6.6140   18.5020  -11.2070 C.2    25  GLU25       0.2287
     75  O         -7.7750   18.2780  -10.8670 O.2    25  GLU25      -0.2864
     76  CB        -6.1470   17.3640  -13.3940 C.3    25  GLU25       0.0415
     77  CG        -5.3380   16.3210  -14.1470 C.3    25  GLU25       0.1163
     78  CD        -5.8540   16.0580  -15.5400 C.2    25  GLU25       0.3649
     79  OE1       -6.7350   16.8080  -16.0150 O.co2  25  GLU25      -0.2457
     80  OE2       -5.3900   15.0770  -16.1540 O.co2  25  GLU25      -0.2457
     81  N        -10.8670   30.6570  -15.2710 N.3    30  GLU30      -0.1245
     82  CA       -10.0320   31.7220  -15.8070 C.3    30  GLU30       0.1567
     83  C         -9.9340   32.8600  -14.7960 C.2    30  GLU30       0.2260
     84  O        -10.9290   33.2670  -14.1920 O.2    30  GLU30      -0.2867
     85  CB       -10.5710   32.1860  -17.1690 C.3    30  GLU30       0.0388
     86  CG       -12.0100   32.6670  -17.1630 C.3    30  GLU30       0.1160
     87  CD       -12.5540   32.9520  -18.5590 C.2    30  GLU30       0.3649
     88  OE1      -12.5500   32.0300  -19.4040 O.co2  30  GLU30      -0.2457
     89  OE2      -12.9990   34.0930  -18.8090 O.co2  30  GLU30      -0.2457
     90  N          6.5590   18.9740  -16.0390 N.3    41  ASP41      -0.1239
     91  CA         7.0720   17.6130  -16.1120 C.3    41  ASP41       0.1674
     92  C          7.0190   17.1500  -17.5640 C.2    41  ASP41       0.2266
     93  O          6.5340   17.8670  -18.4400 O.2    41  ASP41      -0.2867
     94  CB         6.3050   16.6590  -15.1920 C.3    41  ASP41       0.1410
     95  CG         4.8950   16.3860  -15.6640 C.2    41  ASP41       0.3668
     96  OD1        4.2860   17.2610  -16.3010 O.co2  41  ASP41      -0.2456
     97  OD2        4.3800   15.2870  -15.3740 O.co2  41  ASP41      -0.2456
     98  N          5.2300   15.2750  -19.1700 N.3    43  ASP43      -0.1225
     99  CA         3.9260   15.1270  -19.7910 C.3    43  ASP43       0.1805
    100  C          3.4160   16.4760  -20.2700 C.2    43  ASP43       0.2598
    101  O          2.5600   16.5510  -21.1560 O.2    43  ASP43      -0.2718
    102  CB         2.9420   14.5010  -18.8070 C.3    43  ASP43       0.1424
    103  CG         3.3100   13.0770  -18.4460 C.2    43  ASP43       0.3668
    104  OD1        4.1050   12.4520  -19.1810 O.co2  43  ASP43      -0.2456
    105  OD2        2.8240   12.5900  -17.4070 O.co2  43  ASP43      -0.2456
    106  N          3.9610   17.5400  -19.6940 N.am   44  GLY44      -0.1942
    107  CA         3.5700   18.8770  -20.0850 C.3    44  GLY44       0.2014
    108  C          2.7210   19.5190  -19.0150 C.2    44  GLY44       0.2638
    109  O          2.0400   20.5040  -19.2610 O.2    44  GLY44      -0.2714
    110  N          2.7620   18.9470  -17.8200 N.am   45  PHE45      -0.1973
    111  CA         1.9610   19.4360  -16.7060 C.3    45  PHE45       0.1639
    112  C          2.8080   20.1560  -15.6700 C.2    45  PHE45       0.2290
    113  O          3.9420   19.7730  -15.4020 O.2    45  PHE45      -0.2864
    114  CB         1.2170   18.2900  -16.0160 C.3    45  PHE45       0.0560
    115  CG         0.0100   17.7970  -16.7600 C.ar   45  PHE45      -0.0200
    116  CD1        0.1320   16.9560  -17.8530 C.ar   45  PHE45      -0.0042
    117  CD2       -1.2570   18.1620  -16.3440 C.ar   45  PHE45      -0.0042
    118  CE1       -0.9890   16.4980  -18.5160 C.ar   45  PHE45      -0.0003
    119  CE2       -2.3750   17.7110  -17.0040 C.ar   45  PHE45      -0.0003
    120  CZ        -2.2420   16.8760  -18.0900 C.ar   45  PHE45      -0.0000
    121  N         -2.1180   18.4220  -10.5740 N.3    56  TYR56      -0.1241
    122  CA        -1.4050   18.6750  -11.8150 C.3    56  TYR56       0.1605
    123  C         -2.1310   19.6800  -12.7030 C.2    56  TYR56       0.2264
    124  O         -3.3620   19.7480  -12.7210 O.2    56  TYR56      -0.2867
    125  CB        -1.1720   17.3600  -12.5510 C.3    56  TYR56       0.0534
    126  CG        -0.2370   16.4340  -11.8070 C.ar   56  TYR56      -0.0201
    127  CD1        1.1340   16.5950  -11.8950 C.ar   56  TYR56      -0.0009
    128  CD2       -0.7240   15.4080  -11.0100 C.ar   56  TYR56      -0.0009
    129  CE1        1.9960   15.7600  -11.2220 C.ar   56  TYR56       0.0417
    130  CE2        0.1380   14.5620  -10.3350 C.ar   56  TYR56       0.0417
    131  CZ         1.4940   14.7490  -10.4470 C.ar   56  TYR56       0.1957
    132  OH         2.3630   13.9250   -9.7820 O.3    56  TYR56      -0.2866
    133  N         -2.1120   21.4130  -16.6330 N.3    58  PRO58      -0.2102
    134  CA        -1.6330   21.4180  -18.0140 C.3    58  PRO58       0.1504
    135  C         -1.0260   22.7570  -18.4080 C.2    58  PRO58       0.2576
    136  O         -1.5830   23.8130  -18.0980 O.2    58  PRO58      -0.2718
    137  CB        -2.8930   21.1340  -18.8270 C.3    58  PRO58       0.0282
    138  CG        -4.0260   21.4990  -17.9450 C.3    58  PRO58       0.0208
    139  CD        -3.5740   21.2590  -16.5450 C.3    58  PRO58       0.0893
    140  N          0.1160   22.7090  -19.0820 N.am   59  HIS59      -0.1962
    141  CA         0.8690   23.9150  -19.3640 C.3    59  HIS59       0.1787
    142  C          0.1330   24.8180  -20.3430 C.2    59  HIS59       0.2620
    143  O          0.3020   26.0390  -20.3110 O.2    59  HIS59      -0.2715
    144  CB         2.2400   23.5480  -19.9330 C.3    59  HIS59       0.0785
    145  CG         2.2310   23.2620  -21.4030 C.ar   59  HIS59       0.0821
    146  ND1        1.9520   22.0090  -21.9170 N.ar   59  HIS59      -0.2267
    147  CD2        2.5000   24.0510  -22.4670 C.ar   59  HIS59       0.1154
    148  CE1        2.0310   22.0510  -23.2300 C.ar   59  HIS59       0.1986
    149  NE2        2.3650   23.2720  -23.5980 N.ar   59  HIS59      -0.2212
    150  N         -0.7000   24.2150  -21.1890 N.am   60  ASN60      -0.1958
    151  CA        -1.3890   24.9440  -22.2470 C.3    60  ASN60       0.1819
    152  C         -2.6180   25.6990  -21.7490 C.2    60  ASN60       0.2621
    153  O         -3.3650   26.2750  -22.5450 O.2    60  ASN60      -0.2715
    154  CB        -1.7880   23.9880  -23.3750 C.3    60  ASN60       0.1195
    155  CG        -2.6010   22.8060  -22.8850 C.2    60  ASN60       0.2630
    156  OD1       -2.4770   22.3770  -21.7350 O.2    60  ASN60      -0.2716
    157  ND2       -3.4230   22.2510  -23.7720 N.am   60  ASN60      -0.0877
    158  N         -2.8260   25.7050  -20.4350 N.am   61  MET61      -0.1977
    159  CA        -3.9970   26.3620  -19.8790 C.3    61  MET61       0.1605
    160  C         -3.6240   27.5270  -18.9750 C.2    61  MET61       0.2287
    161  O         -4.4740   28.3470  -18.6400 O.2    61  MET61      -0.2864
    162  CB        -4.8390   25.3540  -19.0980 C.3    61  MET61       0.0413
    163  CG        -5.4820   24.2530  -19.9330 C.3    61  MET61       0.0598
    164  SD        -7.0350   24.7780  -20.6770 S.3    61  MET61      -0.1393
    165  CE        -7.6430   23.1990  -21.2640 C.3    61  MET61       0.0692
@<TRIPOS>BOND
     1    19    17   ar
     2    19    18   ar
     3   157   155   am
     4   149   148   ar
     5   149   147   ar
     6    17    15   ar
     7    18    16   ar
     8   154   155    1
     9   154   151    1
    10   148   146   ar
    11   155   156    2
    12   153   152    2
    13   147   145   ar
    14    44    45    1
    15    44    41    1
    16    15    14   ar
    17   151   152    1
    18   151   150    1
    19    16    14   ar
    20   146   145   ar
    21    45    46    1
    22   152   158   am
    23    14    13    1
    24    41    40    1
    25    41    42    1
    26   145   144    1
    27     8     7    1
    28    35    34    2
    29   165   164    1
    30   150   142   am
    31   101   100    2
    32    46    40    1
    33    43    42    2
    34   164   163    1
    35    42    47   am
    36   158   159    1
    37   142   143    2
    38   142   141    1
    39    34    33    1
    40    13    10    1
    41    33    36    1
    42    33    32    1
    43    39    38    1
    44   100    99    1
    45   100   106   am
    46     4     3    2
    47     5     6    1
    48     5     2    1
    49   107   106    1
    50   107   108    1
    51    37    36    1
    52    37    38    1
    53   163   162    1
    54   144   141    1
    55   159   162    1
    56   159   160    1
    57     6     7    1
    58    99    98    1
    59    99   102    1
    60     3     2    1
    61     3     9   am
    62    88    87   ar
    63   141   140    1
    64    10     9    1
    65    10    11    1
    66   109   108    2
    67    47    48    1
    68   104   103   ar
    69   140   135   am
    70     2     1    1
    71   108   110   am
    72   160   161    2
    73   137   134    1
    74   137   138    1
    75    89    87   ar
    76   102   103    1
    77    53    52    2
    78    28    26   ar
    79    28    30   ar
    80    87    86    1
    81   118   120   ar
    82   118   116   ar
    83   103   105   ar
    84    93    92    2
    85   135   136    2
    86   135   134    1
    87    54    52   am
    88    26    25   ar
    89    52    51    1
    90    48    51    1
    91    48    49    1
    92   120   119   ar
    93    31    30    1
    94    11    12    2
    95   134   133    1
    96   138   139    1
    97   116   115   ar
    98   110   111    1
    99    30    29   ar
   100    92    91    1
   101    49    50    2
   102    85    86    1
   103    85    82    1
   104   119   117   ar
   105    25    24    1
   106    25    27   ar
   107   115   117   ar
   108   115   114    1
   109   111   114    1
   110   111   112    1
   111    21    24    1
   112    21    20    1
   113    21    22    1
   114   133   139    1
   115    29    27   ar
   116    96    95   ar
   117    80    78   ar
   118    91    90    1
   119    91    94    1
   120    79    78   ar
   121    82    81    1
   122    82    83    1
   123    22    23    2
   124   112   113    2
   125    95    97   ar
   126    95    94    1
   127    78    77    1
   128    83    84    2
   129    61    60   ar
   130    55    56    1
   131    77    76    1
   132    60    62   ar
   133    60    59    1
   134    76    73    1
   135    56    57    1
   136    56    59    1
   137    57    58    2
   138   124   123    2
   139   123   122    1
   140   125   122    1
   141   125   126    1
   142    73    72    1
   143    73    74    1
   144   127   126   ar
   145   127   129   ar
   146   122   121    1
   147   126   128   ar
   148    72    65   am
   149   129   131   ar
   150    74    75    2
   151   128   130   ar
   152    67    68    1
   153    67    64    1
   154    65    66    2
   155    65    64    1
   156   131   130   ar
   157   131   132    1
   158    68    69    1
   159    64    63    1
   160    69    70   ar
   161    69    71   ar
