@<TRIPOS>MOLECULE
tmp/4z89E00.pdb
 161 159 0 0 0
SMALL
GASTEIGER

@<TRIPOS>ATOM
      1  N        -36.3910   18.3550  -32.7100 N.3     7  MET7       -0.1230
      2  CA       -36.1600   19.7720  -32.9070 C.3     7  MET7        0.1702
      3  C        -34.7750   20.1370  -32.4430 C.2     7  MET7        0.2592
      4  O        -34.2390   21.1750  -32.8280 O.2     7  MET7       -0.2718
      5  CB       -37.1730   20.5840  -32.1070 C.3     7  MET7        0.0401
      6  CG       -38.6270   20.2980  -32.4210 C.3     7  MET7        0.0596
      7  SD       -39.7160   21.3200  -31.4040 S.3     7  MET7       -0.1393
      8  CE       -38.8850   22.9070  -31.4850 C.3     7  MET7        0.0692
      9  N        -34.1830   19.2430  -31.6570 N.am    8  PHE8       -0.1976
     10  CA       -32.9070   19.4960  -30.9980 C.3     8  PHE8        0.1639
     11  C        -32.0190   18.2560  -30.9500 C.2     8  PHE8        0.2290
     12  O        -32.5180   17.1350  -31.0290 O.2     8  PHE8       -0.2864
     13  CB       -33.1740   19.9860  -29.5740 C.3     8  PHE8        0.0560
     14  CG       -33.9750   21.2530  -29.5120 C.ar    8  PHE8       -0.0200
     15  CD1      -33.5830   22.3710  -30.2260 C.ar    8  PHE8       -0.0042
     16  CD2      -35.1540   21.3060  -28.7880 C.ar    8  PHE8       -0.0042
     17  CE1      -34.3290   23.5340  -30.1870 C.ar    8  PHE8       -0.0003
     18  CE2      -35.9050   22.4660  -28.7480 C.ar    8  PHE8       -0.0003
     19  CZ       -35.4920   23.5810  -29.4460 C.ar    8  PHE8       -0.0000
     20  N        -30.2160   15.7460  -28.6330 N.3    10  TYR10      -0.1241
     21  CA       -30.4490   15.3830  -27.2390 C.3    10  TYR10       0.1605
     22  C        -29.6410   14.1640  -26.8400 C.2    10  TYR10       0.2264
     23  O        -29.8060   13.0800  -27.3960 O.2    10  TYR10      -0.2867
     24  CB       -31.9350   15.1380  -26.9920 C.3    10  TYR10       0.0534
     25  CG       -32.3110   14.8890  -25.5480 C.ar   10  TYR10      -0.0201
     26  CD1      -31.9930   15.8090  -24.5570 C.ar   10  TYR10      -0.0009
     27  CD2      -33.0140   13.7540  -25.1830 C.ar   10  TYR10      -0.0009
     28  CE1      -32.3450   15.5930  -23.2440 C.ar   10  TYR10       0.0417
     29  CE2      -33.3680   13.5300  -23.8700 C.ar   10  TYR10       0.0417
     30  CZ       -33.0350   14.4510  -22.9070 C.ar   10  TYR10       0.1957
     31  OH       -33.3950   14.2280  -21.5990 O.3    10  TYR10      -0.2866
     32  N        -27.6740   15.5170  -20.6620 N.3    15  MET15      -0.1245
     33  CA       -28.6660   16.5880  -20.7310 C.3    15  MET15       0.1570
     34  C        -29.9420   16.3250  -19.9360 C.2    15  MET15       0.2261
     35  O        -30.7550   17.2340  -19.7330 O.2    15  MET15      -0.2867
     36  CB       -29.0410   16.8560  -22.1870 C.3    15  MET15       0.0387
     37  CG       -27.8680   17.2790  -23.0570 C.3    15  MET15       0.0595
     38  SD       -28.2610   17.3150  -24.8110 S.3    15  MET15      -0.1393
     39  CE       -29.5760   18.5360  -24.8110 C.3    15  MET15       0.0692
     40  N        -32.0980   15.3780  -16.5410 N.3    17  PRO17      -0.2102
     41  CA       -32.1010   15.5170  -15.0880 C.3    17  PRO17       0.1504
     42  C        -32.3480   14.1920  -14.4010 C.2    17  PRO17       0.2575
     43  O        -32.2630   14.1070  -13.1730 O.2    17  PRO17      -0.2718
     44  CB       -33.2530   16.4890  -14.8360 C.3    17  PRO17       0.0282
     45  CG       -34.1620   16.2920  -15.9880 C.3    17  PRO17       0.0208
     46  CD       -33.2710   16.0220  -17.1580 C.3    17  PRO17       0.0893
     47  N        -32.6370   13.1680  -15.1980 N.am   18  ASN18      -0.1975
     48  CA       -32.8790   11.8330  -14.6740 C.3    18  ASN18       0.1688
     49  C        -31.6400   10.9600  -14.7900 C.2    18  ASN18       0.2292
     50  O        -31.1270   10.7380  -15.8900 O.2    18  ASN18      -0.2864
     51  CB       -34.0600   11.1720  -15.3840 C.3    18  ASN18       0.1181
     52  CG       -35.2910   12.0490  -15.4110 C.2    18  ASN18       0.2629
     53  OD1      -35.9480   12.2380  -14.3870 O.2    18  ASN18      -0.2716
     54  ND2      -35.6230   12.5760  -16.5850 N.am   18  ASN18      -0.0877
     55  N        -31.3090    7.9340  -14.6180 N.3    20  ASP20      -0.1239
     56  CA       -31.5510    6.7350  -15.4110 C.3    20  ASP20       0.1674
     57  C        -31.6510    7.0790  -16.8930 C.2    20  ASP20       0.2266
     58  O        -31.8540    6.1950  -17.7280 O.2    20  ASP20      -0.2867
     59  CB       -32.8420    6.0440  -14.9720 C.3    20  ASP20       0.1410
     60  CG       -34.0690    6.9380  -15.1380 C.2    20  ASP20       0.3668
     61  OD1      -34.0000    8.1270  -14.7610 O.co2  20  ASP20      -0.2456
     62  OD2      -35.0960    6.4630  -15.6680 O.co2  20  ASP20      -0.2456
     63  N        -32.9340    4.8360  -20.2820 N.3    24  GLU24      -0.1231
     64  CA       -34.3880    4.8170  -20.4410 C.3    24  GLU24       0.1699
     65  C        -34.9180    5.8340  -21.4720 C.2    24  GLU24       0.2592
     66  O        -36.0230    5.6640  -21.9970 O.2    24  GLU24      -0.2718
     67  CB       -35.0680    5.0470  -19.0840 C.3    24  GLU24       0.0402
     68  CG       -34.9620    3.8750  -18.1100 C.3    24  GLU24       0.1161
     69  CD       -35.7170    2.6350  -18.5770 C.2    24  GLU24       0.3649
     70  OE1      -36.5750    2.7510  -19.4810 O.co2  24  GLU24      -0.2457
     71  OE2      -35.4620    1.5370  -18.0350 O.co2  24  GLU24      -0.2457
     72  N        -34.1380    6.8720  -21.7730 N.am   25  GLU25      -0.1979
     73  CA       -34.5690    7.9010  -22.7230 C.3    25  GLU25       0.1602
     74  C        -33.8140    7.7880  -24.0470 C.2    25  GLU25       0.2287
     75  O        -32.5970    7.6100  -24.0420 O.2    25  GLU25      -0.2864
     76  CB       -34.3700    9.2910  -22.1160 C.3    25  GLU25       0.0415
     77  CG       -35.0870    9.4700  -20.7780 C.3    25  GLU25       0.1163
     78  CD       -34.7040   10.7420  -20.0420 C.2    25  GLU25       0.3649
     79  OE1      -34.0290   11.6150  -20.6270 O.co2  25  GLU25      -0.2457
     80  OE2      -35.0620   10.8580  -18.8530 O.co2  25  GLU25      -0.2457
     81  N        -47.5920   10.6460  -21.2930 N.3    41  ASP41      -0.1225
     82  CA       -47.8300   10.1170  -19.9590 C.3    41  ASP41       0.1805
     83  C        -47.8360   11.2860  -18.9890 C.2    41  ASP41       0.2598
     84  O        -47.5400   12.4150  -19.3790 O.2    41  ASP41      -0.2718
     85  CB       -46.7650    9.0870  -19.5840 C.3    41  ASP41       0.1424
     86  CG       -45.3890    9.7020  -19.4430 C.2    41  ASP41       0.3668
     87  OD1      -45.1090   10.6940  -20.1430 O.co2  41  ASP41      -0.2456
     88  OD2      -44.5750    9.1900  -18.6510 O.co2  41  ASP41      -0.2456
     89  N        -48.1360   11.0130  -17.7250 N.am   42  ALA42      -0.1966
     90  CA       -48.2510   12.0590  -16.7090 C.3    42  ALA42       0.1728
     91  C        -46.9610   12.8550  -16.4870 C.2    42  ALA42       0.2616
     92  O        -46.9930   13.9640  -15.9510 O.2    42  ALA42      -0.2715
     93  CB       -48.7140   11.4520  -15.4030 C.3    42  ALA42       0.0334
     94  N        -45.8280   12.2720  -16.8640 N.am   43  ASP43      -0.1957
     95  CA       -44.5370   12.9240  -16.6780 C.3    43  ASP43       0.1840
     96  C        -44.1910   13.8640  -17.8380 C.2    43  ASP43       0.2623
     97  O        -43.3500   14.7540  -17.6920 O.2    43  ASP43      -0.2715
     98  CB       -43.4470   11.8710  -16.5010 C.3    43  ASP43       0.1450
     99  CG       -43.6110   11.0790  -15.2180 C.2    43  ASP43       0.3671
    100  OD1      -44.3700   11.5270  -14.3300 O.co2  43  ASP43      -0.2456
    101  OD2      -42.9650   10.0190  -15.0850 O.co2  43  ASP43      -0.2456
    102  N        -44.8290   13.6530  -18.9890 N.am   44  GLY44      -0.1940
    103  CA       -44.6340   14.5110  -20.1440 C.3    44  GLY44       0.2014
    104  C        -43.8120   13.8880  -21.2580 C.2    44  GLY44       0.2638
    105  O        -43.3680   14.5830  -22.1730 O.2    44  GLY44      -0.2714
    106  N        -43.6390   12.5720  -21.2070 N.am   45  PHE45      -0.1973
    107  CA       -42.8060   11.8760  -22.1820 C.3    45  PHE45       0.1639
    108  C        -43.6050   11.0510  -23.1850 C.2    45  PHE45       0.2290
    109  O        -44.6080   10.4340  -22.8350 O.2    45  PHE45      -0.2864
    110  CB       -41.8080   10.9620  -21.4570 C.3    45  PHE45       0.0560
    111  CG       -40.6580   11.6950  -20.8200 C.ar   45  PHE45      -0.0200
    112  CD1      -40.8290   12.3770  -19.6240 C.ar   45  PHE45      -0.0042
    113  CD2      -39.4070   11.6950  -21.4120 C.ar   45  PHE45      -0.0042
    114  CE1      -39.7700   13.0540  -19.0290 C.ar   45  PHE45      -0.0003
    115  CE2      -38.3500   12.3680  -20.8310 C.ar   45  PHE45      -0.0003
    116  CZ       -38.5290   13.0490  -19.6330 C.ar   45  PHE45      -0.0000
    117  N        -38.2100    6.2980  -24.2020 N.3    56  TYR56      -0.1241
    118  CA       -38.9900    7.4960  -23.8670 C.3    56  TYR56       0.1605
    119  C        -38.4160    8.7920  -24.4430 C.2    56  TYR56       0.2264
    120  O        -37.2000    8.9830  -24.5100 O.2    56  TYR56      -0.2867
    121  CB       -39.1220    7.6480  -22.3470 C.3    56  TYR56       0.0534
    122  CG       -39.9480    6.5800  -21.6700 C.ar   56  TYR56      -0.0201
    123  CD1      -41.3300    6.6540  -21.6620 C.ar   56  TYR56      -0.0009
    124  CD2      -39.3500    5.5200  -21.0130 C.ar   56  TYR56      -0.0009
    125  CE1      -42.0950    5.6890  -21.0390 C.ar   56  TYR56       0.0417
    126  CE2      -40.1050    4.5520  -20.3850 C.ar   56  TYR56       0.0417
    127  CZ       -41.4770    4.6420  -20.4010 C.ar   56  TYR56       0.1957
    128  OH       -42.2290    3.6760  -19.7780 O.3    56  TYR56      -0.2866
    129  N        -38.8200   13.1340  -24.5120 N.3    58  PRO58      -0.2102
    130  CA       -39.3660   14.3840  -23.9670 C.3    58  PRO58       0.1504
    131  C        -40.0980   15.1800  -25.0510 C.2    58  PRO58       0.2576
    132  O        -39.5610   15.3540  -26.1450 O.2    58  PRO58      -0.2718
    133  CB       -38.1260   15.1320  -23.4710 C.3    58  PRO58       0.0282
    134  CG       -36.9870   14.5570  -24.2400 C.3    58  PRO58       0.0208
    135  CD       -37.3460   13.1300  -24.5430 C.3    58  PRO58       0.0893
    136  N        -41.3020   15.6550  -24.7540 N.am   59  HIS59      -0.1962
    137  CA       -42.1510   16.2470  -25.7780 C.3    59  HIS59       0.1787
    138  C        -41.6500   17.6020  -26.2690 C.2    59  HIS59       0.2620
    139  O        -41.9200   18.0020  -27.4070 O.2    59  HIS59      -0.2715
    140  CB       -43.5730   16.4000  -25.2460 C.3    59  HIS59       0.0785
    141  CG       -43.7890   17.6410  -24.4430 C.ar   59  HIS59       0.0821
    142  ND1      -43.5450   17.7100  -23.0910 N.ar   59  HIS59      -0.2267
    143  CD2      -44.2480   18.8680  -24.8060 C.ar   59  HIS59       0.1154
    144  CE1      -43.8340   18.9220  -22.6510 C.ar   59  HIS59       0.1986
    145  NE2      -44.2640   19.6420  -23.6700 N.ar   59  HIS59      -0.2212
    146  N        -40.9290   18.3040  -25.4020 N.am   60  ASN60      -0.1958
    147  CA       -40.4710   19.6530  -25.6880 C.3    60  ASN60       0.1819
    148  C        -39.2440   19.6620  -26.5840 C.2    60  ASN60       0.2621
    149  O        -38.6630   20.7120  -26.8480 O.2    60  ASN60      -0.2715
    150  CB       -40.1910   20.4010  -24.3780 C.3    60  ASN60       0.1195
    151  CG       -39.2560   19.6370  -23.4380 C.2    60  ASN60       0.2630
    152  OD1      -39.2020   18.4040  -23.4460 O.2    60  ASN60      -0.2716
    153  ND2      -38.5300   20.3780  -22.6070 N.am   60  ASN60      -0.0877
    154  N        -38.8660   18.4860  -27.0680 N.am   61  MET61      -0.1977
    155  CA       -37.6790   18.3360  -27.8980 C.3    61  MET61       0.1605
    156  C        -38.0930   17.8780  -29.2850 C.2    61  MET61       0.2287
    157  O        -37.2910   17.8460  -30.2170 O.2    61  MET61      -0.2864
    158  CB       -36.6950   17.3460  -27.2700 C.3    61  MET61       0.0413
    159  CG       -36.0780   17.8200  -25.9570 C.3    61  MET61       0.0598
    160  SD       -34.6720   18.8960  -26.2680 S.3    61  MET61      -0.1393
    161  CE       -33.9860   19.0220  -24.6200 C.3    61  MET61       0.0692
@<TRIPOS>BOND
     1     2     1    1
     2     2     3    1
     3     2     5    1
     4     4     3    2
     5     3     9   am
     6     6     5    1
     7     6     7    1
     8     9    10    1
     9     8     7    1
    10    12    11    2
    11    10    11    1
    12    10    13    1
    13    15    17   ar
    14    15    14   ar
    15   157   156    2
    16    17    19   ar
    17    13    14    1
    18    14    16   ar
    19    19    18   ar
    20   156   155    1
    21    16    18   ar
    22    20    21    1
    23   155   158    1
    24   155   154    1
    25   139   138    2
    26    23    22    2
    27   158   159    1
    28    21    24    1
    29    21    22    1
    30   154   148   am
    31    24    25    1
    32   149   148    2
    33   148   147    1
    34   138   137    1
    35   138   146   am
    36   160   159    1
    37   160   161    1
    38   132   131    2
    39   137   140    1
    40   137   136    1
    41   147   146    1
    42   147   150    1
    43    25    27   ar
    44    25    26   ar
    45   140   141    1
    46    27    29   ar
    47   131   136   am
    48   131   130    1
    49    39    38    1
    50    38    37    1
    51   143   141   ar
    52   143   145   ar
    53    26    28   ar
    54   135   129    1
    55   135   134    1
    56   129   130    1
    57   120   119    2
    58   119   118    1
    59   141   142   ar
    60   150   151    1
    61   134   133    1
    62   117   118    1
    63    74    75    2
    64    74    73    1
    65   130   133    1
    66    29    30   ar
    67   118   121    1
    68   145   144   ar
    69   152   151    2
    70   151   153   am
    71    28    30   ar
    72   108   109    2
    73   108   107    1
    74   142   144   ar
    75    37    36    1
    76    30    31    1
    77    73    76    1
    78    73    72    1
    79   121   122    1
    80    36    33    1
    81   107   110    1
    82   107   106    1
    83   105   104    2
    84    76    77    1
    85    66    65    2
    86    72    65   am
    87   122   123   ar
    88   122   124   ar
    89   123   125   ar
    90    65    64    1
    91   110   111    1
    92   113   115   ar
    93   113   111   ar
    94    81    82    1
    95   104   106   am
    96   104   103    1
    97   125   127   ar
    98   124   126   ar
    99   115   116   ar
   100   111   112   ar
   101    77    78    1
   102    33    32    1
   103    33    34    1
   104    79    78   ar
   105    64    63    1
   106    64    67    1
   107   127   126   ar
   108   127   128    1
   109   103   102    1
   110    87    86   ar
   111    78    80   ar
   112    82    85    1
   113    82    83    1
   114    34    35    2
   115   116   114   ar
   116   112   114   ar
   117    85    86    1
   118    70    69   ar
   119    86    88   ar
   120    84    83    2
   121    67    68    1
   122   102    96   am
   123    83    89   am
   124    69    68    1
   125    69    71   ar
   126    96    97    2
   127    96    95    1
   128    58    57    2
   129    89    90    1
   130    46    40    1
   131    46    45    1
   132    57    56    1
   133    94    95    1
   134    94    91   am
   135    90    91    1
   136    90    93    1
   137    95    98    1
   138    54    52   am
   139    40    41    1
   140    98    99    1
   141    91    92    2
   142    45    44    1
   143    50    49    2
   144    62    60   ar
   145    52    51    1
   146    52    53    2
   147    56    59    1
   148    56    55    1
   149    51    48    1
   150    99   101   ar
   151    99   100   ar
   152    47    48    1
   153    47    42   am
   154    60    59    1
   155    60    61   ar
   156    41    44    1
   157    41    42    1
   158    49    48    1
   159    42    43    2
