@<TRIPOS>MOLECULE
tmp/4z89J00.pdb
 169 165 0 0 0
SMALL
GASTEIGER

@<TRIPOS>ATOM
      1  N          1.3900  -23.6500    1.3410 N.3     7  MET7       -0.1230
      2  CA         1.7380  -24.9690    0.8300 C.3     7  MET7        0.1702
      3  C          3.0470  -24.9420    0.0740 C.2     7  MET7        0.2592
      4  O          3.6740  -25.9750   -0.1720 O.2     7  MET7       -0.2718
      5  CB         0.6470  -25.4380   -0.1260 C.3     7  MET7        0.0401
      6  CG        -0.7330  -25.4600    0.4770 C.3     7  MET7        0.0596
      7  SD        -1.9580  -26.0080   -0.7130 S.3     7  MET7       -0.1393
      8  CE        -1.0870  -27.3800   -1.4710 C.3     7  MET7        0.0692
      9  N          3.4600  -23.7380   -0.2870 N.am    8  PHE8       -0.1976
     10  CA         4.6100  -23.5640   -1.1510 C.3     8  PHE8        0.1639
     11  C          5.4190  -22.3680   -0.7040 C.2     8  PHE8        0.2290
     12  O          4.8750  -21.4480   -0.1030 O.2     8  PHE8       -0.2864
     13  CB         4.1460  -23.3660   -2.6010 C.3     8  PHE8        0.0560
     14  CG         3.3580  -24.5230   -3.1590 C.ar    8  PHE8       -0.0200
     15  CD1        3.9920  -25.6950   -3.5370 C.ar    8  PHE8       -0.0042
     16  CD2        1.9800  -24.4420   -3.2920 C.ar    8  PHE8       -0.0042
     17  CE1        3.2720  -26.7610   -4.0510 C.ar    8  PHE8       -0.0003
     18  CE2        1.2510  -25.5060   -3.8030 C.ar    8  PHE8       -0.0003
     19  CZ         1.9020  -26.6680   -4.1830 C.ar    8  PHE8       -0.0000
     20  N          6.8010  -18.8980   -1.6320 N.3    10  TYR10      -0.1241
     21  CA         6.3390  -17.9240   -2.6250 C.3    10  TYR10       0.1605
     22  C          7.0800  -16.5990   -2.5040 C.2    10  TYR10       0.2264
     23  O          7.0070  -15.9120   -1.4850 O.2    10  TYR10      -0.2867
     24  CB         4.8270  -17.6980   -2.5080 C.3    10  TYR10       0.0534
     25  CG         4.2530  -16.8210   -3.6000 C.ar   10  TYR10      -0.0201
     26  CD1        4.4350  -17.1440   -4.9410 C.ar   10  TYR10      -0.0009
     27  CD2        3.5010  -15.6950   -3.2950 C.ar   10  TYR10      -0.0009
     28  CE1        3.9100  -16.3530   -5.9470 C.ar   10  TYR10       0.0417
     29  CE2        2.9680  -14.9020   -4.2970 C.ar   10  TYR10       0.0417
     30  CZ         3.1780  -15.2380   -5.6180 C.ar   10  TYR10       0.1957
     31  OH         2.6500  -14.4530   -6.6130 O.3    10  TYR10      -0.2866
     32  N          8.1650  -14.7000   -8.8830 N.3    15  MET15      -0.1245
     33  CA         7.1690  -15.7260   -9.1910 C.3    15  MET15       0.1570
     34  C          5.7940  -15.1380   -9.5180 C.2    15  MET15       0.2261
     35  O          4.9120  -15.8450  -10.0080 O.2    15  MET15      -0.2867
     36  CB         7.0440  -16.7100   -8.0200 C.3    15  MET15       0.0387
     37  CG         8.3300  -17.4670   -7.6850 C.3    15  MET15       0.0595
     38  SD         8.2850  -18.3620   -6.1100 S.3    15  MET15      -0.1393
     39  CE         6.9090  -19.4720   -6.3880 C.3    15  MET15       0.0692
     40  N          3.1880  -12.6390  -11.5750 N.3    17  PRO17      -0.2102
     41  CA         2.9540  -12.0110  -12.8800 C.3    17  PRO17       0.1504
     42  C          2.6070  -10.5310  -12.7870 C.2    17  PRO17       0.2575
     43  O          2.4580   -9.8660  -13.8150 O.2    17  PRO17      -0.2718
     44  CB         1.7650  -12.8030  -13.4360 C.3    17  PRO17       0.0282
     45  CG         1.0320  -13.2660  -12.2220 C.3    17  PRO17       0.0208
     46  CD         2.0990  -13.5630  -11.2070 C.3    17  PRO17       0.0893
     47  N          2.4460  -10.0350  -11.5690 N.am   18  ASN18      -0.1975
     48  CA         2.1370   -8.6310  -11.3430 C.3    18  ASN18       0.1688
     49  C          3.3760   -7.8420  -10.9290 C.2    18  ASN18       0.2292
     50  O          4.0370   -8.1970   -9.9500 O.2    18  ASN18      -0.2864
     51  CB         1.0390   -8.5100  -10.2990 C.3    18  ASN18       0.1181
     52  CG        -0.1250   -9.4210  -10.5930 C.2    18  ASN18       0.2629
     53  OD1       -0.8920   -9.1820  -11.5270 O.2    18  ASN18      -0.2716
     54  ND2       -0.2720  -10.4710   -9.7940 N.am   18  ASN18      -0.0877
     55  N          3.6460   -5.1810   -9.5100 N.3    20  ASP20      -0.1225
     56  CA         3.4180   -4.5910   -8.2030 C.3    20  ASP20       0.1805
     57  C          3.3220   -5.6510   -7.1080 C.2    20  ASP20       0.2598
     58  O          3.1790   -5.3160   -5.9290 O.2    20  ASP20      -0.2718
     59  CB         2.1410   -3.7590   -8.2340 C.3    20  ASP20       0.1424
     60  CG         0.9250   -4.5880   -8.6110 C.2    20  ASP20       0.3668
     61  OD1        1.0180   -5.3710   -9.5810 O.co2  20  ASP20      -0.2456
     62  OD2       -0.1150   -4.4700   -7.9310 O.co2  20  ASP20      -0.2456
     63  N          3.3920   -6.9220   -7.5070 N.am   21  GLY21      -0.1957
     64  CA         3.1910   -8.0480   -6.6050 C.3    21  GLY21       0.1869
     65  C          4.1580   -8.0050   -5.4440 C.2    21  GLY21       0.2309
     66  O          3.9020   -8.5140   -4.3530 O.2    21  GLY21      -0.2863
     67  N          2.3910   -5.5640   -2.9940 N.3    24  GLU24      -0.1231
     68  CA         1.0420   -5.8520   -2.5040 C.3    24  GLU24       0.1699
     69  C          0.7680   -7.3030   -2.1410 C.2    24  GLU24       0.2592
     70  O         -0.2040   -7.5850   -1.4420 O.2    24  GLU24      -0.2718
     71  CB        -0.0050   -5.3680   -3.5110 C.3    24  GLU24       0.0402
     72  CG        -0.0900   -3.8520   -3.5820 C.3    24  GLU24       0.1161
     73  CD        -0.5470   -3.2290   -2.2690 C.2    24  GLU24       0.3649
     74  OE1       -1.1010   -3.9510   -1.4060 O.co2  24  GLU24      -0.2457
     75  OE2       -0.3250   -2.0140   -2.0850 O.co2  24  GLU24      -0.2457
     76  N          1.6050   -8.2250   -2.6030 N.am   25  GLU25      -0.1979
     77  CA         1.3800   -9.6330   -2.3000 C.3    25  GLU25       0.1602
     78  C          2.3230  -10.0600   -1.1840 C.2    25  GLU25       0.2287
     79  O          3.5080   -9.7290   -1.2020 O.2    25  GLU25      -0.2864
     80  CB         1.5920  -10.4940   -3.5480 C.3    25  GLU25       0.0415
     81  CG         0.6990  -10.1010   -4.7260 C.3    25  GLU25       0.1163
     82  CD         1.0990  -10.7670   -6.0300 C.2    25  GLU25       0.3649
     83  OE1        1.9540  -11.6770   -6.0080 O.co2  25  GLU25      -0.2457
     84  OE2        0.5760  -10.3570   -7.0870 O.co2  25  GLU25      -0.2457
     85  N          6.7010  -22.2790    2.6740 N.3    30  GLU30      -0.1245
     86  CA         5.8560  -23.4200    2.9910 C.3    30  GLU30       0.1567
     87  C          5.7610  -23.6200    4.5000 C.2    30  GLU30       0.2260
     88  O          6.7690  -23.6000    5.2130 O.2    30  GLU30      -0.2867
     89  CB         6.4090  -24.6640    2.2870 C.3    30  GLU30       0.0388
     90  CG         7.8700  -24.9290    2.6230 C.3    30  GLU30       0.1160
     91  CD         8.5040  -26.0300    1.7920 C.2    30  GLU30       0.3649
     92  OE1        7.8370  -26.5780    0.8900 O.co2  30  GLU30      -0.2457
     93  OE2        9.6910  -26.3390    2.0350 O.co2  30  GLU30      -0.2457
     94  N        -11.2650  -12.4740   -3.5470 N.3    41  ASP41      -0.1239
     95  CA       -11.7860  -11.4770   -4.4770 C.3    41  ASP41       0.1674
     96  C        -12.0470  -12.0740   -5.8610 C.2    41  ASP41       0.2266
     97  O        -11.7360  -13.2410   -6.1040 O.2    41  ASP41      -0.2867
     98  CB       -10.8300  -10.2830   -4.5570 C.3    41  ASP41       0.1410
     99  CG        -9.4800  -10.6360   -5.1550 C.2    41  ASP41       0.3668
    100  OD1       -9.3070  -11.7450   -5.6980 O.co2  41  ASP41      -0.2456
    101  OD2       -8.5710   -9.7890   -5.0670 O.co2  41  ASP41      -0.2456
    102  N        -10.5880  -11.7120   -8.5120 N.3    43  ASP43      -0.1225
    103  CA        -9.3390  -12.0220   -9.1840 C.3    43  ASP43       0.1805
    104  C         -8.7150  -13.3140   -8.6620 C.2    43  ASP43       0.2598
    105  O         -7.8770  -13.9150   -9.3310 O.2    43  ASP43      -0.2718
    106  CB        -8.3730  -10.8560   -9.0200 C.3    43  ASP43       0.1424
    107  CG        -8.8620   -9.6050   -9.7180 C.2    43  ASP43       0.3668
    108  OD1       -9.7760   -9.7180  -10.5570 O.co2  43  ASP43      -0.2456
    109  OD2       -8.3460   -8.5080   -9.4240 O.co2  43  ASP43      -0.2456
    110  N         -9.1300  -13.7360   -7.4690 N.am   44  GLY44      -0.1942
    111  CA        -8.6520  -14.9700   -6.8630 C.3    44  GLY44       0.2014
    112  C         -7.7340  -14.7960   -5.6650 C.2    44  GLY44       0.2638
    113  O         -7.0860  -15.7440   -5.2140 O.2    44  GLY44      -0.2714
    114  N         -7.7080  -13.5890   -5.1180 N.am   45  PHE45      -0.1973
    115  CA        -6.8410  -13.3010   -3.9860 C.3    45  PHE45       0.1639
    116  C         -7.5790  -13.1320   -2.6710 C.2    45  PHE45       0.2290
    117  O         -8.6710  -12.5660   -2.6080 O.2    45  PHE45      -0.2864
    118  CB        -6.0070  -12.0450   -4.2550 C.3    45  PHE45       0.0560
    119  CG        -4.8220  -12.2770   -5.1480 C.ar   45  PHE45      -0.0200
    120  CD1       -4.9620  -12.4060   -6.5180 C.ar   45  PHE45      -0.0042
    121  CD2       -3.5520  -12.3520   -4.6010 C.ar   45  PHE45      -0.0042
    122  CE1       -3.8500  -12.6170   -7.3240 C.ar   45  PHE45      -0.0003
    123  CE2       -2.4430  -12.5600   -5.3950 C.ar   45  PHE45      -0.0003
    124  CZ        -2.5890  -12.6940   -6.7580 C.ar   45  PHE45      -0.0000
    125  N         -2.0510   -9.1690   -0.3610 N.3    56  TYR56      -0.1241
    126  CA        -2.9300  -10.1020   -1.0530 C.3    56  TYR56       0.1605
    127  C         -2.2890  -11.4850   -1.2240 C.2    56  TYR56       0.2264
    128  O         -1.0690  -11.6040   -1.3620 O.2    56  TYR56      -0.2867
    129  CB        -3.3220   -9.5050   -2.4040 C.3    56  TYR56       0.0534
    130  CG        -4.1240   -8.2310   -2.2530 C.ar   56  TYR56      -0.0201
    131  CD1       -5.4890   -8.2640   -2.0280 C.ar   56  TYR56      -0.0009
    132  CD2       -3.4990   -6.9960   -2.2720 C.ar   56  TYR56      -0.0009
    133  CE1       -6.2120   -7.1020   -1.8700 C.ar   56  TYR56       0.0417
    134  CE2       -4.2140   -5.8320   -2.1100 C.ar   56  TYR56       0.0417
    135  CZ        -5.5690   -5.8890   -1.9100 C.ar   56  TYR56       0.1957
    136  OH        -6.2810   -4.7230   -1.7530 O.3    56  TYR56      -0.2866
    137  N         -2.4890  -15.2490   -3.2490 N.3    58  PRO58      -0.2102
    138  CA        -3.0340  -16.1100   -4.3000 C.3    58  PRO58       0.1504
    139  C         -3.5340  -17.4200   -3.6970 C.2    58  PRO58       0.2576
    140  O         -2.8120  -18.0600   -2.9300 O.2    58  PRO58      -0.2718
    141  CB        -1.8400  -16.3490   -5.2260 C.3    58  PRO58       0.0282
    142  CG        -0.6330  -16.1000   -4.3790 C.3    58  PRO58       0.0208
    143  CD        -1.0290  -15.0740   -3.3610 C.3    58  PRO58       0.0893
    144  N         -4.7480  -17.8180   -4.0520 N.am   59  HIS59      -0.1962
    145  CA        -5.4030  -18.9440   -3.4030 C.3    59  HIS59       0.1787
    146  C         -4.7600  -20.2820   -3.7500 C.2    59  HIS59       0.2620
    147  O         -4.8640  -21.2420   -2.9840 O.2    59  HIS59      -0.2715
    148  CB        -6.8820  -18.9730   -3.7820 C.3    59  HIS59       0.0785
    149  CG        -7.1480  -19.6190   -5.1000 C.ar   59  HIS59       0.0821
    150  ND1       -7.5300  -20.9320   -5.2300 N.ar   59  HIS59      -0.2267
    151  CD2       -7.0860  -19.1210   -6.3670 C.ar   59  HIS59       0.1154
    152  CE1       -7.6920  -21.2250   -6.5070 C.ar   59  HIS59       0.1986
    153  NE2       -7.4280  -20.1420   -7.2160 N.ar   59  HIS59      -0.2212
    154  N         -4.1070  -20.3480   -4.9070 N.am   60  ASN60      -0.1958
    155  CA        -3.5480  -21.6070   -5.3890 C.3    60  ASN60       0.1819
    156  C         -2.2310  -21.9710   -4.7130 C.2    60  ASN60       0.2621
    157  O         -1.6000  -22.9660   -5.0690 O.2    60  ASN60      -0.2715
    158  CB        -3.3430  -21.5440   -6.9050 C.3    60  ASN60       0.1195
    159  CG        -2.5200  -20.3410   -7.3390 C.2    60  ASN60       0.2630
    160  OD1       -2.5250  -19.2940   -6.6850 O.2    60  ASN60      -0.2716
    161  ND2       -1.8060  -20.4880   -8.4490 N.am   60  ASN60      -0.0877
    162  N         -1.8300  -21.1720   -3.7280 N.am   61  MET61      -0.1977
    163  CA        -0.5640  -21.3860   -3.0330 C.3    61  MET61       0.1605
    164  C         -0.7740  -21.6810   -1.5430 C.2    61  MET61       0.2287
    165  O          0.1570  -22.0730   -0.8390 O.2    61  MET61      -0.2864
    166  CB         0.3390  -20.1680   -3.2150 C.3    61  MET61       0.0413
    167  CG         0.7870  -19.9390   -4.6570 C.3    61  MET61       0.0598
    168  SD         2.2120  -20.9480   -5.0990 S.3    61  MET61      -0.1393
    169  CE         2.6370  -20.2110   -6.6720 C.3    61  MET61       0.0692
@<TRIPOS>BOND
     1    43    42    2
     2    44    41    1
     3    44    45    1
     4    41    42    1
     5    41    40    1
     6    42    47   am
     7    45    46    1
     8    40    46    1
     9    47    48    1
    10    53    52    2
    11    48    49    1
    12    48    51    1
    13    49    50    2
    14    52    51    1
    15    52    54   am
    16   108   107   ar
    17    35    34    2
    18   107   109   ar
    19   107   106    1
    20    61    60   ar
    21    34    33    1
    22    55    56    1
    23   105   104    2
    24    33    32    1
    25    33    36    1
    26   103   106    1
    27   103   104    1
    28   103   102    1
    29   104   110   am
    30    60    59    1
    31    60    62   ar
    32   161   159   am
    33    59    56    1
    34    56    57    1
    35    36    37    1
    36    37    38    1
    37    63    57   am
    38    63    64    1
    39   110   111    1
    40   159   158    1
    41   159   160    2
    42   122   124   ar
    43   122   120   ar
    44   153   152   ar
    45   153   151   ar
    46    57    58    2
    47    84    82   ar
    48   158   155    1
    49   111   112    1
    50   124   123   ar
    51   169   168    1
    52    31    30    1
    53    64    65    1
    54   120   119   ar
    55   152   150   ar
    56    39    38    1
    57   151   149   ar
    58    97    96    2
    59    82    83   ar
    60    82    81    1
    61    28    30   ar
    62    28    26   ar
    63    96    95    1
    64   100    99   ar
    65   112   113    2
    66   112   114   am
    67    30    29   ar
    68    65    66    2
    69   123   121   ar
    70   155   154    1
    71   155   156    1
    72   150   149   ar
    73   141   142    1
    74   141   138    1
    75    99   101   ar
    76    99    98    1
    77   119   121   ar
    78   119   118    1
    79   114   115    1
    80   149   148    1
    81   168   167    1
    82   157   156    2
    83    26    25   ar
    84   154   146   am
    85    81    80    1
    86   156   162   am
    87   167   166    1
    88    98    95    1
    89    95    94    1
    90   142   143    1
    91   138   139    1
    92   138   137    1
    93    29    27   ar
    94   118   115    1
    95    19    17   ar
    96    19    18   ar
    97   144   139   am
    98   144   145    1
    99    17    15   ar
   100   115   116    1
   101    18    16   ar
   102   148   145    1
   103   146   145    1
   104   146   147    2
   105   162   163    1
   106   139   140    2
   107    25    27   ar
   108    25    24    1
   109    72    71    1
   110    72    73    1
   111    80    77    1
   112    15    14   ar
   113    71    68    1
   114   143   137    1
   115    16    14   ar
   116   166   163    1
   117    14    13    1
   118   163   164    1
   119    67    68    1
   120   116   117    2
   121    21    24    1
   122    21    22    1
   123    21    20    1
   124    76    77    1
   125    76    69   am
   126    13    10    1
   127    22    23    2
   128    68    69    1
   129   129   130    1
   130   129   126    1
   131    77    78    1
   132   132   130   ar
   133   132   134   ar
   134    73    75   ar
   135    73    74   ar
   136   130   131   ar
   137    69    70    2
   138   134   135   ar
   139   131   133   ar
   140   135   133   ar
   141   135   136    1
   142   164   165    2
   143     8     7    1
   144   128   127    2
   145   127   126    1
   146    79    78    2
   147    10    11    1
   148    10     9    1
   149   126   125    1
   150     7     6    1
   151    11    12    2
   152     9     3   am
   153     4     3    2
   154     5     6    1
   155     5     2    1
   156     3     2    1
   157     2     1    1
   158    92    91   ar
   159    91    93   ar
   160    91    90    1
   161    89    90    1
   162    89    86    1
   163    85    86    1
   164    86    87    1
   165    87    88    2
