@<TRIPOS>MOLECULE
tmp/4z89I00.pdb
 155 154 0 0 0
SMALL
GASTEIGER

@<TRIPOS>ATOM
      1  N        -30.3680  -23.8670  -20.3150 N.3     8  PHE8       -0.1241
      2  CA       -31.4870  -23.6990  -19.3980 C.3     8  PHE8        0.1605
      3  C        -32.3280  -22.5270  -19.8500 C.2     8  PHE8        0.2264
      4  O        -31.8190  -21.6230  -20.5040 O.2     8  PHE8       -0.2867
      5  CB       -30.9920  -23.4580  -17.9710 C.3     8  PHE8        0.0534
      6  CG       -29.9920  -24.4680  -17.4980 C.ar    8  PHE8       -0.0203
      7  CD1      -30.4020  -25.6350  -16.8810 C.ar    8  PHE8       -0.0042
      8  CD2      -28.6320  -24.2360  -17.6500 C.ar    8  PHE8       -0.0042
      9  CE1      -29.4760  -26.5620  -16.4410 C.ar    8  PHE8       -0.0003
     10  CE2      -27.7020  -25.1560  -17.2070 C.ar    8  PHE8       -0.0003
     11  CZ       -28.1230  -26.3200  -16.6010 C.ar    8  PHE8       -0.0000
     12  N        -33.8160  -19.0060  -19.1320 N.3    10  TYR10      -0.1241
     13  CA       -33.4060  -17.9400  -18.2310 C.3    10  TYR10       0.1605
     14  C        -34.2500  -16.7090  -18.4820 C.2    10  TYR10       0.2264
     15  O        -34.2210  -16.1140  -19.5630 O.2    10  TYR10      -0.2867
     16  CB       -31.9190  -17.6120  -18.3920 C.3    10  TYR10       0.0534
     17  CG       -31.3960  -16.6120  -17.3810 C.ar   10  TYR10      -0.0201
     18  CD1      -31.5180  -16.8480  -16.0200 C.ar   10  TYR10      -0.0009
     19  CD2      -30.7720  -15.4420  -17.7850 C.ar   10  TYR10      -0.0009
     20  CE1      -31.0430  -15.9430  -15.0890 C.ar   10  TYR10       0.0417
     21  CE2      -30.2910  -14.5310  -16.8560 C.ar   10  TYR10       0.0417
     22  CZ       -30.4310  -14.7890  -15.5110 C.ar   10  TYR10       0.1957
     23  OH       -29.9590  -13.8990  -14.5720 O.3    10  TYR10      -0.2866
     24  N        -35.5920  -14.6570  -12.3880 N.3    15  MET15      -0.1245
     25  CA       -34.5220  -15.5880  -12.0370 C.3    15  MET15       0.1570
     26  C        -33.2100  -14.9030  -11.6820 C.2    15  MET15       0.2261
     27  O        -32.2720  -15.5580  -11.2320 O.2    15  MET15      -0.2867
     28  CB       -34.2600  -16.5740  -13.1740 C.3    15  MET15       0.0387
     29  CG       -35.4440  -17.4380  -13.5500 C.3    15  MET15       0.0595
     30  SD       -35.1160  -18.3480  -15.0670 S.3    15  MET15      -0.1393
     31  CE       -33.6820  -19.3100  -14.5770 C.3    15  MET15       0.0692
     32  N        -30.6850  -12.3240   -9.6000 N.3    17  PRO17      -0.2102
     33  CA       -30.4560  -11.6620   -8.3150 C.3    17  PRO17       0.1504
     34  C        -30.1900  -10.1800   -8.5140 C.2    17  PRO17       0.2576
     35  O        -30.0720   -9.4220   -7.5510 O.2    17  PRO17      -0.2718
     36  CB       -29.2170  -12.3760   -7.7660 C.3    17  PRO17       0.0282
     37  CG       -28.4940  -12.8310   -8.9730 C.3    17  PRO17       0.0208
     38  CD       -29.5600  -13.2050   -9.9650 C.3    17  PRO17       0.0893
     39  N        -30.1090   -9.7810   -9.7770 N.am   18  ASN18      -0.1961
     40  CA       -29.8420   -8.4020  -10.1380 C.3    18  ASN18       0.1804
     41  C        -31.1340   -7.6670  -10.4560 C.2    18  ASN18       0.2463
     42  O        -31.8620   -8.0420  -11.3790 O.2    18  ASN18      -0.2730
     43  CB       -28.8940   -8.3510  -11.3340 C.3    18  ASN18       0.1195
     44  CG       -27.7150   -9.2940  -11.1790 C.2    18  ASN18       0.2630
     45  OD1      -27.1150   -9.3900  -10.1030 O.2    18  ASN18      -0.2716
     46  ND2      -27.3830  -10.0070  -12.2500 N.am   18  ASN18      -0.0877
     47  N        -31.4100   -6.5980   -9.6950 N.am   19  PRO19      -0.2716
     48  CA       -32.6330   -5.7940   -9.8030 C.3    19  PRO19       0.1536
     49  C        -32.7230   -5.0870  -11.1460 C.2    19  PRO19       0.2598
     50  O        -33.7940   -4.6260  -11.5480 O.2    19  PRO19      -0.2715
     51  CB       -32.4920   -4.7850   -8.6560 C.3    19  PRO19       0.0310
     52  CG       -31.0160   -4.7000   -8.4130 C.3    19  PRO19       0.0237
     53  CD       -30.4920   -6.0770   -8.6660 C.3    19  PRO19       0.0939
     54  N        -31.5800   -5.0070  -11.8170 N.am   20  ASP20      -0.1972
     55  CA       -31.4520   -4.4110  -13.1380 C.3    20  ASP20       0.1709
     56  C        -31.4940   -5.4680  -14.2460 C.2    20  ASP20       0.2293
     57  O        -31.3730   -5.1470  -15.4310 O.2    20  ASP20      -0.2864
     58  CB       -30.1540   -3.6050  -13.2080 C.3    20  ASP20       0.1436
     59  CG       -28.9240   -4.4540  -12.9200 C.2    20  ASP20       0.3671
     60  OD1      -28.9670   -5.2630  -11.9710 O.co2  20  ASP20      -0.2456
     61  OD2      -27.9150   -4.3110  -13.6400 O.co2  20  ASP20      -0.2456
     62  N        -30.5780   -5.4670  -18.4960 N.3    24  GLU24      -0.1231
     63  CA       -29.1380   -5.5960  -18.7420 C.3    24  GLU24       0.1699
     64  C        -28.6920   -7.0170  -19.1060 C.2    24  GLU24       0.2592
     65  O        -27.6300   -7.2000  -19.7080 O.2    24  GLU24      -0.2718
     66  CB       -28.3590   -5.1140  -17.5120 C.3    24  GLU24       0.0402
     67  CG       -28.4380   -3.6100  -17.2750 C.3    24  GLU24       0.1161
     68  CD       -27.7910   -2.7950  -18.3840 C.2    24  GLU24       0.3649
     69  OE1      -26.9720   -3.3500  -19.1510 O.co2  24  GLU24      -0.2457
     70  OE2      -28.1210   -1.5970  -18.5040 O.co2  24  GLU24      -0.2457
     71  N        -29.4970   -8.0160  -18.7480 N.am   25  GLU25      -0.1979
     72  CA       -29.1770   -9.4100  -19.0640 C.3    25  GLU25       0.1602
     73  C        -30.0670   -9.9640  -20.1720 C.2    25  GLU25       0.2287
     74  O        -31.2710   -9.7160  -20.1850 O.2    25  GLU25      -0.2864
     75  CB       -29.2930  -10.2990  -17.8220 C.3    25  GLU25       0.0415
     76  CG       -28.3940   -9.8930  -16.6630 C.3    25  GLU25       0.1163
     77  CD       -28.6990  -10.6580  -15.3900 C.2    25  GLU25       0.3649
     78  OE1      -29.4830  -11.6270  -15.4460 O.co2  25  GLU25      -0.2457
     79  OE2      -28.1540  -10.2840  -14.3310 O.co2  25  GLU25      -0.2457
     80  N        -16.3180  -11.8270  -18.0060 N.3    41  ASP41      -0.1239
     81  CA       -15.6860  -10.7300  -17.2840 C.3    41  ASP41       0.1674
     82  C        -15.3650  -11.0710  -15.8360 C.2    41  ASP41       0.2266
     83  O        -15.3970  -12.2320  -15.4250 O.2    41  ASP41      -0.2867
     84  CB       -16.5890   -9.4920  -17.3160 C.3    41  ASP41       0.1410
     85  CG       -17.9870   -9.7700  -16.7810 C.2    41  ASP41       0.3668
     86  OD1      -18.2000  -10.8190  -16.1350 O.co2  41  ASP41      -0.2456
     87  OD2      -18.8810   -8.9260  -16.9910 O.co2  41  ASP41      -0.2456
     88  N        -17.1330  -10.6130  -13.2570 N.3    43  ASP43      -0.1225
     89  CA       -18.2740  -11.1540  -12.5210 C.3    43  ASP43       0.1805
     90  C        -18.6070  -12.5740  -12.9550 C.2    43  ASP43       0.2598
     91  O        -19.1900  -13.3340  -12.1940 O.2    43  ASP43      -0.2718
     92  CB       -19.5100  -10.2620  -12.6720 C.3    43  ASP43       0.1424
     93  CG       -19.3450   -8.9110  -11.9980 C.2    43  ASP43       0.3668
     94  OD1      -19.3960   -8.8590  -10.7510 O.co2  43  ASP43      -0.2456
     95  OD2      -19.1990   -7.8930  -12.7060 O.co2  43  ASP43      -0.2456
     96  N        -18.1910  -12.9460  -14.1590 N.am   44  GLY44      -0.1942
     97  CA       -18.4580  -14.2790  -14.6680 C.3    44  GLY44       0.2014
     98  C        -19.4810  -14.2570  -15.7860 C.2    44  GLY44       0.2638
     99  O        -20.0220  -15.2930  -16.1790 O.2    44  GLY44      -0.2714
    100  N        -19.7070  -13.0720  -16.3400 N.am   45  PHE45      -0.1973
    101  CA       -20.6950  -12.9150  -17.3940 C.3    45  PHE45       0.1639
    102  C        -20.0170  -12.7730  -18.7400 C.2    45  PHE45       0.2290
    103  O        -18.9890  -12.1150  -18.8680 O.2    45  PHE45      -0.2864
    104  CB       -21.5960  -11.6910  -17.1640 C.3    45  PHE45       0.0560
    105  CG       -22.6880  -11.8920  -16.1390 C.ar   45  PHE45      -0.0200
    106  CD1      -22.4340  -11.8250  -14.7780 C.ar   45  PHE45      -0.0042
    107  CD2      -23.9840  -12.1380  -16.5570 C.ar   45  PHE45      -0.0042
    108  CE1      -23.4630  -12.0010  -13.8590 C.ar   45  PHE45      -0.0003
    109  CE2      -25.0120  -12.3160  -15.6470 C.ar   45  PHE45      -0.0003
    110  CZ       -24.7560  -12.2480  -14.2990 C.ar   45  PHE45      -0.0000
    111  N        -25.8050   -9.1410  -20.7970 N.3    56  TYR56      -0.1241
    112  CA       -24.8840  -10.0220  -20.0910 C.3    56  TYR56       0.1605
    113  C        -25.4530  -11.4290  -19.9480 C.2    56  TYR56       0.2264
    114  O        -26.6610  -11.6120  -19.8000 O.2    56  TYR56      -0.2867
    115  CB       -24.5360   -9.4270  -18.7290 C.3    56  TYR56       0.0534
    116  CG       -23.7600   -8.1340  -18.8480 C.ar   56  TYR56      -0.0201
    117  CD1      -22.3920   -8.1450  -19.0710 C.ar   56  TYR56      -0.0009
    118  CD2      -24.3990   -6.9050  -18.7620 C.ar   56  TYR56      -0.0009
    119  CE1      -21.6760   -6.9720  -19.1910 C.ar   56  TYR56       0.0417
    120  CE2      -23.6900   -5.7240  -18.8820 C.ar   56  TYR56       0.0417
    121  CZ       -22.3270   -5.7650  -19.0970 C.ar   56  TYR56       0.1957
    122  OH       -21.6030   -4.6000  -19.2160 O.3    56  TYR56      -0.2866
    123  N        -24.8870  -15.1730  -17.9840 N.3    58  PRO58      -0.2102
    124  CA       -24.2760  -15.9650  -16.9050 C.3    58  PRO58       0.1504
    125  C        -23.6400  -17.2660  -17.4080 C.2    58  PRO58       0.2576
    126  O        -24.2480  -17.9610  -18.2240 O.2    58  PRO58      -0.2718
    127  CB       -25.4550  -16.2560  -15.9680 C.3    58  PRO58       0.0282
    128  CG       -26.6760  -16.1080  -16.8130 C.3    58  PRO58       0.0208
    129  CD       -26.3560  -15.0920  -17.8640 C.3    58  PRO58       0.0893
    130  N        -22.4210  -17.5640  -16.9590 N.am   59  HIS59      -0.1962
    131  CA       -21.6650  -18.6970  -17.4920 C.3    59  HIS59       0.1787
    132  C        -22.2540  -20.0280  -17.0250 C.2    59  HIS59       0.2620
    133  O        -22.1150  -21.0480  -17.7010 O.2    59  HIS59      -0.2715
    134  CB       -20.1880  -18.6150  -17.0850 C.3    59  HIS59       0.0785
    135  CG       -19.8960  -19.1760  -15.7260 C.ar   59  HIS59       0.0821
    136  ND1      -19.9870  -18.4350  -14.5770 N.ar   59  HIS59      -0.2267
    137  CD2      -19.5010  -20.4220  -15.3470 C.ar   59  HIS59       0.1154
    138  CE1      -19.6680  -19.1960  -13.5310 C.ar   59  HIS59       0.1986
    139  NE2      -19.3740  -20.3970  -13.9820 N.ar   59  HIS59      -0.2212
    140  N        -22.9160  -20.0120  -15.8710 N.am   60  ASN60      -0.1958
    141  CA       -23.4410  -21.2330  -15.2640 C.3    60  ASN60       0.1819
    142  C        -24.7390  -21.6980  -15.9150 C.2    60  ASN60       0.2621
    143  O        -25.3710  -22.6540  -15.4630 O.2    60  ASN60      -0.2715
    144  CB       -23.6650  -21.0160  -13.7650 C.3    60  ASN60       0.1195
    145  CG       -24.5210  -19.7920  -13.4750 C.2    60  ASN60       0.2630
    146  OD1      -24.5300  -18.8270  -14.2440 O.2    60  ASN60      -0.2716
    147  ND2      -25.2380  -19.8230  -12.3560 N.am   60  ASN60      -0.0877
    148  N        -25.1350  -21.0050  -16.9740 N.am   61  MET61      -0.1977
    149  CA       -26.3730  -21.3060  -17.6710 C.3    61  MET61       0.1605
    150  C        -26.1320  -21.6640  -19.1390 C.2    61  MET61       0.2287
    151  O        -27.0310  -22.1420  -19.8290 O.2    61  MET61      -0.2864
    152  CB       -27.3140  -20.1060  -17.5730 C.3    61  MET61       0.0413
    153  CG       -27.7850  -19.7840  -16.1630 C.3    61  MET61       0.0598
    154  SD       -29.1850  -20.7910  -15.6540 S.3    61  MET61      -0.1393
    155  CE       -29.6630  -19.9500  -14.1440 C.3    61  MET61       0.0692
@<TRIPOS>BOND
     1   111   112    1
     2     4     3    2
     3     1     2    1
     4    74    73    2
     5    73    72    1
     6   112   113    1
     7   112   115    1
     8   113   114    2
     9     3     2    1
    10   151   150    2
    11    65    64    2
    12    15    14    2
    13     2     5    1
    14   122   121    1
    15   119   121   ar
    16   119   117   ar
    17    69    68   ar
    18   150   149    1
    19    12    13    1
    20    64    71   am
    21    64    63    1
    22   121   120   ar
    23   117   116   ar
    24    72    71    1
    25    72    75    1
    26   120   118   ar
    27   103   102    2
    28   116   118   ar
    29   116   115    1
    30    63    62    1
    31    63    66    1
    32   102   101    1
    33    70    68   ar
    34    14    13    1
    35    16    13    1
    36    16    17    1
    37    68    67    1
    38   126   125    2
    39    80    81    1
    40   123   129    1
    41   123   124    1
    42     5     6    1
    43   129   128    1
    44    75    76    1
    45    19    17   ar
    46    19    21   ar
    47   133   132    2
    48   149   152    1
    49   149   148    1
    50     8     6   ar
    51     8    10   ar
    52   152   153    1
    53    66    67    1
    54     6     7   ar
    55   131   134    1
    56   131   132    1
    57   131   130    1
    58   125   130   am
    59   125   124    1
    60   101   104    1
    61   101   100    1
    62    17    18   ar
    63    84    81    1
    64    84    85    1
    65    81    82    1
    66    10    11   ar
    67   104   105    1
    68   134   135    1
    69   132   140   am
    70    87    85   ar
    71   148   142   am
    72   124   127    1
    73     7     9   ar
    74    21    22   ar
    75   128   127    1
    76    85    86   ar
    77    76    77    1
    78    11     9   ar
    79   107   105   ar
    80   107   109   ar
    81   100    98   am
    82    99    98    2
    83   153   154    1
    84   105   106   ar
    85    18    20   ar
    86   142   143    2
    87   142   141    1
    88   140   141    1
    89    82    83    2
    90    98    97    1
    91   135   137   ar
    92   135   136   ar
    93   154   155    1
    94   109   110   ar
    95    22    20   ar
    96    22    23    1
    97    78    77   ar
    98    57    56    2
    99    77    79   ar
   100   137   139   ar
   101   141   144    1
   102    30    31    1
   103    30    29    1
   104   106   108   ar
   105    97    96    1
   106   136   138   ar
   107   110   108   ar
   108    56    55    1
   109   146   145    2
   110    96    90   am
   111   139   138   ar
   112   144   145    1
   113    61    59   ar
   114    29    28    1
   115   145   147   am
   116    88    89    1
   117    58    55    1
   118    58    59    1
   119    28    25    1
   120    55    54    1
   121    90    89    1
   122    90    91    2
   123    59    60   ar
   124    95    93   ar
   125    92    89    1
   126    92    93    1
   127    24    25    1
   128    46    44   am
   129    25    26    1
   130    93    94   ar
   131    54    49   am
   132    26    27    2
   133    50    49    2
   134    42    41    2
   135    43    44    1
   136    43    40    1
   137    44    45    2
   138    49    48    1
   139    41    40    1
   140    41    47   am
   141    40    39    1
   142    38    32    1
   143    38    37    1
   144    48    47    1
   145    48    51    1
   146    39    34   am
   147    47    53    1
   148    32    33    1
   149    37    36    1
   150    53    52    1
   151    51    52    1
   152    34    33    1
   153    34    35    2
   154    33    36    1
