@<TRIPOS>MOLECULE
tmp/4z8fA00.pdb
 119 116 0 0 0
SMALL
GASTEIGER

@<TRIPOS>ATOM
      1  N         33.4730  -37.4220  -28.0300 N.3    31  THR31      -0.1203
      2  CA        33.4400  -36.4130  -29.0920 C.3    31  THR31       0.1994
      3  C         33.2700  -34.9790  -28.5710 C.2    31  THR31       0.2618
      4  O         33.3160  -34.0630  -29.3800 O.2    31  THR31      -0.2717
      5  CB        32.3520  -36.6900  -30.1500 C.3    31  THR31       0.1784
      6  OG1       31.0790  -36.5240  -29.5700 O.3    31  THR31      -0.2211
      7  CG2       32.4540  -38.0750  -30.7120 C.3    31  THR31       0.0376
      8  N         33.0980  -34.7830  -27.2560 N.am   32  TYR32      -0.1961
      9  CA        32.7410  -33.4600  -26.6810 C.3    32  TYR32       0.1771
     10  C         33.8360  -32.9160  -25.7980 C.2    32  TYR32       0.2619
     11  O         34.5000  -33.6820  -25.0850 O.2    32  TYR32      -0.2715
     12  CB        31.4520  -33.5420  -25.8750 C.3    32  TYR32       0.0574
     13  CG        30.2570  -33.7660  -26.7350 C.ar   32  TYR32      -0.0198
     14  CD1       29.5820  -32.6880  -27.3270 C.ar   32  TYR32      -0.0009
     15  CD2       29.7910  -35.0420  -26.9780 C.ar   32  TYR32      -0.0009
     16  CE1       28.4780  -32.8930  -28.1260 C.ar   32  TYR32       0.0417
     17  CE2       28.7000  -35.2550  -27.7880 C.ar   32  TYR32       0.0417
     18  CZ        28.0510  -34.1760  -28.3750 C.ar   32  TYR32       0.1957
     19  OH        26.9390  -34.3880  -29.1880 O.3    32  TYR32      -0.2866
     20  N         34.0020  -31.5900  -25.8470 N.am   33  ALA33      -0.1977
     21  CA        34.7280  -30.8740  -24.7980 C.3    33  ALA33       0.1597
     22  C         33.9150  -30.9320  -23.5230 C.2    33  ALA33       0.2287
     23  O         32.6810  -31.0510  -23.5540 O.2    33  ALA33      -0.2864
     24  CB        34.9920  -29.4270  -25.2180 C.3    33  ALA33       0.0319
     25  N         38.3940  -26.1520  -18.9500 N.3    50  ARG50      -0.1245
     26  CA        37.9230  -26.9250  -20.1080 C.3    50  ARG50       0.1563
     27  C         38.9730  -27.9020  -20.5950 C.2    50  ARG50       0.2260
     28  O         40.1810  -27.6300  -20.5480 O.2    50  ARG50      -0.2867
     29  CB        37.5400  -25.9720  -21.2410 C.3    50  ARG50       0.0307
     30  CG        36.9310  -26.6470  -22.4410 C.3    50  ARG50       0.0489
     31  CD        37.4730  -25.9670  -23.6900 C.3    50  ARG50       0.2205
     32  NE        36.5840  -26.1820  -24.8150 N.pl3  50  ARG50      -0.0865
     33  CZ        36.8260  -25.7490  -26.0410 C.cat  50  ARG50       0.5346
     34  NH1       35.9530  -26.0040  -26.9850 N.pl3  50  ARG50       0.1354
     35  NH2       37.9320  -25.0490  -26.3110 N.pl3  50  ARG50       0.1354
     36  N         39.3880  -30.3220  -24.1180 N.3    52  ARG52      -0.1231
     37  CA        38.8270  -30.6840  -25.4110 C.3    52  ARG52       0.1694
     38  C         38.8770  -32.1900  -25.6570 C.2    52  ARG52       0.2592
     39  O         39.4220  -32.9520  -24.8700 O.2    52  ARG52      -0.2718
     40  CB        39.5680  -29.9410  -26.5140 C.3    52  ARG52       0.0321
     41  CG        39.4690  -28.4390  -26.3760 C.3    52  ARG52       0.0489
     42  CD        40.1110  -27.7270  -27.5610 C.3    52  ARG52       0.2205
     43  NE        39.2340  -27.7550  -28.7150 N.pl3  52  ARG52      -0.0865
     44  CZ        39.5320  -27.1980  -29.8880 C.cat  52  ARG52       0.5346
     45  NH1       40.6870  -26.5620  -30.0430 N.pl3  52  ARG52       0.1354
     46  NH2       38.6900  -27.2700  -30.8900 N.pl3  52  ARG52       0.1354
     47  N         38.2720  -32.6310  -26.7640 N.am   53  SER53      -0.1952
     48  CA        38.2480  -34.0360  -27.1050 C.3    53  SER53       0.1924
     49  C         39.6220  -34.5530  -27.5280 C.2    53  SER53       0.2314
     50  O         40.5680  -33.7860  -27.7690 O.2    53  SER53      -0.2863
     51  CB        37.2500  -34.2520  -28.2600 C.3    53  SER53       0.2116
     52  OG        37.8300  -33.6790  -29.4190 O.3    53  SER53      -0.2180
     53  N         40.2320  -35.7690  -30.3390 N.3    55  SER55      -0.1202
     54  CA        40.5010  -35.3310  -31.7080 C.3    55  SER55       0.2020
     55  C         41.2440  -33.9690  -31.6920 C.2    55  SER55       0.2618
     56  O         41.9760  -33.6510  -32.6280 O.2    55  SER55      -0.2717
     57  CB        39.2160  -35.3080  -32.5670 C.3    55  SER55       0.2103
     58  OG        38.4320  -34.1700  -32.3040 O.3    55  SER55      -0.2182
     59  N         41.0850  -33.2180  -30.6070 N.am   56  ASN56      -0.1974
     60  CA        41.7340  -31.9220  -30.4140 C.3    56  ASN56       0.1688
     61  C         42.8330  -32.0140  -29.3570 C.2    56  ASN56       0.2292
     62  O         43.1790  -31.0110  -28.6990 O.2    56  ASN56      -0.2864
     63  CB        40.6950  -30.8670  -30.0340 C.3    56  ASN56       0.1181
     64  CG        39.7340  -30.5520  -31.1730 C.2    56  ASN56       0.2629
     65  OD1       40.1650  -30.2080  -32.2590 O.2    56  ASN56      -0.2716
     66  ND2       38.4270  -30.6980  -30.9320 N.am   56  ASN56      -0.0877
     67  N         30.2460  -29.4270  -23.0080 N.3   101  HIS101     -0.1226
     68  CA        30.3030  -28.3220  -23.9540 C.3   101  HIS101      0.1752
     69  C         29.2670  -28.4580  -25.0670 C.2   101  HIS101      0.2596
     70  O         28.7230  -29.5480  -25.3200 O.2   101  HIS101     -0.2718
     71  CB        31.6890  -28.2720  -24.5850 C.3   101  HIS101      0.0759
     72  CG        32.1730  -26.9060  -24.9050 C.ar  101  HIS101      0.0818
     73  ND1       32.5320  -25.9920  -23.9330 N.ar  101  HIS101     -0.2268
     74  CD2       32.4550  -26.3190  -26.0940 C.ar  101  HIS101      0.1154
     75  CE1       32.9900  -24.9010  -24.5120 C.ar  101  HIS101      0.1986
     76  NE2       32.9590  -25.0730  -25.8200 N.ar  101  HIS101     -0.2212
     77  N         28.9560  -27.3340  -25.7120 N.am  102  ARG102     -0.1966
     78  CA        28.1280  -27.3880  -26.9140 C.3   102  ARG102      0.1729
     79  C         28.7930  -28.2720  -27.9710 C.2   102  ARG102      0.2617
     80  O         30.0120  -28.4410  -27.9910 O.2   102  ARG102     -0.2715
     81  CB        27.9050  -25.9990  -27.4800 C.3   102  ARG102      0.0348
     82  CG        29.1430  -25.2340  -27.8890 C.3   102  ARG102      0.0492
     83  CD        29.2400  -25.0790  -29.4120 C.3   102  ARG102      0.2205
     84  NE        30.5110  -24.4670  -29.7510 N.pl3 102  ARG102     -0.0865
     85  CZ        31.6710  -25.1010  -29.8490 C.cat 102  ARG102      0.5346
     86  NH1       31.7440  -26.4060  -29.6620 N.pl3 102  ARG102      0.1354
     87  NH2       32.7840  -24.4200  -30.1300 N.pl3 102  ARG102      0.1354
     88  N         27.9750  -28.8070  -28.8740 N.am  103  GLY103     -0.1940
     89  CA        28.4830  -29.6920  -29.9260 C.3   103  GLY103      0.2014
     90  C         29.1110  -28.9990  -31.1130 C.2   103  GLY103      0.2639
     91  O         29.7410  -27.9290  -30.9950 O.2   103  GLY103     -0.2714
     92  N         28.9240  -29.6110  -32.2820 N.am  104  ALA104     -0.1963
     93  CA        29.6160  -29.2080  -33.4850 C.3   104  ALA104      0.1713
     94  C         29.4060  -27.7200  -33.7640 C.2   104  ALA104      0.2458
     95  O         28.2720  -27.2750  -33.9480 O.2   104  ALA104     -0.2730
     96  CB        29.1310  -30.0340  -34.6680 C.3   104  ALA104      0.0333
     97  N         30.4930  -26.9520  -33.8250 N.am  105  PRO105     -0.2716
     98  CA        30.2710  -25.5350  -34.0470 C.3   105  PRO105      0.1536
     99  C         29.7130  -25.1570  -35.4340 C.2   105  PRO105      0.2598
    100  O         29.1170  -24.0920  -35.5690 O.2   105  PRO105     -0.2715
    101  CB        31.6380  -24.9030  -33.8140 C.3   105  PRO105      0.0310
    102  CG        32.6190  -26.0260  -33.7960 C.3   105  PRO105      0.0237
    103  CD        31.8730  -27.2560  -33.4170 C.3   105  PRO105      0.0939
    104  N         29.8910  -26.0000  -36.4430 N.am  106  LEU106     -0.1978
    105  CA        29.2240  -25.7190  -37.7260 C.3   106  LEU106      0.1596
    106  C         27.7020  -25.5700  -37.5720 C.2   106  LEU106      0.2287
    107  O         27.0910  -24.7700  -38.2830 O.2   106  LEU106     -0.2864
    108  CB        29.5500  -26.7880  -38.7530 C.3   106  LEU106      0.0297
    109  CG        30.9840  -26.6440  -39.2750 C.3   106  LEU106      0.0022
    110  CD1       31.3030  -27.8380  -40.1540 C.3   106  LEU106      0.0001
    111  CD2       31.1990  -25.3190  -40.0110 C.3   106  LEU106      0.0001
    112  N         30.4780  -21.0180  -33.2720 N.3   110  ASN110     -0.1240
    113  CA        31.8090  -21.1370  -32.7070 C.3   110  ASN110      0.1653
    114  C         31.8800  -20.8310  -31.2110 C.2   110  ASN110      0.2266
    115  O         32.6590  -21.4310  -30.4730 O.2   110  ASN110     -0.2867
    116  CB        32.8110  -20.2410  -33.4430 C.3   110  ASN110      0.1155
    117  CG        33.2370  -20.8230  -34.7750 C.2   110  ASN110      0.2627
    118  OD1       33.3800  -22.0360  -34.9090 O.2   110  ASN110     -0.2716
    119  ND2       33.4410  -19.9640  -35.7670 N.am  110  ASN110     -0.0877
@<TRIPOS>BOND
     1   110   109    1
     2   111   109    1
     3   109   108    1
     4   108   105    1
     5   107   106    2
     6   105   106    1
     7   105   104    1
     8   104    99   am
     9   119   117   am
    10   100    99    2
    11    99    98    1
    12   118   117    2
    13   117   116    1
    14    96    93    1
    15    98    97    1
    16    98   101    1
    17    95    94    2
    18    97    94   am
    19    97   103    1
    20   101   102    1
    21   102   103    1
    22    94    93    1
    23    93    92    1
    24   116   113    1
    25   112   113    1
    26   113   114    1
    27    56    55    2
    28    57    58    1
    29    57    54    1
    30    92    90   am
    31    65    64    2
    32    54    55    1
    33    54    53    1
    34    55    59   am
    35   114   115    2
    36    64    66   am
    37    64    63    1
    38    90    91    2
    39    90    89    1
    40    46    44    1
    41     7     5    1
    42    59    60    1
    43    60    63    1
    44    60    61    1
    45     5     6    1
    46     5     2    1
    47    87    85    1
    48    45    44    1
    49    89    88    1
    50    44    43    2
    51    85    84    2
    52    85    86    1
    53    84    83    1
    54    52    51    1
    55    83    82    1
    56     4     3    2
    57    61    62    2
    58    19    18    1
    59     2     3    1
    60     2     1    1
    61    88    79   am
    62    43    42    1
    63     3     8   am
    64    18    16   ar
    65    18    17   ar
    66    51    48    1
    67    16    14   ar
    68    80    79    2
    69    79    78    1
    70    82    81    1
    71    17    15   ar
    72    50    49    2
    73    42    41    1
    74    49    48    1
    75    81    78    1
    76    14    13   ar
    77     8     9    1
    78    48    47    1
    79    34    33    1
    80    15    13   ar
    81    78    77    1
    82    47    38   am
    83    13    12    1
    84     9    12    1
    85     9    10    1
    86    40    41    1
    87    40    37    1
    88    35    33    1
    89    74    76   ar
    90    74    72   ar
    91    33    32    2
    92    20    10   am
    93    20    21    1
    94    76    75   ar
    95    10    11    2
    96    77    69   am
    97    38    37    1
    98    38    39    2
    99    37    36    1
   100    70    69    2
   101    24    21    1
   102    69    68    1
   103    72    71    1
   104    72    73   ar
   105    32    31    1
   106    21    22    1
   107    71    68    1
   108    75    73   ar
   109    68    67    1
   110    31    30    1
   111    23    22    2
   112    30    29    1
   113    29    26    1
   114    27    28    2
   115    27    26    1
   116    26    25    1
