@<TRIPOS>MOLECULE
tmp/4z8fA01.pdb
 115 113 0 0 0
SMALL
GASTEIGER

@<TRIPOS>ATOM
      1  N         18.6740  -39.9740  -21.9230 N.3     1  GLU1       -0.1231
      2  CA        18.9130  -38.5920  -21.4330 C.3     1  GLU1        0.1699
      3  C         20.3470  -38.4120  -20.8930 C.2     1  GLU1        0.2592
      4  O         20.9130  -39.3210  -20.2920 O.2     1  GLU1       -0.2718
      5  CB        17.9030  -38.2490  -20.3420 C.3     1  GLU1        0.0402
      6  CG        17.8330  -36.7630  -20.0420 C.3     1  GLU1        0.1161
      7  CD        16.6440  -36.3880  -19.1860 C.2     1  GLU1        0.3649
      8  OE1       15.5020  -36.5860  -19.6540 O.co2   1  GLU1       -0.2457
      9  OE2       16.8520  -35.8780  -18.0630 O.co2   1  GLU1       -0.2457
     10  N         20.9180  -37.2310  -21.1050 N.am    2  VAL2       -0.1980
     11  CA        22.2630  -36.9540  -20.6240 C.3     2  VAL2        0.1595
     12  C         22.2650  -36.9250  -19.1110 C.2     2  VAL2        0.2287
     13  O         21.4420  -36.2510  -18.4970 O.2     2  VAL2       -0.2864
     14  CB        22.7860  -35.6220  -21.1650 C.3     2  VAL2        0.0276
     15  CG1       24.1580  -35.3000  -20.5780 C.3     2  VAL2        0.0022
     16  CG2       22.8470  -35.6630  -22.6690 C.3     2  VAL2        0.0022
     17  N         24.7300  -41.2260  -21.5460 N.3    26  GLY26      -0.1210
     18  CA        23.6190  -40.7490  -22.4080 C.3    26  GLY26       0.1956
     19  C         24.0480  -39.9760  -23.6350 C.2    26  GLY26       0.2612
     20  O         23.2150  -39.3980  -24.3400 O.2    26  GLY26      -0.2717
     21  N         25.3410  -39.9230  -23.8880 N.am   27  PHE27      -0.1962
     22  CA        25.8910  -39.2640  -25.0790 C.3    27  PHE27       0.1771
     23  C         27.2610  -39.8640  -25.3500 C.2    27  PHE27       0.2620
     24  O         27.7920  -40.6320  -24.5080 O.2    27  PHE27      -0.2715
     25  CB        25.9480  -37.7320  -24.9360 C.3    27  PHE27       0.0574
     26  CG        26.9260  -37.2360  -23.8900 C.ar   27  PHE27      -0.0200
     27  CD1       26.5850  -37.2610  -22.5460 C.ar   27  PHE27      -0.0042
     28  CD2       28.1720  -36.7440  -24.2610 C.ar   27  PHE27      -0.0042
     29  CE1       27.4580  -36.8090  -21.5540 C.ar   27  PHE27      -0.0003
     30  CE2       29.0640  -36.3000  -23.2730 C.ar   27  PHE27      -0.0003
     31  CZ        28.6950  -36.3220  -21.9270 C.ar   27  PHE27      -0.0000
     32  N         27.8250  -39.5070  -26.4950 N.am   28  THR28      -0.1951
     33  CA        29.1050  -40.0340  -26.9250 C.3    28  THR28       0.1897
     34  C         30.1810  -39.1460  -26.2740 C.2    28  THR28       0.2313
     35  O         30.5830  -38.1410  -26.8360 O.2    28  THR28      -0.2863
     36  CB        29.2270  -40.0540  -28.4570 C.3    28  THR28       0.1794
     37  OG1       28.1320  -40.8140  -29.0080 O.3    28  THR28      -0.2208
     38  CG2       30.5280  -40.6860  -28.8890 C.3    28  THR28       0.0378
     39  N         33.4730  -37.4220  -28.0300 N.3    31  THR31      -0.1203
     40  CA        33.4400  -36.4130  -29.0920 C.3    31  THR31       0.1994
     41  C         33.2700  -34.9790  -28.5710 C.2    31  THR31       0.2617
     42  O         33.3160  -34.0630  -29.3800 O.2    31  THR31      -0.2717
     43  CB        32.3520  -36.6900  -30.1500 C.3    31  THR31       0.1784
     44  OG1       31.0790  -36.5240  -29.5700 O.3    31  THR31      -0.2211
     45  CG2       32.4540  -38.0750  -30.7120 C.3    31  THR31       0.0376
     46  N         33.0980  -34.7830  -27.2560 N.am   32  TYR32      -0.1975
     47  CA        32.7410  -33.4600  -26.6810 C.3    32  TYR32       0.1639
     48  C         33.8360  -32.9160  -25.7980 C.2    32  TYR32       0.2290
     49  O         34.5000  -33.6820  -25.0850 O.2    32  TYR32      -0.2864
     50  CB        31.4520  -33.5420  -25.8750 C.3    32  TYR32       0.0560
     51  CG        30.2570  -33.7660  -26.7350 C.ar   32  TYR32      -0.0198
     52  CD1       29.5820  -32.6880  -27.3270 C.ar   32  TYR32      -0.0009
     53  CD2       29.7910  -35.0420  -26.9780 C.ar   32  TYR32      -0.0009
     54  CE1       28.4780  -32.8930  -28.1260 C.ar   32  TYR32       0.0417
     55  CE2       28.7000  -35.2550  -27.7880 C.ar   32  TYR32       0.0417
     56  CZ        28.0510  -34.1760  -28.3750 C.ar   32  TYR32       0.1957
     57  OH        26.9390  -34.3880  -29.1880 O.3    32  TYR32      -0.2866
     58  N         28.8850  -30.4330  -19.9200 N.3   100  ARG100     -0.1245
     59  CA        29.2660  -30.8260  -21.2850 C.3   100  ARG100      0.1563
     60  C         29.2030  -29.6090  -22.2010 C.2   100  ARG100      0.2260
     61  O         28.2210  -28.8760  -22.2050 O.2   100  ARG100     -0.2867
     62  CB        28.3530  -31.9190  -21.8470 C.3   100  ARG100      0.0307
     63  CG        28.9700  -32.6990  -22.9980 C.3   100  ARG100      0.0489
     64  CD        27.9500  -33.1710  -23.9990 C.3   100  ARG100      0.2205
     65  NE        27.4790  -32.0580  -24.8170 N.pl3 100  ARG100     -0.0865
     66  CZ        26.4780  -32.1040  -25.6860 C.cat 100  ARG100      0.5346
     67  NH1       25.7690  -33.2060  -25.8730 N.pl3 100  ARG100      0.1354
     68  NH2       26.1980  -31.0150  -26.3910 N.pl3 100  ARG100      0.1354
     69  N         27.9750  -28.8070  -28.8740 N.3   103  GLY103     -0.1225
     70  CA        28.4830  -29.6920  -29.9260 C.3   103  GLY103      0.1811
     71  C         29.1110  -28.9990  -31.1130 C.2   103  GLY103      0.2280
     72  O         29.7410  -27.9290  -30.9950 O.2   103  GLY103     -0.2866
     73  N         26.1520  -25.3160  -34.1870 N.3   108  TYR108     -0.1241
     74  CA        25.8210  -24.6510  -32.9310 C.3   108  TYR108      0.1605
     75  C         26.5360  -23.3030  -32.7080 C.2   108  TYR108      0.2264
     76  O         26.3400  -22.6610  -31.6700 O.2   108  TYR108     -0.2867
     77  CB        26.1040  -25.6050  -31.7560 C.3   108  TYR108      0.0534
     78  CG        25.0970  -26.7220  -31.5940 C.ar  108  TYR108     -0.0201
     79  CD1       23.7760  -26.4450  -31.3090 C.ar  108  TYR108     -0.0009
     80  CD2       25.4720  -28.0640  -31.7150 C.ar  108  TYR108     -0.0009
     81  CE1       22.8430  -27.4460  -31.1050 C.ar  108  TYR108      0.0417
     82  CE2       24.5430  -29.0810  -31.5410 C.ar  108  TYR108      0.0417
     83  CZ        23.2270  -28.7640  -31.2310 C.ar  108  TYR108      0.1957
     84  OH        22.2990  -29.7480  -31.0540 O.3   108  TYR108     -0.2866
     85  N         29.4290  -22.4540  -25.2590 N.3   113  TRP113     -0.1241
     86  CA        28.3170  -22.4890  -24.3140 C.3   113  TRP113      0.1605
     87  C         28.1830  -23.8900  -23.7580 C.2   113  TRP113      0.2264
     88  O         28.8460  -24.8120  -24.2120 O.2   113  TRP113     -0.2867
     89  CB        26.9890  -21.9910  -24.8930 C.3   113  TRP113      0.0550
     90  CG        26.5160  -22.5910  -26.1980 C.ar  113  TRP113      0.0003
     91  CD1       26.8720  -22.1920  -27.4800 C.ar  113  TRP113      0.0946
     92  CD2       25.5490  -23.6390  -26.3640 C.ar  113  TRP113      0.0152
     93  NE1       26.1810  -22.9400  -28.4120 N.ar  113  TRP113     -0.2442
     94  CE2       25.3700  -23.8330  -27.7600 C.ar  113  TRP113      0.0810
     95  CE3       24.8170  -24.4260  -25.4800 C.ar  113  TRP113      0.0012
     96  CZ2       24.4840  -24.7810  -28.2740 C.ar  113  TRP113      0.0191
     97  CZ3       23.9370  -25.3660  -25.9890 C.ar  113  TRP113      0.0001
     98  CH2       23.7860  -25.5490  -27.3860 C.ar  113  TRP113      0.0015
     99  N         26.0750  -26.9940  -22.6450 N.3   115  ALA115     -0.1231
    100  CA        24.8660  -27.6540  -23.0860 C.3   115  ALA115      0.1694
    101  C         24.1350  -28.5100  -22.0450 C.2   115  ALA115      0.2592
    102  O         22.9070  -28.5740  -22.0340 O.2   115  ALA115     -0.2718
    103  CB        25.2000  -28.4950  -24.3260 C.3   115  ALA115      0.0304
    104  N         24.8800  -29.2040  -21.1940 N.am  116  TYR116     -0.1976
    105  CA        24.3000  -30.0660  -20.1750 C.3   116  TYR116      0.1639
    106  C         25.0690  -29.8610  -18.8790 C.2   116  TYR116      0.2290
    107  O         26.3050  -29.7390  -18.8870 O.2   116  TYR116     -0.2864
    108  CB        24.3760  -31.5270  -20.6130 C.3   116  TYR116      0.0560
    109  CG        23.4490  -31.8220  -21.7730 C.ar  116  TYR116     -0.0198
    110  CD1       22.1180  -32.0930  -21.5650 C.ar  116  TYR116     -0.0009
    111  CD2       23.9320  -31.8120  -23.0710 C.ar  116  TYR116     -0.0009
    112  CE1       21.2610  -32.3510  -22.6330 C.ar  116  TYR116      0.0417
    113  CE2       23.0880  -32.0710  -24.1470 C.ar  116  TYR116      0.0417
    114  CZ        21.7640  -32.3360  -23.9150 C.ar  116  TYR116      0.1957
    115  OH        20.9430  -32.5970  -24.9910 O.3   116  TYR116     -0.2866
@<TRIPOS>BOND
     1    73    74    1
     2    74    75    1
     3    74    77    1
     4    75    76    2
     5    77    78    1
     6    80    78   ar
     7    80    82   ar
     8    78    79   ar
     9    82    83   ar
    10    79    81   ar
    11    83    81   ar
    12    83    84    1
    13    71    72    2
    14    71    70    1
    15    45    43    1
    16    43    44    1
    17    43    40    1
    18    70    69    1
    19    42    41    2
    20    57    56    1
    21    40    41    1
    22    40    39    1
    23    37    36    1
    24    38    36    1
    25    41    46   am
    26    36    33    1
    27    93    94   ar
    28    93    91   ar
    29    56    54   ar
    30    56    55   ar
    31    96    94   ar
    32    96    98   ar
    33    54    52   ar
    34    55    53   ar
    35    94    92   ar
    36    91    90   ar
    37    98    97   ar
    38    52    51   ar
    39    46    47    1
    40    53    51   ar
    41    33    32    1
    42    33    34    1
    43    35    34    2
    44    51    50    1
    45    47    50    1
    46    47    48    1
    47    32    23   am
    48    68    66    1
    49    92    90   ar
    50    92    95   ar
    51    90    89    1
    52    97    95   ar
    53    67    66    1
    54    48    49    2
    55    66    65    2
    56    23    22    1
    57    23    24    2
    58    85    86    1
    59    22    25    1
    60    22    21    1
    61   115   114    1
    62    25    26    1
    63    89    86    1
    64    65    64    1
    65    20    19    2
    66   103   100    1
    67    86    87    1
    68    28    26   ar
    69    28    30   ar
    70    88    87    2
    71   113   114   ar
    72   113   111   ar
    73    64    63    1
    74   114   112   ar
    75    26    27   ar
    76    21    19   am
    77    19    18    1
    78    30    31   ar
    79   100    99    1
    80   100   101    1
    81   111   109   ar
    82    63    62    1
    83    16    14    1
    84   112   110   ar
    85    27    29   ar
    86    18    17    1
    87    61    60    2
    88    60    59    1
    89   101   102    2
    90   101   104   am
    91    31    29   ar
    92     1     2    1
    93    62    59    1
    94   109   110   ar
    95   109   108    1
    96     2     3    1
    97     2     5    1
    98    59    58    1
    99   104   105    1
   100    14    11    1
   101    14    15    1
   102    10     3   am
   103    10    11    1
   104     3     4    2
   105    11    12    1
   106   108   105    1
   107     5     6    1
   108   105   106    1
   109     6     7    1
   110     8     7   ar
   111     7     9   ar
   112    12    13    2
   113   107   106    2
