@<TRIPOS>MOLECULE
tmp/4z8jA00.pdb
 155 152 0 0 0
SMALL
GASTEIGER

@<TRIPOS>ATOM
      1  N          7.6370    8.8660  -16.7240 N.3     9  LYS9       -0.1245
      2  CA         6.9420    8.1100  -17.7430 C.3     9  LYS9        0.1561
      3  C          7.9020    7.6120  -18.8150 C.2     9  LYS9        0.2260
      4  O          8.8220    8.3260  -19.2090 O.2     9  LYS9       -0.2867
      5  CB         5.8780    9.0200  -18.3620 C.3     9  LYS9        0.0271
      6  CG         4.7360    8.3180  -19.0290 C.3     9  LYS9        0.0035
      7  CD         3.8510    9.3260  -19.7300 C.3     9  LYS9        0.0206
      8  CE         2.7480    8.6550  -20.5160 C.3     9  LYS9        0.1093
      9  NZ         1.8390    9.6610  -21.1240 N.3     9  LYS9       -0.1314
     10  N          5.8470    3.8740  -23.0870 N.3    12  SER12      -0.1202
     11  CA         4.7800    2.8970  -22.8690 C.3    12  SER12       0.2020
     12  C          4.0050    3.1460  -21.5740 C.2    12  SER12       0.2619
     13  O          3.1250    2.3620  -21.2080 O.2    12  SER12      -0.2717
     14  CB         5.3680    1.4890  -22.8340 C.3    12  SER12       0.2103
     15  OG         6.1790    1.3120  -21.6860 O.3    12  SER12      -0.2182
     16  N          4.3540    4.2190  -20.8720 N.am   13  GLY13      -0.1942
     17  CA         3.6270    4.6320  -19.6900 C.3    13  GLY13       0.2014
     18  C          4.3900    4.5110  -18.3910 C.2    13  GLY13       0.2639
     19  O          5.6150    4.3980  -18.3570 O.2    13  GLY13      -0.2714
     20  N          3.6410    4.5500  -17.3050 N.am   14  TYR14      -0.1959
     21  CA         4.2170    4.4940  -15.9740 C.3    14  TYR14       0.1771
     22  C          4.4250    3.0880  -15.4420 C.2    14  TYR14       0.2620
     23  O          5.0700    2.9030  -14.4160 O.2    14  TYR14      -0.2715
     24  CB         3.3360    5.2690  -14.9970 C.3    14  TYR14       0.0574
     25  CG         3.2970    6.7550  -15.2440 C.ar   14  TYR14      -0.0198
     26  CD1        4.4110    7.5440  -14.9910 C.ar   14  TYR14      -0.0009
     27  CD2        2.1630    7.3690  -15.7590 C.ar   14  TYR14      -0.0009
     28  CE1        4.3930    8.9030  -15.2180 C.ar   14  TYR14       0.0417
     29  CE2        2.1320    8.7380  -15.9880 C.ar   14  TYR14       0.0417
     30  CZ         3.2610    9.5020  -15.7230 C.ar   14  TYR14       0.1957
     31  OH         3.2740   10.8600  -15.9370 O.3    14  TYR14      -0.2866
     32  N          3.8730    2.0870  -16.1170 N.am   15  GLY15      -0.1940
     33  CA         4.1040    0.7140  -15.7010 C.3    15  GLY15       0.2014
     34  C          3.3080    0.2600  -14.4810 C.2    15  GLY15       0.2639
     35  O          3.8040   -0.5240  -13.6730 O.2    15  GLY15      -0.2714
     36  N          2.0620    0.7190  -14.3510 N.am   16  PHE16      -0.1959
     37  CA         1.1900    0.1870  -13.3210 C.3    16  PHE16       0.1771
     38  C         -0.2430    0.3200  -13.7620 C.2    16  PHE16       0.2620
     39  O         -0.5610    1.1080  -14.6510 O.2    16  PHE16      -0.2715
     40  CB         1.4230    0.8750  -11.9570 C.3    16  PHE16       0.0574
     41  CG         0.8940    2.2830  -11.8570 C.ar   16  PHE16      -0.0200
     42  CD1       -0.3110    2.5450  -11.2390 C.ar   16  PHE16      -0.0042
     43  CD2        1.6220    3.3510  -12.3590 C.ar   16  PHE16      -0.0042
     44  CE1       -0.7830    3.8540  -11.1400 C.ar   16  PHE16      -0.0003
     45  CE2        1.1520    4.6530  -12.2590 C.ar   16  PHE16      -0.0003
     46  CZ        -0.0530    4.9020  -11.6460 C.ar   16  PHE16      -0.0000
     47  N         -1.1080   -0.4700  -13.1340 N.am   17  ASN17      -0.1958
     48  CA        -2.5450   -0.3590  -13.3240 C.3    17  ASN17       0.1819
     49  C         -3.1630    0.2070  -12.0510 C.2    17  ASN17       0.2621
     50  O         -2.7070   -0.0940  -10.9520 O.2    17  ASN17      -0.2715
     51  CB        -3.2170   -1.7170  -13.5680 C.3    17  ASN17       0.1195
     52  CG        -2.8260   -2.3990  -14.8660 C.2    17  ASN17       0.2630
     53  OD1       -1.9080   -2.0110  -15.5890 O.2    17  ASN17      -0.2716
     54  ND2       -3.5540   -3.4640  -15.1570 N.am   17  ASN17      -0.0877
     55  N         -4.2170    1.0020  -12.2210 N.am   18  VAL18      -0.1963
     56  CA        -4.9890    1.5300  -11.1110 C.3    18  VAL18       0.1727
     57  C         -6.3990    0.9520  -11.1770 C.2    18  VAL18       0.2616
     58  O         -6.9960    0.8740  -12.2530 O.2    18  VAL18      -0.2715
     59  CB        -4.9880    3.0800  -11.0980 C.3    18  VAL18       0.0290
     60  CG1       -5.5190    3.7160  -12.3840 C.3    18  VAL18       0.0023
     61  CG2       -5.7600    3.6020   -9.9050 C.3    18  VAL18       0.0023
     62  N         -6.9270    0.5610  -10.0270 N.am   19  ARG19      -0.1963
     63  CA        -8.2380   -0.0470   -9.9350 C.3    19  ARG19       0.1729
     64  C         -8.9880    0.5380   -8.7540 C.2    19  ARG19       0.2617
     65  O         -8.4040    0.7530   -7.6930 O.2    19  ARG19      -0.2715
     66  CB        -8.0870   -1.5510   -9.7360 C.3    19  ARG19       0.0348
     67  CG        -9.3780   -2.3110   -9.6910 C.3    19  ARG19       0.0492
     68  CD        -9.1180   -3.8130   -9.5570 C.3    19  ARG19       0.2205
     69  NE       -10.3910   -4.5020   -9.5480 N.pl3  19  ARG19      -0.0865
     70  CZ       -11.0470   -4.8740  -10.6380 C.cat  19  ARG19       0.5346
     71  NH1      -10.5310   -4.7000  -11.8490 N.pl3  19  ARG19       0.1354
     72  NH2      -12.2300   -5.4410  -10.5060 N.pl3  19  ARG19       0.1354
     73  N        -10.2840    0.7590   -8.9160 N.am   20  GLY20      -0.1940
     74  CA       -11.1030    1.1530   -7.8000 C.3    20  GLY20       0.2014
     75  C        -12.4790    1.5810   -8.2380 C.2    20  GLY20       0.2639
     76  O        -12.8900    1.3790   -9.3780 O.2    20  GLY20      -0.2714
     77  N        -13.2050    2.1790   -7.3100 N.am   21  GLN21      -0.1963
     78  CA       -14.6150    2.4500   -7.5120 C.3    21  GLN21       0.1733
     79  C        -14.8640    3.5420   -8.5390 C.2    21  GLN21       0.2616
     80  O        -14.1150    4.5150   -8.6390 O.2    21  GLN21      -0.2715
     81  CB       -15.2530    2.8490   -6.1940 C.3    21  GLN21       0.0408
     82  CG       -14.7790    4.1750   -5.7140 C.3    21  GLN21       0.0908
     83  CD       -15.3980    4.5450   -4.4060 C.2    21  GLN21       0.2608
     84  OE1      -15.8840    3.6940   -3.6570 O.2    21  GLN21      -0.2717
     85  NE2      -15.4020    5.8230   -4.1210 N.am   21  GLN21      -0.0878
     86  N        -15.9540    3.3820   -9.2770 N.am   22  VAL22      -0.1963
     87  CA       -16.4030    4.3770  -10.2300 C.3    22  VAL22       0.1727
     88  C        -17.0020    5.6030   -9.5510 C.2    22  VAL22       0.2616
     89  O        -16.7980    6.7330  -10.0020 O.2    22  VAL22      -0.2715
     90  CB       -17.4320    3.7350  -11.1790 C.3    22  VAL22       0.0290
     91  CG1      -18.1610    4.7780  -12.0240 C.3    22  VAL22       0.0023
     92  CG2      -16.7430    2.6940  -12.0250 C.3    22  VAL22       0.0023
     93  N        -17.7620    5.3680   -8.4850 N.am   23  SER23      -0.1950
     94  CA       -18.4910    6.4320   -7.8030 C.3    23  SER23       0.1924
     95  C        -17.6200    7.2000   -6.8220 C.2    23  SER23       0.2314
     96  O        -16.5130    6.7820   -6.5040 O.2    23  SER23      -0.2863
     97  CB       -19.6800    5.8370   -7.0500 C.3    23  SER23       0.2116
     98  OG       -19.2290    4.8670   -6.1250 O.3    23  SER23      -0.2180
     99  N         -6.4590    1.9020   -5.8820 N.3    41  HIS41      -0.1241
    100  CA        -5.2280    1.1960   -5.5510 C.3    41  HIS41       0.1621
    101  C         -4.5110    0.6960   -6.7920 C.2    41  HIS41       0.2264
    102  O         -5.0660    0.6370   -7.8870 O.2    41  HIS41      -0.2867
    103  CB        -5.4770    0.0470   -4.5550 C.3    41  HIS41       0.0745
    104  CG        -6.1090   -1.1580   -5.1640 C.ar   41  HIS41       0.0817
    105  ND1       -7.4700   -1.3070   -5.3100 N.ar   41  HIS41      -0.2268
    106  CD2       -5.5480   -2.2920   -5.6450 C.ar   41  HIS41       0.1154
    107  CE1       -7.7210   -2.4800   -5.8710 C.ar   41  HIS41       0.1986
    108  NE2       -6.5680   -3.0900   -6.0930 N.ar   41  HIS41      -0.2212
    109  N         -3.2840   -2.1130   -8.8750 N.3    43  SER43      -0.1202
    110  CA        -3.6820   -3.5020   -9.0950 C.3    43  SER43       0.2020
    111  C         -2.6800   -4.3260   -9.9030 C.2    43  SER43       0.2618
    112  O         -2.8510   -5.5410  -10.0450 O.2    43  SER43      -0.2717
    113  CB        -5.0000   -3.5230   -9.8290 C.3    43  SER43       0.2103
    114  OG        -4.9440   -2.7030  -10.9780 O.3    43  SER43      -0.2182
    115  N         -1.6610   -3.6770  -10.4540 N.am   44  ALA44      -0.1979
    116  CA        -0.5790   -4.3780  -11.1480 C.3    44  ALA44       0.1597
    117  C          0.6070   -3.4570  -11.2390 C.2    44  ALA44       0.2287
    118  O          0.4340   -2.2470  -11.3670 O.2    44  ALA44      -0.2864
    119  CB        -1.0000   -4.8120  -12.5510 C.3    44  ALA44       0.0319
    120  N        -12.8730    6.8940   -9.8740 N.3    75  HIS75      -0.1241
    121  CA       -11.8240    6.3210  -10.6860 C.3    75  HIS75       0.1621
    122  C        -11.3740    7.3100  -11.7650 C.2    75  HIS75       0.2264
    123  O        -10.1750    7.4950  -12.0080 O.2    75  HIS75      -0.2867
    124  CB       -12.2950    5.0230  -11.3220 C.3    75  HIS75       0.0745
    125  CG       -11.2160    4.2800  -12.0380 C.ar   75  HIS75       0.0817
    126  ND1      -10.2620    3.5460  -11.3740 N.ar   75  HIS75      -0.2268
    127  CD2      -10.9290    4.1780  -13.3560 C.ar   75  HIS75       0.1154
    128  CE1       -9.4410    3.0020  -12.2580 C.ar   75  HIS75       0.1986
    129  NE2       -9.8250    3.3670  -13.4620 N.ar   75  HIS75      -0.2212
    130  N         -7.6010    8.6980  -12.6140 N.3    79  VAL79      -0.1245
    131  CA        -7.0070    8.4980  -13.9270 C.3    79  VAL79       0.1561
    132  C         -6.6340    9.8440  -14.5620 C.2    79  VAL79       0.2260
    133  O         -5.5220   10.0060  -15.0830 O.2    79  VAL79      -0.2867
    134  CB        -7.9620    7.6840  -14.8270 C.3    79  VAL79       0.0252
    135  CG1       -7.5320    7.7230  -16.2780 C.3    79  VAL79       0.0019
    136  CG2       -8.0280    6.2350  -14.3380 C.3    79  VAL79       0.0019
    137  N         -3.5990   11.2970  -12.9170 N.3    82  ILE82      -0.1231
    138  CA        -2.3770   10.6110  -13.3130 C.3    82  ILE82       0.1692
    139  C         -1.9050   11.0870  -14.6850 C.2    82  ILE82       0.2591
    140  O         -0.7020   11.2240  -14.9330 O.2    82  ILE82      -0.2718
    141  CB        -2.5740    9.0730  -13.2840 C.3    82  ILE82       0.0266
    142  CG1       -2.7080    8.5890  -11.8350 C.3    82  ILE82       0.0019
    143  CG2       -1.4220    8.3690  -13.9920 C.3    82  ILE82       0.0020
    144  CD1       -3.2900    7.1800  -11.7280 C.3    82  ILE82       0.0001
    145  N         -2.8650   11.3380  -15.5710 N.am   83  ARG83      -0.1980
    146  CA        -2.5890   11.8030  -16.9210 C.3    83  ARG83       0.1597
    147  C         -2.2860   13.3170  -16.9980 C.2    83  ARG83       0.2287
    148  O         -2.0140   13.8170  -18.0790 O.2    83  ARG83      -0.2864
    149  CB        -3.7710   11.4450  -17.8270 C.3    83  ARG83       0.0334
    150  CG        -3.9300    9.9580  -18.0550 C.3    83  ARG83       0.0492
    151  CD        -5.1840    9.6630  -18.8320 C.3    83  ARG83       0.2205
    152  NE        -5.3110    8.2420  -19.1260 N.pl3  83  ARG83      -0.0865
    153  CZ        -6.4340    7.6690  -19.5440 C.cat  83  ARG83       0.5346
    154  NH1       -7.5390    8.3850  -19.7060 N.pl3  83  ARG83       0.1354
    155  NH2       -6.4540    6.3710  -19.7870 N.pl3  83  ARG83       0.1354
@<TRIPOS>BOND
     1    10    11    1
     2    11    14    1
     3    11    12    1
     4    14    15    1
     5    12    13    2
     6    12    16   am
     7     9     8    1
     8    16    17    1
     9     8     7    1
    10   155   153    1
    11     7     6    1
    12   154   153    1
    13    17    18    1
    14   153   152    2
    15     4     3    2
    16   152   151    1
    17     6     5    1
    18   151   150    1
    19     3     2    1
    20    18    19    2
    21    18    20   am
    22     5     2    1
    23   148   147    2
    24   150   149    1
    25   149   146    1
    26     2     1    1
    27    20    21    1
    28   147   146    1
    29   146   145    1
    30   135   134    1
    31    32    33    1
    32    32    22   am
    33    29    27   ar
    34    29    30   ar
    35    21    22    1
    36    21    24    1
    37    31    30    1
    38    27    25   ar
    39    30    28   ar
    40    33    34    1
    41    53    52    2
    42   145   139   am
    43    22    23    2
    44    25    24    1
    45    25    26   ar
    46    28    26   ar
    47    54    52   am
    48   133   132    2
    49   140   139    2
    50    52    51    1
    51   134   136    1
    52   134   131    1
    53   139   138    1
    54    39    38    2
    55   132   131    1
    56    34    36   am
    57    34    35    2
    58    36    37    1
    59   143   141    1
    60   131   130    1
    61    38    37    1
    62    38    47   am
    63    51    48    1
    64   129   127   ar
    65   129   128   ar
    66   127   125   ar
    67    48    47    1
    68    48    49    1
    69    37    40    1
    70   138   141    1
    71   138   137    1
    72   141   142    1
    73   119   116    1
    74    60    59    1
    75    43    45   ar
    76    43    41   ar
    77    45    46   ar
    78   128   126   ar
    79    58    57    2
    80    55    49   am
    81    55    56    1
    82    49    50    2
    83   125   126   ar
    84   125   124    1
    85    92    90    1
    86    91    90    1
    87   123   122    2
    88    40    41    1
    89    41    42   ar
    90    71    70    1
    91   142   144    1
    92   122   121    1
    93    46    44   ar
    94   118   117    2
    95   124   121    1
    96   117   116    1
    97    42    44   ar
    98    90    87    1
    99    57    56    1
   100    57    62   am
   101   116   115    1
   102    56    59    1
   103    59    61    1
   104   114   113    1
   105   121   120    1
   106    70    72    1
   107    70    69    2
   108   115   111   am
   109    87    88    1
   110    87    86    1
   111   112   111    2
   112    62    63    1
   113    89    88    2
   114    63    66    1
   115    63    64    1
   116   111   110    1
   117   113   110    1
   118    66    67    1
   119    67    68    1
   120    68    69    1
   121    88    93   am
   122    76    75    2
   123    86    79   am
   124   110   109    1
   125    73    64   am
   126    73    74    1
   127    64    65    2
   128    80    79    2
   129    79    78    1
   130    93    94    1
   131    75    74    1
   132    75    77   am
   133   102   101    2
   134    94    97    1
   135    94    95    1
   136    78    77    1
   137    78    81    1
   138    97    98    1
   139    95    96    2
   140   101   100    1
   141    81    82    1
   142   108   107   ar
   143   108   106   ar
   144    99   100    1
   145   107   105   ar
   146    82    83    1
   147   106   104   ar
   148   100   103    1
   149   105   104   ar
   150   104   103    1
   151    83    85   am
   152    83    84    2
