@<TRIPOS>MOLECULE
tmp/4z8mA00.pdb
 185 182 0 0 0
SMALL
GASTEIGER

@<TRIPOS>ATOM
      1  N          6.6250   82.8330   17.5180 N.3    25  VAL25      -0.1245
      2  CA         7.4620   83.2480   18.6460 C.3    25  VAL25       0.1561
      3  C          8.0810   82.0310   19.3120 C.2    25  VAL25       0.2260
      4  O          7.3550   81.1340   19.7200 O.2    25  VAL25      -0.2867
      5  CB         6.6450   84.0070   19.6840 C.3    25  VAL25       0.0252
      6  CG1        7.5230   84.4410   20.8360 C.3    25  VAL25       0.0019
      7  CG2        5.9310   85.2130   19.0500 C.3    25  VAL25       0.0019
      8  N         11.1300   80.1790   22.0800 N.3    27  HIS27      -0.1241
      9  CA        12.0360   80.3240   23.2080 C.3    27  HIS27       0.1621
     10  C         13.0420   79.2030   23.2180 C.2    27  HIS27       0.2264
     11  O         12.7200   78.0610   22.9110 O.2    27  HIS27      -0.2867
     12  CB        11.2650   80.3280   24.5100 C.3    27  HIS27       0.0745
     13  CG        10.0810   81.2480   24.4930 C.ar   27  HIS27       0.0817
     14  ND1       10.1110   82.5100   25.0470 N.ar   27  HIS27      -0.2268
     15  CD2        8.8480   81.0910   23.9590 C.ar   27  HIS27       0.1154
     16  CE1        8.9320   83.0880   24.8680 C.ar   27  HIS27       0.1986
     17  NE2        8.1500   82.2520   24.2090 N.ar   27  HIS27      -0.2212
     18  N         14.7910   84.5220   22.9630 N.3    43  ARG43      -0.1245
     19  CA        13.4960   84.7260   22.3530 C.3    43  ARG43       0.1563
     20  C         13.7340   85.1050   20.9000 C.2    43  ARG43       0.2260
     21  O         14.4870   86.0530   20.6180 O.2    43  ARG43      -0.2867
     22  CB        12.7500   85.8460   23.0660 C.3    43  ARG43       0.0307
     23  CG        11.3010   85.6750   23.2190 C.3    43  ARG43       0.0489
     24  CD        10.7430   86.8270   24.0600 C.3    43  ARG43       0.2205
     25  NE        10.5470   88.0950   23.3510 N.pl3  43  ARG43      -0.0865
     26  CZ        10.8660   89.2980   23.8280 C.cat  43  ARG43       0.5346
     27  NH1       11.4160   89.4340   25.0210 N.pl3  43  ARG43       0.1354
     28  NH2       10.6250   90.3820   23.1060 N.pl3  43  ARG43       0.1354
     29  N         11.4840   85.9420   17.3320 N.3    45  HIS45      -0.1241
     30  CA        10.1790   86.1530   16.6840 C.3    45  HIS45       0.1621
     31  C         10.3270   86.0580   15.1780 C.2    45  HIS45       0.2264
     32  O         11.4110   86.2710   14.6560 O.2    45  HIS45      -0.2867
     33  CB         9.6040   87.5340   16.9710 C.3    45  HIS45       0.0745
     34  CG         9.2640   87.7870   18.4020 C.ar   45  HIS45       0.0817
     35  ND1        7.9690   87.9680   18.8320 N.ar   45  HIS45      -0.2268
     36  CD2       10.0560   87.9260   19.4930 C.ar   45  HIS45       0.1154
     37  CE1        7.9800   88.2040   20.1360 C.ar   45  HIS45       0.1986
     38  NE2        9.2280   88.1820   20.5610 N.ar   45  HIS45      -0.2212
     39  N         16.0870   88.0630   21.1890 N.3    61  PHE61      -0.1241
     40  CA        16.2470   88.6310   22.5240 C.3    61  PHE61       0.1605
     41  C         16.8180   87.6780   23.5290 C.2    61  PHE61       0.2264
     42  O         16.4520   86.5040   23.5400 O.2    61  PHE61      -0.2867
     43  CB        14.9220   89.1120   23.0530 C.3    61  PHE61       0.0534
     44  CG        14.2900   90.1690   22.2160 C.ar   61  PHE61      -0.0203
     45  CD1       13.2460   89.8560   21.3410 C.ar   61  PHE61      -0.0042
     46  CD2       14.7130   91.4850   22.3130 C.ar   61  PHE61      -0.0042
     47  CE1       12.6380   90.8330   20.5870 C.ar   61  PHE61      -0.0003
     48  CE2       14.1000   92.4650   21.5500 C.ar   61  PHE61      -0.0003
     49  CZ        13.0560   92.1310   20.6900 C.ar   61  PHE61      -0.0000
     50  N         17.2710   86.6170   27.5540 N.3    63  HIS63      -0.1241
     51  CA        16.6230   86.7460   28.8540 C.3    63  HIS63       0.1621
     52  C         17.4170   86.0520   29.9430 C.2    63  HIS63       0.2264
     53  O         17.9880   84.9940   29.7010 O.2    63  HIS63      -0.2867
     54  CB        15.2360   86.1320   28.8090 C.3    63  HIS63       0.0745
     55  CG        14.2640   86.8640   27.9380 C.ar   63  HIS63       0.0817
     56  ND1       13.3240   87.7340   28.4360 N.ar   63  HIS63      -0.2268
     57  CD2       14.0460   86.8020   26.6020 C.ar   63  HIS63       0.1154
     58  CE1       12.5740   88.1910   27.4470 C.ar   63  HIS63       0.1986
     59  NE2       12.9920   87.6370   26.3250 N.ar   63  HIS63      -0.2212
     60  N         25.5860   90.4750   15.6690 N.3    99  GLU99      -0.1231
     61  CA        25.5260   91.7480   16.3580 C.3    99  GLU99       0.1699
     62  C         26.1060   91.5310   17.7350 C.2    99  GLU99       0.2592
     63  O         25.8340   90.5160   18.3700 O.2    99  GLU99      -0.2718
     64  CB        24.0970   92.2670   16.4450 C.3    99  GLU99       0.0402
     65  CG        23.4720   92.6320   15.0990 C.3    99  GLU99       0.1161
     66  CD        23.9360   93.9930   14.5700 C.2    99  GLU99       0.3649
     67  OE1       24.9490   94.5350   15.0850 O.co2  99  GLU99      -0.2457
     68  OE2       23.2650   94.5280   13.6550 O.co2  99  GLU99      -0.2457
     69  N         26.9160   92.4750   18.1900 N.am  100  ILE100     -0.1966
     70  CA        27.4980   92.3840   19.5170 C.3   100  ILE100      0.1727
     71  C         26.8380   93.4270   20.3990 C.2   100  ILE100      0.2616
     72  O         26.8100   94.6150   20.0600 O.2   100  ILE100     -0.2715
     73  CB        29.0130   92.6010   19.4710 C.3   100  ILE100      0.0290
     74  CG1       29.6370   91.7130   18.3880 C.3   100  ILE100      0.0022
     75  CG2       29.6280   92.3760   20.8370 C.3   100  ILE100      0.0023
     76  CD1       31.1710   91.6860   18.3820 C.3   100  ILE100      0.0001
     77  N         26.2980   93.0000   21.5310 N.am  101  MET101     -0.1963
     78  CA        25.6170   93.9490   22.3990 C.3   101  MET101      0.1736
     79  C         26.2330   93.9850   23.7720 C.2   101  MET101      0.2616
     80  O         26.6450   92.9550   24.2870 O.2   101  MET101     -0.2715
     81  CB        24.1330   93.6140   22.4890 C.3   101  MET101      0.0427
     82  CG        23.8230   92.2520   22.9850 C.3   101  MET101      0.0599
     83  SD        22.0450   92.0220   22.9310 S.3   101  MET101     -0.1393
     84  CE        21.8840   90.7450   24.1850 C.3   101  MET101      0.0692
     85  N         26.2890   95.1900   24.3420 N.am  102  ASP102     -0.1971
     86  CA        26.9240   95.4440   25.6380 C.3   102  ASP102      0.1709
     87  C         25.9640   95.3850   26.8420 C.2   102  ASP102      0.2293
     88  O         25.0150   96.1640   26.9120 O.2   102  ASP102     -0.2864
     89  CB        27.5940   96.8320   25.5910 C.3   102  ASP102      0.1436
     90  CG        29.0730   96.7790   25.1540 C.2   102  ASP102      0.3671
     91  OD1       29.6380   95.6670   25.0540 O.co2 102  ASP102     -0.2456
     92  OD2       29.6570   97.8550   24.8680 O.co2 102  ASP102     -0.2456
     93  N         20.6580   98.4630   33.2860 N.3   107  LEU107     -0.1231
     94  CA        19.4560   97.8400   32.7600 C.3   107  LEU107      0.1693
     95  C         18.7710   96.9580   33.7860 C.2   107  LEU107      0.2592
     96  O         19.4190   96.4090   34.6770 O.2   107  LEU107     -0.2718
     97  CB        19.7810   96.9860   31.5340 C.3   107  LEU107      0.0284
     98  CG        20.4680   97.5510   30.2960 C.3   107  LEU107      0.0019
     99  CD1       21.2240   96.4450   29.5510 C.3   107  LEU107      0.0001
    100  CD2       19.3890   98.1510   29.4100 C.3   107  LEU107      0.0001
    101  N         17.4510   96.8360   33.6610 N.am  108  LEU108     -0.1966
    102  CA        16.6930   95.8950   34.4670 C.3   108  LEU108      0.1728
    103  C         16.7970   94.4570   33.9450 C.2   108  LEU108      0.2616
    104  O         16.6800   93.4960   34.7070 O.2   108  LEU108     -0.2715
    105  CB        15.2170   96.3000   34.5320 C.3   108  LEU108      0.0311
    106  CG        14.7790   97.4640   35.4240 C.3   108  LEU108      0.0022
    107  CD1       13.3130   97.7120   35.2180 C.3   108  LEU108      0.0001
    108  CD2       15.0690   97.1860   36.8870 C.3   108  LEU108      0.0001
    109  N         17.0370   94.3080   32.6480 N.am  109  ALA109     -0.1977
    110  CA        17.0100   92.9930   32.0210 C.3   109  ALA109      0.1597
    111  C         18.0120   91.9970   32.6070 C.2   109  ALA109      0.2287
    112  O         17.7560   90.7910   32.5840 O.2   109  ALA109     -0.2864
    113  CB        17.2390   93.1350   30.5200 C.3   109  ALA109      0.0319
    114  N         11.7460   82.7600   34.4690 N.3   117  ARG117     -0.1245
    115  CA        12.2400   83.4180   33.2580 C.3   117  ARG117      0.1563
    116  C         11.8410   84.8940   33.2100 C.2   117  ARG117      0.2260
    117  O         10.6840   85.2340   33.0150 O.2   117  ARG117     -0.2867
    118  CB        11.7220   82.6790   32.0190 C.3   117  ARG117      0.0307
    119  CG        12.5410   82.8820   30.7360 C.3   117  ARG117      0.0489
    120  CD        11.9050   82.1330   29.5590 C.3   117  ARG117      0.2205
    121  NE        10.5220   82.5560   29.3400 N.pl3 117  ARG117     -0.0865
    122  CZ        10.1570   83.7280   28.8130 C.cat 117  ARG117      0.5346
    123  NH1       11.0670   84.6300   28.4350 N.pl3 117  ARG117      0.1354
    124  NH2        8.8650   84.0030   28.6700 N.pl3 117  ARG117      0.1354
    125  N         10.7550   88.3030   32.1690 N.3   119  PRO119     -0.2102
    126  CA        10.1090   88.6960   30.8970 C.3   119  PRO119      0.1504
    127  C         10.8490   89.8540   30.2410 C.2   119  PRO119      0.2576
    128  O         10.7280   90.0650   29.0330 O.2   119  PRO119     -0.2718
    129  CB         8.7110   89.1390   31.3080 C.3   119  PRO119      0.0282
    130  CG         8.5900   88.8000   32.7700 C.3   119  PRO119      0.0208
    131  CD         9.9580   88.6900   33.3410 C.3   119  PRO119      0.0893
    132  N         11.6110   90.6020   31.0350 N.am  120  LYS120     -0.1966
    133  CA        12.3940   91.6920   30.4890 C.3   120  LYS120      0.1728
    134  C         13.6060   91.0870   29.8120 C.2   120  LYS120      0.2617
    135  O         14.4320   90.4100   30.4380 O.2   120  LYS120     -0.2715
    136  CB        12.8060   92.6800   31.5850 C.3   120  LYS120      0.0311
    137  CG        11.7320   93.7020   31.9350 C.3   120  LYS120      0.0038
    138  CD        11.8990   94.2650   33.3360 C.3   120  LYS120      0.0206
    139  CE        10.9300   93.5980   34.2880 C.3   120  LYS120      0.1093
    140  NZ        11.6170   92.5930   35.1600 N.3   120  LYS120     -0.1314
    141  N         13.6890   91.3070   28.5110 N.am  121  GLY121     -0.1940
    142  CA        14.7560   90.7380   27.7140 C.3   121  GLY121      0.2014
    143  C         15.4850   91.8540   27.0240 C.2   121  GLY121      0.2639
    144  O         15.0680   93.0030   27.0820 O.2   121  GLY121     -0.2714
    145  N         16.5660   91.5170   26.3490 N.am  122  PHE122     -0.1959
    146  CA        17.4440   92.5280   25.7860 C.3   122  PHE122      0.1771
    147  C         17.9220   92.0470   24.4550 C.2   122  PHE122      0.2620
    148  O         18.4760   90.9560   24.3620 O.2   122  PHE122     -0.2715
    149  CB        18.6060   92.7890   26.7430 C.3   122  PHE122      0.0574
    150  CG        19.4930   93.9140   26.3350 C.ar  122  PHE122     -0.0200
    151  CD1       19.0080   95.2040   26.2680 C.ar  122  PHE122     -0.0042
    152  CD2       20.8380   93.6960   26.0920 C.ar  122  PHE122     -0.0042
    153  CE1       19.8410   96.2540   25.9020 C.ar  122  PHE122     -0.0003
    154  CE2       21.6810   94.7420   25.7360 C.ar  122  PHE122     -0.0003
    155  CZ        21.1820   96.0190   25.6360 C.ar  122  PHE122     -0.0000
    156  N         17.6990   92.8300   23.4140 N.am  123  GLY123     -0.1940
    157  CA        18.0860   92.3710   22.1020 C.3   123  GLY123      0.2014
    158  C         17.6250   93.2470   20.9670 C.2   123  GLY123      0.2639
    159  O         17.4350   94.4430   21.1150 O.2   123  GLY123     -0.2714
    160  N         17.4750   92.6310   19.8080 N.am  124  TYR124     -0.1959
    161  CA        17.2210   93.3650   18.5940 C.3   124  TYR124      0.1771
    162  C         15.8390   93.0860   18.0270 C.2   124  TYR124      0.2619
    163  O         15.5110   91.9430   17.6870 O.2   124  TYR124     -0.2715
    164  CB        18.2930   93.0310   17.5450 C.3   124  TYR124      0.0574
    165  CG        19.6980   93.4200   17.9440 C.ar  124  TYR124     -0.0198
    166  CD1       20.4840   92.5710   18.6950 C.ar  124  TYR124     -0.0009
    167  CD2       20.2310   94.6470   17.5760 C.ar  124  TYR124     -0.0009
    168  CE1       21.7770   92.9310   19.0660 C.ar  124  TYR124      0.0417
    169  CE2       21.5130   95.0140   17.9370 C.ar  124  TYR124      0.0417
    170  CZ        22.2870   94.1490   18.6820 C.ar  124  TYR124      0.1957
    171  OH        23.5780   94.4910   19.0530 O.3   124  TYR124     -0.2866
    172  N         15.0370   94.1350   17.8790 N.am  125  VAL125     -0.1963
    173  CA        13.7750   93.9580   17.1840 C.3   125  VAL125      0.1727
    174  C         14.0360   93.6680   15.7080 C.2   125  VAL125      0.2616
    175  O         13.4180   92.7750   15.1280 O.2   125  VAL125     -0.2715
    176  CB        12.8790   95.1800   17.2990 C.3   125  VAL125      0.0290
    177  CG1       11.4970   94.8490   16.7620 C.3   125  VAL125      0.0023
    178  CG2       12.7690   95.6070   18.7390 C.3   125  VAL125      0.0023
    179  N         14.9770   94.3930   15.1050 N.am  126  THR126     -0.1951
    180  CA        15.3170   94.1610   13.6900 C.3   126  THR126      0.1897
    181  C         16.6340   93.4320   13.5120 C.2   126  THR126      0.2313
    182  O         17.5690   94.0000   12.9490 O.2   126  THR126     -0.2863
    183  CB        15.4300   95.4790   12.8800 C.3   126  THR126      0.1794
    184  OG1       16.3850   96.3540   13.5050 O.3   126  THR126     -0.2208
    185  CG2       14.0770   96.1560   12.7440 C.3   126  THR126      0.0378
@<TRIPOS>BOND
     1   185   183    1
     2   183   184    1
     3   183   180    1
     4   182   181    2
     5   181   180    1
     6    68    66   ar
     7   180   179    1
     8    66    67   ar
     9    66    65    1
    10    32    31    2
    11    65    64    1
    12   179   174   am
    13   175   174    2
    14    31    30    1
    15    60    61    1
    16   174   173    1
    17    61    64    1
    18    61    62    1
    19    30    33    1
    20    30    29    1
    21   177   176    1
    22    33    34    1
    23   173   176    1
    24   173   172    1
    25   176   178    1
    26     1     2    1
    27   164   165    1
    28   164   161    1
    29   167   169   ar
    30   167   165   ar
    31   163   162    2
    32    62    69   am
    33    62    63    2
    34   172   162   am
    35   169   170   ar
    36   165   166   ar
    37   162   161    1
    38    69    70    1
    39    76    74    1
    40    74    73    1
    41    34    35   ar
    42    34    36   ar
    43   161   160    1
    44     2     3    1
    45     2     5    1
    46   170   171    1
    47   170   168   ar
    48   166   168   ar
    49    35    37   ar
    50     7     5    1
    51     3     4    2
    52    73    70    1
    53    73    75    1
    54    36    38   ar
    55    70    71    1
    56     5     6    1
    57   160   158   am
    58    72    71    2
    59    37    38   ar
    60    71    77   am
    61    47    49   ar
    62    47    45   ar
    63    21    20    2
    64    49    48   ar
    65    20    19    1
    66   158   159    2
    67   158   157    1
    68    39    40    1
    69    45    44   ar
    70    77    78    1
    71    48    46   ar
    72     8     9    1
    73   157   156    1
    74    44    46   ar
    75    44    43    1
    76    19    18    1
    77    19    22    1
    78    78    81    1
    79    78    79    1
    80    81    82    1
    81    40    43    1
    82    40    41    1
    83    11    10    2
    84    83    82    1
    85    83    84    1
    86    22    23    1
    87    28    26    1
    88     9    10    1
    89     9    12    1
    90    23    24    1
    91    25    26    2
    92    25    24    1
    93   156   147   am
    94    41    42    2
    95    79    80    2
    96    79    85   am
    97    26    27    1
    98    15    17   ar
    99    15    13   ar
   100    17    16   ar
   101    85    86    1
   102   148   147    2
   103   147   146    1
   104    13    12    1
   105    13    14   ar
   106    16    14   ar
   107    92    90   ar
   108    91    90   ar
   109    90    89    1
   110    89    86    1
   111   155   154   ar
   112   155   153   ar
   113    86    87    1
   114   154   152   ar
   115   146   145    1
   116   146   149    1
   117   153   151   ar
   118   152   150   ar
   119   151   150   ar
   120    59    57   ar
   121    59    58   ar
   122   150   149    1
   123   145   143   am
   124    57    55   ar
   125    87    88    2
   126   143   144    2
   127   143   142    1
   128    58    56   ar
   129    50    51    1
   130   142   141    1
   131    55    56   ar
   132    55    54    1
   133   123   122    1
   134   141   134   am
   135   124   122    1
   136    54    51    1
   137   122   121    2
   138    51    52    1
   139   128   127    2
   140   121   120    1
   141   100    98    1
   142    99    98    1
   143   120   119    1
   144    53    52    2
   145   134   135    2
   146   134   133    1
   147   127   126    1
   148   127   132   am
   149    98    97    1
   150   133   132    1
   151   133   136    1
   152   113   110    1
   153   119   118    1
   154   126   129    1
   155   126   125    1
   156   129   130    1
   157    97    94    1
   158   136   137    1
   159   137   138    1
   160   118   115    1
   161   110   111    1
   162   110   109    1
   163   125   131    1
   164   112   111    2
   165   109   103   am
   166    94    93    1
   167    94    95    1
   168   130   131    1
   169   117   116    2
   170   116   115    1
   171   115   114    1
   172   138   139    1
   173   101    95   am
   174   101   102    1
   175    95    96    2
   176   103   102    1
   177   103   104    2
   178   139   140    1
   179   102   105    1
   180   105   106    1
   181   107   106    1
   182   106   108    1
