@<TRIPOS>MOLECULE
tmp/4z8mB00.pdb
 160 156 0 0 0
SMALL
GASTEIGER

@<TRIPOS>ATOM
      1  N          7.8560  106.2540   50.9800 N.3    25  VAL25      -0.1245
      2  CA         7.7710  106.4470   49.5320 C.3    25  VAL25       0.1561
      3  C          6.7600  107.5320   49.1930 C.2    25  VAL25       0.2260
      4  O          5.6520  107.5120   49.7010 O.2    25  VAL25      -0.2867
      5  CB         7.3580  105.1530   48.7850 C.3    25  VAL25       0.0252
      6  CG1        7.2910  105.3920   47.2720 C.3    25  VAL25       0.0019
      7  CG2        8.3050  104.0050   49.1100 C.3    25  VAL25       0.0019
      8  N          5.0940  110.0580   45.8660 N.3    27  HIS27      -0.1241
      9  CA         4.9940  110.2350   44.4200 C.3    27  HIS27       0.1621
     10  C          4.5730  111.6470   44.0730 C.2    27  HIS27       0.2264
     11  O          3.6470  112.1930   44.6490 O.2    27  HIS27      -0.2867
     12  CB         4.0020  109.2630   43.8130 C.3    27  HIS27       0.0745
     13  CG         4.1790  107.8530   44.2660 C.ar   27  HIS27       0.0817
     14  ND1        4.8490  106.9060   43.5290 N.ar   27  HIS27      -0.2268
     15  CD2        3.7630  107.2200   45.3970 C.ar   27  HIS27       0.1154
     16  CE1        4.8440  105.7520   44.1760 C.ar   27  HIS27       0.1986
     17  NE2        4.1880  105.9220   45.3110 N.ar   27  HIS27      -0.2212
     18  N          9.4030  109.8070   41.7330 N.3    43  ARG43      -0.1245
     19  CA         9.3140  108.8870   42.8500 C.3    43  ARG43       0.1563
     20  C         10.4360  109.1930   43.8180 C.2    43  ARG43       0.2260
     21  O         11.6020  109.1890   43.4060 O.2    43  ARG43      -0.2867
     22  CB         9.4430  107.4520   42.3490 C.3    43  ARG43       0.0307
     23  CG         8.5840  106.4480   43.0370 C.3    43  ARG43       0.0489
     24  CD         8.7550  105.1050   42.3670 C.3    43  ARG43       0.2205
     25  NE        10.0020  104.4730   42.7700 N.pl3  43  ARG43      -0.0865
     26  CZ        10.8390  103.8500   41.9460 C.cat  43  ARG43       0.5346
     27  NH1       10.5620  103.7520   40.6580 N.pl3  43  ARG43       0.1354
     28  NH2       11.9550  103.3080   42.4200 N.pl3  43  ARG43       0.1354
     29  N         12.1860  108.0190   47.5260 N.3    45  HIS45      -0.1241
     30  CA        12.2670  107.1030   48.6530 C.3    45  HIS45       0.1621
     31  C         13.1310  107.6600   49.7490 C.2    45  HIS45       0.2264
     32  O         14.0200  108.4750   49.4790 O.2    45  HIS45      -0.2867
     33  CB        12.8400  105.7580   48.2430 C.3    45  HIS45       0.0745
     34  CG        11.9430  104.9470   47.3670 C.ar   45  HIS45       0.0817
     35  ND1       11.3470  103.7780   47.7970 N.ar   45  HIS45      -0.2268
     36  CD2       11.5570  105.1190   46.0820 C.ar   45  HIS45       0.1154
     37  CE1       10.6320  103.2670   46.8110 C.ar   45  HIS45       0.1986
     38  NE2       10.7390  104.0620   45.7600 N.ar   45  HIS45      -0.2212
     39  N         13.6130  109.1520   41.4870 N.3    61  PHE61      -0.1241
     40  CA        13.4000  108.5690   40.1530 C.3    61  PHE61       0.1605
     41  C         12.4090  109.3150   39.2650 C.2    61  PHE61       0.2264
     42  O         11.4420  109.8870   39.7390 O.2    61  PHE61      -0.2867
     43  CB        12.9330  107.1270   40.2890 C.3    61  PHE61       0.0534
     44  CG        13.8910  106.2440   41.0250 C.ar   61  PHE61      -0.0203
     45  CD1       13.6780  105.9370   42.3540 C.ar   61  PHE61      -0.0042
     46  CD2       15.0030  105.7180   40.3880 C.ar   61  PHE61      -0.0042
     47  CE1       14.5390  105.1140   43.0420 C.ar   61  PHE61      -0.0003
     48  CE2       15.8790  104.8980   41.0690 C.ar   61  PHE61      -0.0003
     49  CZ        15.6400  104.5940   42.4070 C.ar   61  PHE61      -0.0000
     50  N         21.1710  113.7270   34.1760 N.3   101  MET101     -0.1230
     51  CA        21.1880  112.4170   33.5280 C.3   101  MET101      0.1702
     52  C         20.6660  112.3910   32.0870 C.2   101  MET101      0.2592
     53  O         19.7540  113.1190   31.7130 O.2   101  MET101     -0.2718
     54  CB        20.4060  111.4250   34.3730 C.3   101  MET101      0.0401
     55  CG        18.9910  111.8260   34.6430 C.3   101  MET101      0.0596
     56  SD        18.2090  110.6260   35.7410 S.3   101  MET101     -0.1393
     57  CE        16.4810  110.9170   35.3370 C.3   101  MET101      0.0692
     58  N         21.3020  111.5560   31.2770 N.am  102  ASP102     -0.1974
     59  CA        20.9340  111.3450   29.8800 C.3   102  ASP102      0.1709
     60  C         19.9450  110.2270   29.7400 C.2   102  ASP102      0.2293
     61  O         20.2130  109.0960   30.1410 O.2   102  ASP102     -0.2864
     62  CB        22.1450  111.0100   29.0270 C.3   102  ASP102      0.1436
     63  CG        22.6300  112.1780   28.2380 C.2   102  ASP102      0.3671
     64  OD1       23.7020  112.0430   27.6180 O.co2 102  ASP102     -0.2456
     65  OD2       21.9310  113.2200   28.2150 O.co2 102  ASP102     -0.2456
     66  N         18.6690  107.3350   28.2230 N.3   104  LYS104     -0.1245
     67  CA        19.1530  106.3450   27.2750 C.3   104  LYS104      0.1561
     68  C         17.9110  105.7110   26.6510 C.2   104  LYS104      0.2260
     69  O         17.0550  105.1790   27.3560 O.2   104  LYS104     -0.2867
     70  CB        20.0130  105.2810   27.9700 C.3   104  LYS104      0.0271
     71  CG        21.1360  105.8700   28.8090 C.3   104  LYS104      0.0035
     72  CD        21.9580  104.8000   29.5060 C.3   104  LYS104      0.0206
     73  CE        21.3380  104.3720   30.8220 C.3   104  LYS104      0.1093
     74  NZ        22.2620  103.4990   31.6090 N.3   104  LYS104     -0.1314
     75  N         16.2060  101.8180   27.1630 N.3   107  LEU107     -0.1231
     76  CA        15.5400  101.4160   28.4030 C.3   107  LEU107      0.1693
     77  C         14.0190  101.3840   28.2910 C.2   107  LEU107      0.2592
     78  O         13.4420  102.1530   27.5370 O.2   107  LEU107     -0.2718
     79  CB        15.9570  102.3830   29.5060 C.3   107  LEU107      0.0284
     80  CG        17.4700  102.5260   29.6650 C.3   107  LEU107      0.0019
     81  CD1       17.7690  103.8700   30.2410 C.3   107  LEU107      0.0001
     82  CD2       18.0190  101.4420   30.5650 C.3   107  LEU107      0.0001
     83  N         13.3620  100.5640   29.1060 N.am  108  LEU108     -0.1966
     84  CA        11.8980  100.4910   29.0850 C.3   108  LEU108      0.1728
     85  C         11.3130  101.7610   29.6830 C.2   108  LEU108      0.2616
     86  O         10.2110  102.1630   29.3650 O.2   108  LEU108     -0.2715
     87  CB        11.4090   99.2710   29.8690 C.3   108  LEU108      0.0311
     88  CG        11.5730   97.8810   29.2460 C.3   108  LEU108      0.0022
     89  CD1       11.2080   96.8100   30.2530 C.3   108  LEU108      0.0001
     90  CD2       10.7610   97.7170   27.9520 C.3   108  LEU108      0.0001
     91  N         12.0740  102.3990   30.5500 N.am  109  ALA109     -0.1977
     92  CA        11.6240  103.5970   31.2160 C.3   109  ALA109      0.1597
     93  C         11.3160  104.7390   30.2340 C.2   109  ALA109      0.2287
     94  O         10.5670  105.6530   30.5660 O.2   109  ALA109     -0.2864
     95  CB        12.6550  104.0290   32.2140 C.3   109  ALA109      0.0319
     96  N          0.9520  105.2130   34.6210 N.3   117  ARG117     -0.1245
     97  CA         2.2730  105.5790   35.1260 C.3   117  ARG117      0.1563
     98  C          3.2000  104.3970   34.9180 C.2   117  ARG117      0.2260
     99  O          2.9470  103.3070   35.4540 O.2   117  ARG117     -0.2867
    100  CB         2.2330  105.9790   36.6010 C.3   117  ARG117      0.0307
    101  CG         3.6300  106.3980   37.0890 C.3   117  ARG117      0.0489
    102  CD         3.6690  106.7230   38.5410 C.3   117  ARG117      0.2205
    103  NE         3.1490  105.6370   39.3940 N.pl3 117  ARG117     -0.0865
    104  CZ         3.9190  104.6200   39.8060 C.cat 117  ARG117      0.5346
    105  NH1        5.1850  104.5670   39.4210 N.pl3 117  ARG117      0.1354
    106  NH2        3.4150  103.6720   40.5690 N.pl3 117  ARG117      0.1354
    107  N          5.6650  101.7500   35.4380 N.3   119  PRO119     -0.2102
    108  CA         6.2360  101.3610   36.7340 C.3   119  PRO119      0.1504
    109  C          7.7670  101.3340   36.6990 C.2   119  PRO119      0.2576
    110  O          8.4230  101.5590   37.7280 O.2   119  PRO119     -0.2718
    111  CB         5.6890   99.9490   36.9660 C.3   119  PRO119      0.0282
    112  CG         4.6840   99.7060   35.8600 C.3   119  PRO119      0.0208
    113  CD         5.0110  100.6310   34.7460 C.3   119  PRO119      0.0893
    114  N          8.3230  101.1080   35.5110 N.am  120  LYS120     -0.1966
    115  CA         9.7620  101.1160   35.3280 C.3   120  LYS120      0.1728
    116  C         10.2330  102.5730   35.2020 C.2   120  LYS120      0.2617
    117  O          9.7670  103.3140   34.3210 O.2   120  LYS120     -0.2715
    118  CB        10.1510  100.2630   34.1110 C.3   120  LYS120      0.0311
    119  CG        11.6190  100.1180   33.8250 C.3   120  LYS120      0.0038
    120  CD        12.2360   99.2190   34.8480 C.3   120  LYS120      0.0206
    121  CE        13.6530   98.8130   34.4320 C.3   120  LYS120      0.1093
    122  NZ        14.5970   99.9060   34.5760 N.3   120  LYS120     -0.1314
    123  N         11.1180  102.9900   36.1140 N.am  121  GLY121     -0.1940
    124  CA        11.6100  104.3670   36.1810 C.3   121  GLY121      0.2014
    125  C         13.1220  104.5060   36.0590 C.2   121  GLY121      0.2639
    126  O         13.8340  103.5140   35.9720 O.2   121  GLY121     -0.2714
    127  N         13.6220  105.7330   36.0530 N.am  122  PHE122     -0.1959
    128  CA        15.0380  105.9600   35.8250 C.3   122  PHE122      0.1771
    129  C         15.5550  107.0590   36.7730 C.2   122  PHE122      0.2620
    130  O         14.9990  108.1600   36.8150 O.2   122  PHE122     -0.2715
    131  CB        15.2620  106.3530   34.3760 C.3   122  PHE122      0.0574
    132  CG        16.7060  106.3850   33.9610 C.ar  122  PHE122     -0.0200
    133  CD1       17.4450  105.2140   33.8750 C.ar  122  PHE122     -0.0042
    134  CD2       17.3230  107.5850   33.6440 C.ar  122  PHE122     -0.0042
    135  CE1       18.7850  105.2470   33.4850 C.ar  122  PHE122     -0.0003
    136  CE2       18.6580  107.6220   33.2430 C.ar  122  PHE122     -0.0003
    137  CZ        19.3870  106.4530   33.1680 C.ar  122  PHE122     -0.0000
    138  N         16.5960  106.7790   37.5520 N.am  123  GLY123     -0.1940
    139  CA        17.0740  107.7820   38.4880 C.3   123  GLY123      0.2014
    140  C         18.1570  107.2700   39.4250 C.2   123  GLY123      0.2639
    141  O         18.8650  106.3160   39.1110 O.2   123  GLY123     -0.2714
    142  N         18.2960  107.9170   40.5770 N.am  124  TYR124     -0.1959
    143  CA        19.4070  107.6300   41.4700 C.3   124  TYR124      0.1771
    144  C         18.9490  106.9970   42.7760 C.2   124  TYR124      0.2619
    145  O         18.2200  107.6150   43.5420 O.2   124  TYR124     -0.2715
    146  CB        20.1930  108.9110   41.7730 C.3   124  TYR124      0.0574
    147  CG        20.7880  109.5680   40.5530 C.ar  124  TYR124     -0.0198
    148  CD1       20.0700  110.4950   39.8180 C.ar  124  TYR124     -0.0009
    149  CD2       22.0560  109.2260   40.1090 C.ar  124  TYR124     -0.0009
    150  CE1       20.6080  111.0840   38.6940 C.ar  124  TYR124      0.0417
    151  CE2       22.6120  109.8140   38.9940 C.ar  124  TYR124      0.0417
    152  CZ        21.8810  110.7390   38.2880 C.ar  124  TYR124      0.1957
    153  OH        22.4390  111.3140   37.1650 O.3   124  TYR124     -0.2866
    154  N         19.4190  105.7830   43.0480 N.am  125  VAL125     -0.1977
    155  CA        19.1940  105.1520   44.3440 C.3   125  VAL125      0.1596
    156  C         19.9830  105.8970   45.4270 C.2   125  VAL125      0.2287
    157  O         19.4900  106.0960   46.5450 O.2   125  VAL125     -0.2864
    158  CB        19.5840  103.6670   44.3490 C.3   125  VAL125      0.0276
    159  CG1       19.1820  103.0340   45.6520 C.3   125  VAL125      0.0022
    160  CG2       18.9130  102.9380   43.1940 C.3   125  VAL125      0.0022
@<TRIPOS>BOND
     1    68    67    1
     2    68    69    2
     3    75    76    1
     4    67    70    1
     5    67    66    1
     6    78    77    2
     7    64    63   ar
     8    90    88    1
     9    70    71    1
    10    65    63   ar
    11    63    62    1
    12    77    76    1
    13    77    83   am
    14    76    79    1
    15    71    72    1
    16    62    59    1
    17    84    83    1
    18    84    85    1
    19    84    87    1
    20    88    87    1
    21    88    89    1
    22    86    85    2
    23    79    80    1
    24    72    73    1
    25    80    81    1
    26    80    82    1
    27    85    91   am
    28    60    59    1
    29    60    61    2
    30    59    58    1
    31    93    94    2
    32    93    92    1
    33    91    92    1
    34    73    74    1
    35    92    95    1
    36    58    52   am
    37    53    52    2
    38    52    51    1
    39   137   136   ar
    40   137   135   ar
    41   136   134   ar
    42   135   133   ar
    43    51    50    1
    44    51    54    1
    45   134   132   ar
    46   119   118    1
    47   119   120    1
    48   133   132   ar
    49   132   131    1
    50   118   115    1
    51   117   116    2
    52    54    55    1
    53   131   128    1
    54   121   122    1
    55   121   120    1
    56    96    97    1
    57    55    56    1
    58   113   107    1
    59   113   112    1
    60    98    97    1
    61    98    99    2
    62    97   100    1
    63   116   115    1
    64   116   123   am
    65   115   114    1
    66    57    56    1
    67   107   108    1
    68   114   109   am
    69   128   127    1
    70   128   129    1
    71   112   111    1
    72   126   125    2
    73   127   125   am
    74   125   124    1
    75   123   124    1
    76   100   101    1
    77   109   108    1
    78   109   110    2
    79   108   111    1
    80   129   130    2
    81   129   138   am
    82   101   102    1
    83   153   152    1
    84   138   139    1
    85   152   150   ar
    86   152   151   ar
    87   139   140    1
    88   102   103    1
    89   150   148   ar
    90   151   149   ar
    91   141   140    2
    92    41    42    2
    93    41    40    1
    94   103   104    2
    95   105   104    1
    96   140   142   am
    97   104   106    1
    98   148   147   ar
    99   149   147   ar
   100    40    43    1
   101    40    39    1
   102    43    44    1
   103    46    44   ar
   104    46    48   ar
   105   147   146    1
   106   142   143    1
   107    27    26    1
   108    44    45   ar
   109    48    49   ar
   110   143   146    1
   111   143   144    1
   112    18    19    1
   113    26    28    1
   114    26    25    2
   115    22    19    1
   116    22    23    1
   117    45    47   ar
   118    24    25    1
   119    24    23    1
   120    49    47   ar
   121   144   154   am
   122   144   145    2
   123    19    20    1
   124   154   155    1
   125   160   158    1
   126    21    20    2
   127    14    16   ar
   128    14    13   ar
   129    12    13    1
   130    12     9    1
   131    10     9    1
   132    10    11    2
   133    16    17   ar
   134    13    15   ar
   135   155   158    1
   136   155   156    1
   137   158   159    1
   138     9     8    1
   139    17    15   ar
   140   156   157    2
   141    38    36   ar
   142    38    37   ar
   143    36    34   ar
   144    37    35   ar
   145     6     5    1
   146    34    35   ar
   147    34    33    1
   148    29    30    1
   149    33    30    1
   150    30    31    1
   151     5     7    1
   152     5     2    1
   153     3     2    1
   154     3     4    2
   155    32    31    2
   156     2     1    1
