@<TRIPOS>MOLECULE
tmp/4z8nA00.pdb
 91 92 0 0 0
SMALL
GASTEIGER

@<TRIPOS>ATOM
      1  N        -14.8740   39.4860  108.2890 N.3    40  TYR40      -0.1227
      2  CA       -15.4440   38.1450  108.3700 C.3    40  TYR40       0.1736
      3  C        -15.7780   37.7270  109.8000 C.2    40  TYR40       0.2595
      4  O        -16.3420   36.6550  110.0260 O.2    40  TYR40      -0.2718
      5  CB       -14.5030   37.1300  107.7230 C.3    40  TYR40       0.0548
      6  CG       -14.9080   36.7920  106.3090 C.ar   40  TYR40      -0.0200
      7  CD1      -14.4410   37.5350  105.2310 C.ar   40  TYR40      -0.0009
      8  CD2      -15.7820   35.7440  106.0530 C.ar   40  TYR40      -0.0009
      9  CE1      -14.8230   37.2320  103.9370 C.ar   40  TYR40       0.0417
     10  CE2      -16.1670   35.4340  104.7670 C.ar   40  TYR40       0.0417
     11  CZ       -15.6860   36.1780  103.7140 C.ar   40  TYR40       0.1957
     12  OH       -16.0740   35.8640  102.4350 O.3    40  TYR40      -0.2866
     13  N        -15.4290   38.5740  110.7620 N.am   41  HIS41      -0.1961
     14  CA       -15.9220   38.4150  112.1230 C.3    41  HIS41       0.1787
     15  C        -17.1740   39.2610  112.2410 C.2    41  HIS41       0.2620
     16  O        -17.1100   40.4390  112.5880 O.2    41  HIS41      -0.2715
     17  CB       -14.8700   38.8250  113.1480 C.3    41  HIS41       0.0785
     18  CG       -13.5840   38.0750  113.0130 C.ar   41  HIS41       0.0821
     19  ND1      -13.4900   36.7190  113.2460 N.ar   41  HIS41      -0.2267
     20  CD2      -12.3420   38.4830  112.6630 C.ar   41  HIS41       0.1154
     21  CE1      -12.2460   36.3260  113.0470 C.ar   41  HIS41       0.1986
     22  NE2      -11.5280   37.3770  112.6940 N.ar   41  HIS41      -0.2212
     23  N        -18.3100   38.6420  111.9420 N.am   42  TYR42      -0.1960
     24  CA       -19.5320   39.3680  111.6240 C.3    42  TYR42       0.1771
     25  C        -19.9770   40.3420  112.7090 C.2    42  TYR42       0.2619
     26  O        -20.1370   41.5270  112.4290 O.2    42  TYR42      -0.2715
     27  CB       -20.6420   38.3680  111.3030 C.3    42  TYR42       0.0574
     28  CG       -20.2110   37.3680  110.2510 C.ar   42  TYR42      -0.0198
     29  CD1      -19.7270   37.7980  109.0200 C.ar   42  TYR42      -0.0009
     30  CD2      -20.2710   36.0010  110.4900 C.ar   42  TYR42      -0.0009
     31  CE1      -19.3210   36.8970  108.0530 C.ar   42  TYR42       0.0417
     32  CE2      -19.8680   35.0890  109.5260 C.ar   42  TYR42       0.0417
     33  CZ       -19.3940   35.5450  108.3090 C.ar   42  TYR42       0.1957
     34  OH       -18.9910   34.6490  107.3450 O.3    42  TYR42      -0.2866
     35  N        -20.1430   39.8650  113.9400 N.am   43  GLU43      -0.1977
     36  CA       -20.6230   40.7290  115.0160 C.3    43  GLU43       0.1602
     37  C        -19.6200   41.8330  115.3480 C.2    43  GLU43       0.2287
     38  O        -20.0070   42.9720  115.6220 O.2    43  GLU43      -0.2864
     39  CB       -20.9420   39.9210  116.2760 C.3    43  GLU43       0.0415
     40  CG       -21.5350   40.7770  117.3890 C.3    43  GLU43       0.1163
     41  CD       -21.8530   39.9890  118.6440 C.2    43  GLU43       0.3649
     42  OE1      -21.4520   38.8090  118.7320 O.co2  43  GLU43      -0.2457
     43  OE2      -22.5040   40.5550  119.5480 O.co2  43  GLU43      -0.2457
     44  N        -16.2380   40.5140  120.5790 N.3   139  SER139     -0.1202
     45  CA       -17.3630   39.9620  119.8310 C.3   139  SER139      0.2020
     46  C        -16.9360   38.7800  118.9680 C.2   139  SER139      0.2619
     47  O        -17.7770   38.0220  118.4840 O.2   139  SER139     -0.2717
     48  CB       -18.0060   41.0400  118.9560 C.3   139  SER139      0.2103
     49  OG       -18.5570   42.0780  119.7480 O.3   139  SER139     -0.2182
     50  N        -15.6300   38.6350  118.7660 N.am  140  VAL140     -0.1965
     51  CA       -15.0980   37.4570  118.0940 C.3   140  VAL140      0.1727
     52  C        -15.4550   36.2310  118.9230 C.2   140  VAL140      0.2616
     53  O        -14.9930   36.0780  120.0530 O.2   140  VAL140     -0.2715
     54  CB       -13.5770   37.5440  117.8980 C.3   140  VAL140      0.0290
     55  CG1      -13.0560   36.2760  117.2430 C.3   140  VAL140      0.0023
     56  CG2      -13.2250   38.7620  117.0600 C.3   140  VAL140      0.0023
     57  N        -16.2820   35.3640  118.3510 N.am  141  LYS141     -0.1963
     58  CA       -16.9630   34.3230  119.1150 C.3   141  LYS141      0.1728
     59  C        -16.0360   33.2750  119.7340 C.2   141  LYS141      0.2616
     60  O        -16.3410   32.7340  120.7980 O.2   141  LYS141     -0.2715
     61  CB       -18.0070   33.6440  118.2270 C.3   141  LYS141      0.0311
     62  CG       -19.0890   34.6050  117.7510 C.3   141  LYS141      0.0038
     63  CD       -20.1930   33.8960  116.9860 C.3   141  LYS141      0.0206
     64  CE       -21.3670   34.8330  116.7440 C.3   141  LYS141      0.1093
     65  NZ       -22.0140   34.6000  115.4240 N.3   141  LYS141     -0.1314
     66  N        -14.9120   32.9890  119.0840 N.am  142  CYS142     -0.1968
     67  CA       -13.9310   32.0760  119.6650 C.3   142  CYS142      0.1712
     68  C        -13.2680   32.7370  120.8760 C.2   142  CYS142      0.2296
     69  O        -13.1360   33.9570  120.9230 O.2   142  CYS142     -0.2864
     70  CB       -12.8820   31.6660  118.6290 C.3   142  CYS142      0.0983
     71  SG       -11.6850   32.9550  118.2210 S.3   142  CYS142     -0.0798
     72  N         -9.7390   29.1880  121.4320 N.3   145  ALA145     -0.1231
     73  CA        -9.5000   28.3430  120.2670 C.3   145  ALA145      0.1694
     74  C         -9.4420   29.1050  118.9400 C.2   145  ALA145      0.2592
     75  O         -9.6100   28.5020  117.8810 O.2   145  ALA145     -0.2718
     76  CB       -10.5740   27.2690  120.1950 C.3   145  ALA145      0.0304
     77  N         -9.1880   30.4120  118.9950 N.am  146  CYS146     -0.1956
     78  CA        -9.2390   31.2710  117.8050 C.3   146  CYS146      0.1843
     79  C         -8.3300   30.8150  116.6600 C.2   146  CYS146      0.2625
     80  O         -7.1320   30.6040  116.8480 O.2   146  CYS146     -0.2714
     81  CB        -8.8860   32.7110  118.1830 C.3   146  CYS146      0.0997
     82  SG       -10.0440   33.4830  119.3310 S.3   146  CYS146     -0.0797
     83  N         -8.9140   30.6760  115.4710 N.am  147  GLU147     -0.1977
     84  CA        -8.1740   30.2550  114.2840 C.3   147  GLU147      0.1602
     85  C         -7.5230   31.4560  113.6010 C.2   147  GLU147      0.2287
     86  O         -8.0360   32.5730  113.6680 O.2   147  GLU147     -0.2864
     87  CB        -9.0990   29.5200  113.3110 C.3   147  GLU147      0.0415
     88  CG        -8.3850   28.6110  112.3220 C.3   147  GLU147      0.1163
     89  CD        -9.3480   27.7230  111.5520 C.2   147  GLU147      0.3649
     90  OE1      -10.5730   27.9420  111.6570 O.co2 147  GLU147     -0.2457
     91  OE2       -8.8810   26.8040  110.8470 O.co2 147  GLU147     -0.2457
@<TRIPOS>BOND
     1    12    11    1
     2    11     9   ar
     3    11    10   ar
     4     9     7   ar
     5    10     8   ar
     6     7     6   ar
     7     8     6   ar
     8     6     5    1
     9    34    33    1
    10     5     2    1
    11    31    33   ar
    12    31    29   ar
    13     1     2    1
    14    33    32   ar
    15     2     3    1
    16    29    28   ar
    17    32    30   ar
    18     3     4    2
    19     3    13   am
    20    28    30   ar
    21    28    27    1
    22    13    14    1
    23    91    89   ar
    24    27    24    1
    25    89    90   ar
    26    89    88    1
    27    24    23    1
    28    24    25    1
    29    23    15   am
    30    14    15    1
    31    14    17    1
    32    15    16    2
    33    88    87    1
    34    26    25    2
    35    20    22   ar
    36    20    18   ar
    37    22    21   ar
    38    25    35   am
    39    18    17    1
    40    18    19   ar
    41    21    19   ar
    42    87    84    1
    43    85    86    2
    44    85    84    1
    45    35    36    1
    46    84    83    1
    47    36    37    1
    48    36    39    1
    49    37    38    2
    50    65    64    1
    51    83    79   am
    52    39    40    1
    53    79    80    2
    54    79    78    1
    55    64    63    1
    56    63    62    1
    57    56    54    1
    58    55    54    1
    59    40    41    1
    60    62    61    1
    61    78    81    1
    62    78    77    1
    63    75    74    2
    64    54    51    1
    65    51    50    1
    66    51    52    1
    67    81    82    1
    68    71    70    1
    69    71    82    1
    70    61    58    1
    71    57    52   am
    72    57    58    1
    73    47    46    2
    74    70    67    1
    75    41    42   ar
    76    41    43   ar
    77    50    46   am
    78    52    53    2
    79    74    77   am
    80    74    73    1
    81    48    49    1
    82    48    45    1
    83    46    45    1
    84    66    67    1
    85    66    59   am
    86    58    59    1
    87    67    68    1
    88    59    60    2
    89    45    44    1
    90    76    73    1
    91    73    72    1
    92    68    69    2
