@<TRIPOS>MOLECULE
tmp/4z93A00.pdb
 139 138 0 0 0
SMALL
GASTEIGER

@<TRIPOS>ATOM
      1  N         15.8730    3.9320    9.0450 N.3    25  TRP25      -0.1228
      2  CA        17.2090    3.6380    8.5640 C.3    25  TRP25       0.1722
      3  C         17.4190    2.2680    7.9250 C.2    25  TRP25       0.2437
      4  O         18.1760    2.2400    6.9560 O.2    25  TRP25      -0.2733
      5  CB        18.2800    3.9050    9.6390 C.3    25  TRP25       0.0563
      6  CG        18.3350    2.9210   10.7600 C.ar   25  TRP25       0.0003
      7  CD1       17.7220    3.0220   11.9700 C.ar   25  TRP25       0.0946
      8  CD2       19.0370    1.6790   10.7690 C.ar   25  TRP25       0.0152
      9  NE1       17.9970    1.9110   12.7310 N.ar   25  TRP25      -0.2442
     10  CE2       18.7950    1.0680   12.0130 C.ar   25  TRP25       0.0810
     11  CE3       19.8340    1.0110    9.8340 C.ar   25  TRP25       0.0012
     12  CZ2       19.3790   -0.1500   12.3770 C.ar   25  TRP25       0.0191
     13  CZ3       20.3810   -0.2080   10.1810 C.ar   25  TRP25       0.0001
     14  CH2       20.1510   -0.7780   11.4350 C.ar   25  TRP25       0.0015
     15  N         16.7570    1.1700    8.2840 N.am   26  PRO26      -0.2718
     16  CA        17.0190   -0.0850    7.5640 C.3    26  PRO26       0.1535
     17  C         16.5590   -0.0470    6.1110 C.2    26  PRO26       0.2598
     18  O         17.0160   -0.8950    5.3450 O.2    26  PRO26      -0.2715
     19  CB        16.2020   -1.1180    8.3470 C.3    26  PRO26       0.0310
     20  CG        16.1390   -0.5460    9.7430 C.3    26  PRO26       0.0237
     21  CD        15.8780    0.9410    9.4470 C.3    26  PRO26       0.0939
     22  N         15.7100    0.9000    5.7450 N.am   27  PHE27      -0.1974
     23  CA        15.1510    1.0210    4.4060 C.3    27  PHE27       0.1639
     24  C         15.9400    1.9850    3.5450 C.2    27  PHE27       0.2290
     25  O         15.6220    2.1320    2.3590 O.2    27  PHE27      -0.2864
     26  CB        13.6880    1.5200    4.4940 C.3    27  PHE27       0.0560
     27  CG        12.8500    0.6010    5.3570 C.ar   27  PHE27      -0.0200
     28  CD1       12.2850   -0.5560    4.8320 C.ar   27  PHE27      -0.0042
     29  CD2       12.7230    0.8320    6.7190 C.ar   27  PHE27      -0.0042
     30  CE1       11.5540   -1.4220    5.6740 C.ar   27  PHE27      -0.0003
     31  CE2       12.0670   -0.0690    7.5520 C.ar   27  PHE27      -0.0003
     32  CZ        11.5130   -1.1840    7.0300 C.ar   27  PHE27      -0.0000
     33  N         18.9890    1.8870    2.2120 N.3    29  LYS29      -0.1231
     34  CA        19.8480    1.3050    1.1910 C.3    29  LYS29       0.1678
     35  C         19.4320   -0.0790    0.8720 C.2    29  LYS29       0.2434
     36  O         18.7580   -0.7050    1.6850 O.2    29  LYS29      -0.2733
     37  CB        21.3090    1.2710    1.7330 C.3    29  LYS29       0.0284
     38  CG        21.8580    2.6260    2.1470 C.3    29  LYS29       0.0035
     39  CD        22.1370    3.5290    0.9590 C.3    29  LYS29       0.0206
     40  CE        22.3940    4.9680    1.3750 C.3    29  LYS29       0.1093
     41  NZ        21.1550    5.7600    1.5760 N.3    29  LYS29      -0.1314
     42  N         19.8510   -0.6270   -0.2710 N.am   30  PRO30      -0.2718
     43  CA        19.5220   -2.0220   -0.5690 C.3    30  PRO30       0.1535
     44  C         19.9210   -2.9660    0.5550 C.2    30  PRO30       0.2598
     45  O         20.9660   -2.7930    1.2090 O.2    30  PRO30      -0.2715
     46  CB        20.3620   -2.3220   -1.8260 C.3    30  PRO30       0.0310
     47  CG        20.6160   -1.0230   -2.4690 C.3    30  PRO30       0.0237
     48  CD        20.6640   -0.0160   -1.3410 C.3    30  PRO30       0.0939
     49  N         19.1220   -3.9940    0.7660 N.am   31  VAL31      -0.1964
     50  CA        19.4890   -5.0540    1.7000 C.3    31  VAL31       0.1727
     51  C         20.7990   -5.6800    1.2020 C.2    31  VAL31       0.2616
     52  O         20.8730   -6.1300    0.0640 O.2    31  VAL31      -0.2715
     53  CB        18.3650   -6.1110    1.7820 C.3    31  VAL31       0.0290
     54  CG1       18.7940   -7.2990    2.6370 C.3    31  VAL31       0.0023
     55  CG2       17.0720   -5.5030    2.3260 C.3    31  VAL31       0.0023
     56  N         21.8250   -5.6760    2.0430 N.am   32  ASP32      -0.1971
     57  CA        23.1000   -6.2790    1.6740 C.3    32  ASP32       0.1709
     58  C         23.0790   -7.7130    2.1880 C.2    32  ASP32       0.2293
     59  O         23.3270   -7.9780    3.3580 O.2    32  ASP32      -0.2864
     60  CB        24.2730   -5.4750    2.1980 C.3    32  ASP32       0.1436
     61  CG        25.6100   -5.9260    1.6370 C.2    32  ASP32       0.3671
     62  OD1       25.7650   -7.1390    1.3460 O.co2  32  ASP32      -0.2456
     63  OD2       26.4840   -5.0610    1.4370 O.co2  32  ASP32      -0.2456
     64  N         24.6080   -9.1110    5.8350 N.3    36  LEU36      -0.1245
     65  CA        23.6710   -9.4780    6.8870 C.3    36  LEU36       0.1561
     66  C         23.5100  -11.0090    7.0400 C.2    36  LEU36       0.2260
     67  O         22.7830  -11.4540    7.9290 O.2    36  LEU36      -0.2867
     68  CB        22.3120   -8.8420    6.5600 C.3    36  LEU36       0.0270
     69  CG        22.2850   -7.2950    6.4890 C.3    36  LEU36       0.0019
     70  CD1       20.9410   -6.8030    5.9940 C.3    36  LEU36       0.0001
     71  CD2       22.6020   -6.6800    7.8310 C.3    36  LEU36       0.0001
     72  N         22.0140  -13.1320    4.9670 N.3    38  LEU38      -0.1245
     73  CA        20.6570  -13.5390    4.6020 C.3    38  LEU38       0.1561
     74  C         20.7160  -14.3700    3.3290 C.2    38  LEU38       0.2260
     75  O         20.2760  -13.9380    2.2480 O.2    38  LEU38      -0.2867
     76  CB        19.7800  -12.2920    4.4420 C.3    38  LEU38       0.0270
     77  CG        19.7950  -11.3120    5.6390 C.3    38  LEU38       0.0019
     78  CD1       18.9020  -10.1410    5.3750 C.3    38  LEU38       0.0001
     79  CD2       19.3790  -11.9790    6.9370 C.3    38  LEU38       0.0001
     80  N          9.7830   -6.5730    2.9920 N.3    79  CYS79      -0.1235
     81  CA        10.1140   -6.6700    4.3800 C.3    79  CYS79       0.1677
     82  C          9.1010   -7.5760    5.1130 C.2    79  CYS79       0.2270
     83  O          9.4850   -8.4360    5.9030 O.2    79  CYS79      -0.2867
     84  CB        10.1480   -5.2630    4.9800 C.3    79  CYS79       0.0956
     85  SG        10.5260   -5.2030    6.7440 S.3    79  CYS79      -0.0801
     86  N          9.7210  -11.3650    3.9560 N.3    82  TYR82      -0.1227
     87  CA        10.9380  -12.0450    4.3520 C.3    82  TYR82       0.1736
     88  C         11.0670  -12.2760    5.8390 C.2    82  TYR82       0.2595
     89  O         11.5580  -13.3240    6.2660 O.2    82  TYR82      -0.2718
     90  CB        12.1630  -11.2180    3.8880 C.3    82  TYR82       0.0548
     91  CG        13.4640  -11.8920    4.2590 C.ar   82  TYR82      -0.0200
     92  CD1       13.9060  -13.0200    3.5790 C.ar   82  TYR82      -0.0009
     93  CD2       14.2040  -11.4610    5.3530 C.ar   82  TYR82      -0.0009
     94  CE1       15.0060  -13.7440    4.0220 C.ar   82  TYR82       0.0417
     95  CE2       15.3190  -12.1650    5.7920 C.ar   82  TYR82       0.0417
     96  CZ        15.7210  -13.2970    5.1120 C.ar   82  TYR82       0.1957
     97  OH        16.8070  -13.9820    5.5820 O.3    82  TYR82      -0.2866
     98  N         10.7090  -11.2980    6.6510 N.am   83  ASN83      -0.1974
     99  CA        10.9630  -11.3340    8.0840 C.3    83  ASN83       0.1688
    100  C          9.8400  -11.9330    8.8770 C.2    83  ASN83       0.2292
    101  O          8.7010  -11.7670    8.5040 O.2    83  ASN83      -0.2864
    102  CB        11.2210   -9.9190    8.6120 C.3    83  ASN83       0.1181
    103  CG        12.4460   -9.3120    8.0100 C.2    83  ASN83       0.2629
    104  OD1       13.5760   -9.6390    8.3900 O.2    83  ASN83      -0.2716
    105  ND2       12.2600   -8.5180    6.9790 N.am   83  ASN83      -0.0877
    106  N          9.4050   -9.4990   14.1490 N.3    87  HIS87      -0.1226
    107  CA        10.7460   -8.9310   14.0780 C.3    87  HIS87       0.1752
    108  C         10.6880   -7.4180   14.2620 C.2    87  HIS87       0.2599
    109  O          9.7610   -6.7520   13.7960 O.2    87  HIS87      -0.2717
    110  CB        11.4120   -9.2700   12.7290 C.3    87  HIS87       0.0759
    111  CG        12.8980   -9.1180   12.7140 C.ar   87  HIS87       0.0818
    112  ND1       13.5210   -7.8740   12.7390 N.ar   87  HIS87      -0.2268
    113  CD2       13.8510  -10.0800   12.7280 C.ar   87  HIS87       0.1154
    114  CE1       14.8220   -8.1170   12.7330 C.ar   87  HIS87       0.1986
    115  NE2       15.0690   -9.4320   12.7380 N.ar   87  HIS87      -0.2212
    116  N         11.7220   -6.8600   14.8870 N.am   88  GLU88      -0.1920
    117  CA        11.8520   -5.4280   15.1060 C.3    88  GLU88       0.1949
    118  C         11.7570   -4.6710   13.7740 C.2    88  GLU88       0.2658
    119  O         11.1320   -3.6150   13.7330 O.2    88  GLU88      -0.2711
    120  CB        13.2190   -5.1550   15.7940 C.2    88  GLU88       0.0111
    121  CG        13.6110   -3.7180   16.0950 C.2    88  GLU88       0.0838
    122  CD        15.0800   -3.4640   16.4080 C.2    88  GLU88       0.3877
    123  OE1       15.9160   -4.3790   16.2240 O.co2  88  GLU88      -0.2406
    124  OE2       15.3990   -2.3210   16.8070 O.co2  88  GLU88      -0.2406
    125  N         12.3240   -5.2250   12.6810 N.am   89  VAL89      -0.1974
    126  CA        12.3060   -4.5060   11.4100 C.3    89  VAL89       0.1596
    127  C         10.8660   -4.3990   10.8630 C.2    89  VAL89       0.2287
    128  O         10.5800   -3.4470   10.1370 O.2    89  VAL89      -0.2864
    129  CB        13.2900   -5.1120   10.3870 C.3    89  VAL89       0.0276
    130  CG1       12.7490   -6.3860    9.7400 C.3    89  VAL89       0.0022
    131  CG2       13.6260   -4.0810    9.3160 C.3    89  VAL89       0.0022
    132  N          9.3000   -1.5020   12.5720 N.3    92  MET92      -0.1245
    133  CA         9.8380   -0.2780   11.9890 C.3    92  MET92       0.1570
    134  C          9.1670   -0.0080   10.6460 C.2    92  MET92       0.2261
    135  O          8.7870    1.1420   10.3510 O.2    92  MET92      -0.2867
    136  CB        11.3530   -0.3930   11.8120 C.3    92  MET92       0.0387
    137  CG        12.1000   -0.4510   13.1320 C.3    92  MET92       0.0595
    138  SD        13.7920   -1.1260   12.9910 S.3    92  MET92      -0.1393
    139  CE        14.5060    0.1340   12.6560 C.3    92  MET92       0.0692
@<TRIPOS>BOND
     1    47    46    1
     2    47    48    1
     3    46    43    1
     4    48    42    1
     5    43    42    1
     6    43    44    1
     7    42    35   am
     8    52    51    2
     9    44    49   am
    10    44    45    2
    11    49    50    1
    12    35    34    1
    13    35    36    2
    14    39    40    1
    15    39    38    1
    16    34    37    1
    17    34    33    1
    18    51    50    1
    19    51    56   am
    20    62    61   ar
    21    40    41    1
    22    63    61   ar
    23    61    60    1
    24    57    56    1
    25    57    58    1
    26    57    60    1
    27    50    53    1
    28    37    38    1
    29    53    55    1
    30    53    54    1
    31    58    59    2
    32    75    74    2
    33    25    24    2
    34    80    81    1
    35    74    73    1
    36    24    23    1
    37    92    94   ar
    38    92    91   ar
    39    90    91    1
    40    90    87    1
    41    86    87    1
    42    94    96   ar
    43    91    93   ar
    44    87    88    1
    45    81    84    1
    46    81    82    1
    47    23    26    1
    48    23    22    1
    49    76    73    1
    50    76    77    1
    51    26    27    1
    52    73    72    1
    53    28    27   ar
    54    28    30   ar
    55    84    85    1
    56    96    97    1
    57    96    95   ar
    58    82    83    2
    59    18    17    2
    60    93    95   ar
    61    27    29   ar
    62    78    77    1
    63    77    79    1
    64    30    32   ar
    65    22    17   am
    66    64    65    1
    67    88    89    2
    68    88    98   am
    69    70    69    1
    70    17    16    1
    71    69    68    1
    72    69    71    1
    73    68    65    1
    74    98    99    1
    75    29    31   ar
    76    65    66    1
    77     4     3    2
    78   105   103   am
    79    32    31   ar
    80    66    67    2
    81    16    15    1
    82    16    19    1
    83     3    15   am
    84     3     2    1
    85   103   104    2
    86   103   102    1
    87    99   102    1
    88    99   100    1
    89    15    21    1
    90    19    20    1
    91   101   100    2
    92     2     1    1
    93     2     5    1
    94   131   129    1
    95    21    20    1
    96     5     6    1
    97   130   129    1
    98    11    13   ar
    99    11     8   ar
   100   128   127    2
   101    13    14   ar
   102   135   134    2
   103   129   126    1
   104   134   133    1
   105     6     8   ar
   106     6     7   ar
   107     8    10   ar
   108   127   126    1
   109   126   125    1
   110    14    12   ar
   111   136   133    1
   112   136   137    1
   113     7     9   ar
   114   133   132    1
   115    10    12   ar
   116    10     9   ar
   117   139   138    1
   118   125   118   am
   119   111   113   ar
   120   111   110    1
   121   111   112   ar
   122   113   115   ar
   123   110   107    1
   124   114   115   ar
   125   114   112   ar
   126   138   137    1
   127   119   118    2
   128   118   117    1
   129   109   108    2
   130   107   106    1
   131   107   108    1
   132   108   116   am
   133   116   117    1
   134   117   120    1
   135   120   121    2
   136   121   122    1
   137   123   122   ar
   138   122   124   ar
