@<TRIPOS>MOLECULE
tmp/4z9aA00.pdb
 92 90 0 0 0
SMALL
GASTEIGER

@<TRIPOS>ATOM
      1  N          4.9810    9.4390    8.1520 N.3     9  CYS9       -0.1221
      2  CA         5.4590    9.3500    6.7860 C.3     9  CYS9        0.1808
      3  C          5.5520   10.7960    6.2310 C.2     9  CYS9        0.2601
      4  O          5.4070   11.7800    6.9860 O.2     9  CYS9       -0.2717
      5  CB         4.6200    8.3510    5.9340 C.3     9  CYS9        0.0970
      6  SG         2.8340    8.7010    5.5570 S.3     9  CYS9       -0.0800
      7  N          5.8100   10.9210    4.9350 N.am   10  LEU10      -0.1965
      8  CA         6.0170   12.2230    4.3410 C.3    10  LEU10       0.1728
      9  C          4.7220   12.9950    4.2160 C.2    10  LEU10       0.2617
     10  O          4.6740   14.1780    4.5050 O.2    10  LEU10      -0.2715
     11  CB         6.6510   12.0330    2.9450 C.3    10  LEU10       0.0311
     12  CG         6.8070   13.2660    2.0360 C.3    10  LEU10       0.0022
     13  CD1        7.6470   14.3520    2.7140 C.3    10  LEU10       0.0001
     14  CD2        7.4900   12.7890    0.7490 C.3    10  LEU10       0.0001
     15  N          3.6670   12.3150    3.7740 N.am   11  GLY11      -0.1940
     16  CA         2.3810   12.9880    3.5290 C.3    11  GLY11       0.2014
     17  C          1.2550   12.7340    4.5230 C.2    11  GLY11       0.2639
     18  O          0.3350   13.5610    4.6070 O.2    11  GLY11      -0.2714
     19  N          1.3280   11.5940    5.2250 N.am   12  ASN12      -0.1958
     20  CA         0.3300   11.1230    6.1830 C.3    12  ASN12       0.1819
     21  C         -0.9940   10.8220    5.4540 C.2    12  ASN12       0.2621
     22  O         -2.0990   11.1710    5.9380 O.2    12  ASN12      -0.2715
     23  CB         0.1800   12.1560    7.3390 C.3    12  ASN12       0.1195
     24  CG        -0.6970   11.6780    8.4970 C.2    12  ASN12       0.2630
     25  OD1       -1.3530   12.4670    9.1420 O.2    12  ASN12      -0.2716
     26  ND2       -0.6830   10.4060    8.7810 N.am   12  ASN12      -0.0877
     27  N         -0.8690   10.2420    4.2610 N.am   13  ILE13      -0.1963
     28  CA        -2.0160    9.7580    3.5140 C.3    13  ILE13       0.1727
     29  C         -1.9090    8.2940    3.0390 C.2    13  ILE13       0.2616
     30  O         -2.9490    7.6440    2.9580 O.2    13  ILE13      -0.2715
     31  CB        -2.4110   10.6840    2.3380 C.3    13  ILE13       0.0290
     32  CG1       -1.3270   10.6900    1.2680 C.3    13  ILE13       0.0022
     33  CG2       -2.7550   12.0780    2.8500 C.3    13  ILE13       0.0023
     34  CD1       -1.8650   11.2480   -0.0770 C.3    13  ILE13       0.0001
     35  N         -0.7220    7.7370    2.7970 N.am   14  CYS14      -0.1954
     36  CA        -0.6250    6.3440    2.3430 C.3    14  CYS14       0.1843
     37  C         -0.1940    5.4070    3.4960 C.2    14  CYS14       0.2625
     38  O         -0.9430    4.5330    3.9310 O.2    14  CYS14      -0.2714
     39  CB         0.2880    6.1790    1.1060 C.3    14  CYS14       0.0997
     40  SG        -0.0900    7.1780   -0.3870 S.3    14  CYS14      -0.0797
     41  N          0.9820    5.6020    4.0470 N.am   15  ARG15      -0.1977
     42  CA         1.5350    4.5720    4.9030 C.3    15  ARG15       0.1597
     43  C          1.1830    4.7310    6.3810 C.2    15  ARG15       0.2287
     44  O          0.7190    3.7690    6.9970 O.2    15  ARG15      -0.2864
     45  CB         3.0470    4.5110    4.7230 C.3    15  ARG15       0.0334
     46  CG         3.4770    4.0340    3.3530 C.3    15  ARG15       0.0492
     47  CD         4.9430    4.2830    3.1120 C.3    15  ARG15       0.2205
     48  NE         5.1840    5.7160    2.9250 N.pl3  15  ARG15      -0.0865
     49  CZ         6.3600    6.2720    2.6540 C.cat  15  ARG15       0.5346
     50  NH1        7.4750    5.5240    2.5740 N.pl3  15  ARG15       0.1354
     51  NH2        6.4110    7.5980    2.4770 N.pl3  15  ARG15       0.1354
     52  N          2.3730   18.8930    2.6480 N.3    46  TYR46      -0.1227
     53  CA         1.7000   18.6590    1.3760 C.3    46  TYR46       0.1736
     54  C          0.2030   18.3250    1.4680 C.2    46  TYR46       0.2595
     55  O         -0.5880   18.8100    0.6550 O.2    46  TYR46      -0.2718
     56  CB         2.4280   17.5980    0.5770 C.3    46  TYR46       0.0548
     57  CG         3.5460   18.1780   -0.2470 C.ar   46  TYR46      -0.0200
     58  CD1        3.3010   19.0710   -1.3000 C.ar   46  TYR46      -0.0009
     59  CD2        4.8450   17.8510    0.0160 C.ar   46  TYR46      -0.0009
     60  CE1        4.3590   19.6070   -2.0540 C.ar   46  TYR46       0.0417
     61  CE2        5.8890   18.4030   -0.6890 C.ar   46  TYR46       0.0417
     62  CZ         5.6520   19.2530   -1.7440 C.ar   46  TYR46       0.1957
     63  OH         6.7730   19.7450   -2.4260 O.3    46  TYR46      -0.2866
     64  N         -0.1890   17.5220    2.4510 N.am   47  GLU47      -0.1979
     65  CA        -1.5100   16.8770    2.4450 C.3    47  GLU47       0.1602
     66  C         -2.4160   17.2290    3.6420 C.2    47  GLU47       0.2287
     67  O         -3.4700   16.5570    3.8600 O.2    47  GLU47      -0.2864
     68  CB        -1.3270   15.3630    2.3780 C.3    47  GLU47       0.0415
     69  CG        -0.7520   14.8420    1.0670 C.3    47  GLU47       0.1163
     70  CD        -1.7490   14.9260   -0.1060 C.2    47  GLU47       0.3649
     71  OE1       -2.9720   14.9930    0.1370 O.co2  47  GLU47      -0.2457
     72  OE2       -1.3110   14.9140   -1.2840 O.co2  47  GLU47      -0.2457
     73  N          7.0460    3.8690   -0.2900 N.3   126  ASP126     -0.1239
     74  CA         5.9230    4.6810   -0.6230 C.3   126  ASP126      0.1674
     75  C          5.1930    4.0230   -1.8020 C.2   126  ASP126      0.2266
     76  O          5.8060    3.7980   -2.8390 O.2   126  ASP126     -0.2867
     77  CB         6.4090    6.0750   -0.9650 C.3   126  ASP126      0.1410
     78  CG         5.2830    7.0480   -1.2620 C.2   126  ASP126      0.3668
     79  OD1        4.0720    6.6820   -1.2560 O.co2 126  ASP126     -0.2456
     80  OD2        5.6280    8.2260   -1.4910 O.co2 126  ASP126     -0.2456
     81  N          2.6340    5.4540   -3.3470 N.3   128  TYR128     -0.1241
     82  CA         1.8970    6.5040   -4.0710 C.3   128  TYR128      0.1605
     83  C          1.8730    6.2960   -5.5940 C.2   128  TYR128      0.2264
     84  O          0.7960    6.3320   -6.2050 O.2   128  TYR128     -0.2867
     85  CB         2.4550    7.8660   -3.7690 C.3   128  TYR128      0.0534
     86  CG         1.6750    9.0240   -4.3540 C.ar  128  TYR128     -0.0201
     87  CD1        0.5060    9.4810   -3.7430 C.ar  128  TYR128     -0.0009
     88  CD2        2.1320    9.7010   -5.4850 C.ar  128  TYR128     -0.0009
     89  CE1       -0.2140   10.5590   -4.2680 C.ar  128  TYR128      0.0417
     90  CE2        1.4270   10.7820   -6.0150 C.ar  128  TYR128      0.0417
     91  CZ         0.2400   11.2080   -5.4100 C.ar  128  TYR128      0.1957
     92  OH        -0.4700   12.3060   -5.8920 O.3   128  TYR128     -0.2866
@<TRIPOS>BOND
     1    84    83    2
     2    90    88   ar
     3    90    91   ar
     4    92    91    1
     5    83    82    1
     6    88    86   ar
     7    91    89   ar
     8    86    85    1
     9    86    87   ar
    10    89    87   ar
    11    82    85    1
    12    82    81    1
    13    76    75    2
    14    63    62    1
    15    60    62   ar
    16    60    58   ar
    17    75    74    1
    18    62    61   ar
    19    80    78   ar
    20    58    57   ar
    21    72    70   ar
    22    78    79   ar
    23    78    77    1
    24    77    74    1
    25    61    59   ar
    26    74    73    1
    27    40    39    1
    28    57    59   ar
    29    57    56    1
    30    70    71   ar
    31    70    69    1
    32    34    32    1
    33    56    53    1
    34    55    54    2
    35    14    12    1
    36    69    68    1
    37    39    36    1
    38    32    31    1
    39    53    54    1
    40    53    52    1
    41    54    64   am
    42    12    13    1
    43    12    11    1
    44    31    33    1
    45    31    28    1
    46    36    35    1
    47    36    37    1
    48    68    65    1
    49    65    64    1
    50    65    66    1
    51    51    49    1
    52    50    49    1
    53    49    48    2
    54    35    29   am
    55    48    47    1
    56    11     8    1
    57    30    29    2
    58    29    28    1
    59    47    46    1
    60    46    45    1
    61    37    38    2
    62    37    41   am
    63    28    27    1
    64    16    15    1
    65    16    17    1
    66    66    67    2
    67    15     9   am
    68    41    42    1
    69     9     8    1
    70     9    10    2
    71    27    21   am
    72     8     7    1
    73    17    18    2
    74    17    19   am
    75    45    42    1
    76    42    43    1
    77     7     3   am
    78    19    20    1
    79    21    22    2
    80    21    20    1
    81     6     5    1
    82     5     2    1
    83    20    23    1
    84     3     2    1
    85     3     4    2
    86    43    44    2
    87     2     1    1
    88    23    24    1
    89    24    26   am
    90    24    25    2
