@<TRIPOS>MOLECULE
tmp/4z9bA00.pdb
 98 95 0 0 0
SMALL
GASTEIGER

@<TRIPOS>ATOM
      1  N          5.5530    8.8050    8.0080 N.3    12  CYS12      -0.1221
      2  CA         6.0410    8.7650    6.6280 C.3    12  CYS12       0.1808
      3  C          6.0800   10.2190    6.1210 C.2    12  CYS12       0.2601
      4  O          6.0050   11.1990    6.9050 O.2    12  CYS12      -0.2717
      5  CB         5.1550    7.8730    5.7750 C.3    12  CYS12       0.0970
      6  SG         3.4000    8.3570    5.7150 S.3    12  CYS12      -0.0800
      7  N          6.2390   10.3950    4.8220 N.am   13  LEU13      -0.1965
      8  CA         6.5340   11.7300    4.3100 C.3    13  LEU13       0.1728
      9  C          5.2610   12.5300    4.1430 C.2    13  LEU13       0.2617
     10  O          5.2250   13.7350    4.3980 O.2    13  LEU13      -0.2715
     11  CB         7.3040   11.6290    2.9780 C.3    13  LEU13       0.0311
     12  CG         7.3860   12.8880    2.0910 C.3    13  LEU13       0.0022
     13  CD1        8.1680   14.0470    2.7240 C.3    13  LEU13       0.0001
     14  CD2        7.9830   12.4730    0.7580 C.3    13  LEU13       0.0001
     15  N          4.2290   11.8500    3.6800 N.am   14  GLY14      -0.1940
     16  CA         2.9720   12.4960    3.4220 C.3    14  GLY14       0.2014
     17  C          1.8960   12.2900    4.4630 C.2    14  GLY14       0.2639
     18  O          1.0420   13.1700    4.6340 O.2    14  GLY14      -0.2714
     19  N          1.9000   11.1280    5.1110 N.am   15  ASN15      -0.1958
     20  CA         0.8370   10.6980    6.0610 C.3    15  ASN15       0.1819
     21  C         -0.4750   10.3610    5.3630 C.2    15  ASN15       0.2621
     22  O         -1.5790   10.6140    5.9130 O.2    15  ASN15      -0.2715
     23  CB         0.6340   11.7190    7.2040 C.3    15  ASN15       0.1195
     24  CG        -0.2210   11.1930    8.3660 C.2    15  ASN15       0.2630
     25  OD1       -0.9370   11.9590    9.0220 O.2    15  ASN15      -0.2716
     26  ND2       -0.1380    9.8990    8.6410 N.am   15  ASN15      -0.0877
     27  N         -0.3580    9.7730    4.1680 N.am   16  ILE16      -0.1963
     28  CA        -1.5340    9.2980    3.4500 C.3    16  ILE16       0.1727
     29  C         -1.4670    7.8260    2.9980 C.2    16  ILE16       0.2616
     30  O         -2.5050    7.1870    2.8700 O.2    16  ILE16      -0.2715
     31  CB        -1.9800   10.2520    2.2880 C.3    16  ILE16       0.0290
     32  CG1       -1.0250   10.2290    1.0910 C.3    16  ILE16       0.0022
     33  CG2       -2.1380   11.6920    2.7800 C.3    16  ILE16       0.0023
     34  CD1       -1.7400   10.5810   -0.2100 C.3    16  ILE16       0.0001
     35  N         -0.2860    7.2650    2.7830 N.am   17  CYS17      -0.1954
     36  CA        -0.2030    5.8810    2.3320 C.3    17  CYS17       0.1843
     37  C          0.1890    4.9420    3.4950 C.2    17  CYS17       0.2625
     38  O         -0.6740    4.2670    4.0870 O.2    17  CYS17      -0.2714
     39  CB         0.7570    5.7600    1.1210 C.3    17  CYS17       0.0997
     40  SG         0.2830    6.7080   -0.3700 S.3    17  CYS17      -0.0797
     41  N          1.4760    4.9570    3.8570 N.am   18  ARG18      -0.1977
     42  CA         2.0950    3.9580    4.7520 C.3    18  ARG18       0.1597
     43  C          1.7580    4.0850    6.2320 C.2    18  ARG18       0.2287
     44  O          1.2360    3.1390    6.8420 O.2    18  ARG18      -0.2864
     45  CB         3.6250    4.0310    4.5810 C.3    18  ARG18       0.0334
     46  CG         4.1000    3.5860    3.1810 C.3    18  ARG18       0.0492
     47  CD         5.5960    3.7800    3.0120 C.3    18  ARG18       0.2205
     48  NE         5.8910    5.2030    2.8510 N.pl3  18  ARG18      -0.0865
     49  CZ         7.1040    5.7150    2.6720 C.cat  18  ARG18       0.5346
     50  NH1        8.1800    4.9380    2.6440 N.pl3  18  ARG18       0.1354
     51  NH2        7.2270    7.0320    2.5620 N.pl3  18  ARG18       0.1354
     52  N          6.0280   16.2920    6.1730 N.3    47  SER47      -0.1217
     53  CA         5.7300   17.4670    5.3230 C.3    47  SER47       0.1889
     54  C          4.2820   17.9590    5.4180 C.2    47  SER47       0.2288
     55  O          3.3940   17.2810    5.9770 O.2    47  SER47      -0.2866
     56  CB         6.0060   17.1550    3.8550 C.3    47  SER47       0.2089
     57  OG         4.9860   16.3240    3.3230 O.3    47  SER47      -0.2183
     58  N          2.4470   18.6980    2.7590 N.3    49  TYR49      -0.1227
     59  CA         1.8490   18.4500    1.4450 C.3    49  TYR49       0.1736
     60  C          0.4150   17.9820    1.4870 C.2    49  TYR49       0.2595
     61  O         -0.3840   18.3440    0.5870 O.2    49  TYR49      -0.2718
     62  CB         2.6940   17.4210    0.6110 C.3    49  TYR49       0.0548
     63  CG         3.8520   18.0530   -0.1100 C.ar   49  TYR49      -0.0200
     64  CD1        3.6240   19.0580   -1.0470 C.ar   49  TYR49      -0.0009
     65  CD2        5.1880   17.6930    0.1700 C.ar   49  TYR49      -0.0009
     66  CE1        4.6860   19.6820   -1.7270 C.ar   49  TYR49       0.0417
     67  CE2        6.2610   18.3070   -0.5020 C.ar   49  TYR49       0.0417
     68  CZ         6.0060   19.3140   -1.4620 C.ar   49  TYR49       0.1957
     69  OH         7.0070   19.9840   -2.1730 O.3    49  TYR49      -0.2866
     70  N          0.1000   17.1470    2.4900 N.am   50  GLU50      -0.1979
     71  CA        -1.1860   16.4330    2.5190 C.3    50  GLU50       0.1602
     72  C         -2.1280   16.8380    3.6660 C.2    50  GLU50       0.2287
     73  O         -3.1610   16.1920    3.8620 O.2    50  GLU50      -0.2864
     74  CB        -0.9390   14.9250    2.5490 C.3    50  GLU50       0.0415
     75  CG        -0.1220   14.3950    1.3770 C.3    50  GLU50       0.1163
     76  CD        -0.8190   14.5940    0.0560 C.2    50  GLU50       0.3649
     77  OE1       -2.0560   14.6770    0.1030 O.co2  50  GLU50      -0.2457
     78  OE2       -0.1480   14.6560   -1.0160 O.co2  50  GLU50      -0.2457
     79  N          7.7060    3.4010   -0.4640 N.3   129  ASP129     -0.1239
     80  CA         6.5980    4.2540   -0.8100 C.3   129  ASP129      0.1674
     81  C          5.7810    3.6880   -1.9820 C.2   129  ASP129      0.2266
     82  O          6.2890    3.5600   -3.1000 O.2   129  ASP129     -0.2867
     83  CB         7.1240    5.6660   -1.1520 C.3   129  ASP129      0.1410
     84  CG         6.0200    6.6860   -1.3030 C.2   129  ASP129      0.3668
     85  OD1        4.8370    6.3380   -1.1310 O.co2 129  ASP129     -0.2456
     86  OD2        6.3240    7.8370   -1.6220 O.co2 129  ASP129     -0.2456
     87  N          3.1620    5.2440   -3.3230 N.3   131  TYR131     -0.1241
     88  CA         2.5120    6.3580   -4.0380 C.3   131  TYR131      0.1605
     89  C          2.3960    6.0740   -5.5720 C.2   131  TYR131      0.2264
     90  O          1.3410    6.3230   -6.1660 O.2   131  TYR131     -0.2867
     91  CB         3.2390    7.7060   -3.7690 C.3   131  TYR131      0.0534
     92  CG         2.4240    8.9000   -4.2520 C.ar  131  TYR131     -0.0201
     93  CD1        1.4080    9.4570   -3.4720 C.ar  131  TYR131     -0.0009
     94  CD2        2.6190    9.4290   -5.5290 C.ar  131  TYR131     -0.0009
     95  CE1        0.6280   10.4960   -3.9630 C.ar  131  TYR131      0.0417
     96  CE2        1.8370   10.4550   -6.0130 C.ar  131  TYR131      0.0417
     97  CZ         0.8600   10.9900   -5.2320 C.ar  131  TYR131      0.1957
     98  OH         0.1360   12.0410   -5.7260 O.3   131  TYR131     -0.2866
@<TRIPOS>BOND
     1    90    89    2
     2    96    94   ar
     3    96    97   ar
     4    98    97    1
     5    89    88    1
     6    94    92   ar
     7    97    95   ar
     8    92    91    1
     9    92    93   ar
    10    88    91    1
    11    88    87    1
    12    95    93   ar
    13    82    81    2
    14    69    68    1
    15    81    80    1
    16    66    68   ar
    17    66    64   ar
    18    86    84   ar
    19    68    67   ar
    20    84    83    1
    21    84    85   ar
    22    83    80    1
    23    64    63   ar
    24    78    76   ar
    25    80    79    1
    26    67    65   ar
    27    40    39    1
    28    34    32    1
    29    63    65   ar
    30    63    62    1
    31    76    77   ar
    32    76    75    1
    33    61    60    2
    34    62    59    1
    35    14    12    1
    36    32    31    1
    37    39    36    1
    38    75    74    1
    39    59    60    1
    40    59    58    1
    41    60    70   am
    42    12    13    1
    43    12    11    1
    44    31    33    1
    45    31    28    1
    46    36    35    1
    47    36    37    1
    48    70    71    1
    49    71    74    1
    50    71    72    1
    51    51    49    1
    52    50    49    1
    53    49    48    2
    54    35    29   am
    55    48    47    1
    56    30    29    2
    57    11     8    1
    58    29    28    1
    59    47    46    1
    60    46    45    1
    61    57    56    1
    62    16    15    1
    63    16    17    1
    64    28    27    1
    65    37    41   am
    66    37    38    2
    67    72    73    2
    68    15     9   am
    69    56    53    1
    70    41    42    1
    71     9     8    1
    72     9    10    2
    73    27    21   am
    74     8     7    1
    75    17    18    2
    76    17    19   am
    77    45    42    1
    78    42    43    1
    79     7     3   am
    80    19    20    1
    81    53    54    1
    82    53    52    1
    83    21    22    2
    84    21    20    1
    85    54    55    2
    86     6     5    1
    87     5     2    1
    88    20    23    1
    89     3     2    1
    90     3     4    2
    91    43    44    2
    92     2     1    1
    93    23    24    1
    94    24    26   am
    95    24    25    2
