@<TRIPOS>MOLECULE
tmp/4z9dD00.pdb
 218 210 0 0 0
SMALL
GASTEIGER

@<TRIPOS>ATOM
      1  N         20.2530  -12.1500  -38.8260 N.3     8  TYR8       -0.1227
      2  CA        21.3380  -11.1770  -38.7780 C.3     8  TYR8        0.1736
      3  C         21.0250  -10.0100  -37.8510 C.2     8  TYR8        0.2595
      4  O         19.8730   -9.6170  -37.6930 O.2     8  TYR8       -0.2718
      5  CB        21.6310  -10.5960  -40.1590 C.3     8  TYR8        0.0548
      6  CG        22.0350  -11.5760  -41.2310 C.ar    8  TYR8       -0.0200
      7  CD1       23.3370  -12.0480  -41.3080 C.ar    8  TYR8       -0.0009
      8  CD2       21.1350  -11.9560  -42.2180 C.ar    8  TYR8       -0.0009
      9  CE1       23.7200  -12.9280  -42.3170 C.ar    8  TYR8        0.0417
     10  CE2       21.4990  -12.8390  -43.2140 C.ar    8  TYR8        0.0417
     11  CZ        22.7960  -13.3140  -43.2620 C.ar    8  TYR8        0.1957
     12  OH        23.1650  -14.1820  -44.2700 O.3     8  TYR8       -0.2866
     13  N         22.0710   -9.4250  -37.2840 N.am    9  ARG9       -0.1966
     14  CA        21.9330   -8.1900  -36.5370 C.3     9  ARG9        0.1729
     15  C         23.1080   -7.2860  -36.8620 C.2     9  ARG9        0.2616
     16  O         24.2480   -7.7360  -36.8830 O.2     9  ARG9       -0.2715
     17  CB        21.8580   -8.4580  -35.0260 C.3     9  ARG9        0.0348
     18  CG        21.8750   -7.1640  -34.2070 C.3     9  ARG9        0.0492
     19  CD        21.5970   -7.3890  -32.7240 C.3     9  ARG9        0.2205
     20  NE        21.8600   -6.1380  -32.0210 N.pl3   9  ARG9       -0.0865
     21  CZ        21.0170   -5.1180  -31.9850 C.cat   9  ARG9        0.5346
     22  NH1       19.8300   -5.2160  -32.5730 N.pl3   9  ARG9        0.1354
     23  NH2       21.3520   -4.0060  -31.3430 N.pl3   9  ARG9        0.1354
     24  N         22.8140   -6.0260  -37.1770 N.am   10  VAL10      -0.1963
     25  CA        23.8410   -5.0070  -37.3510 C.3    10  VAL10       0.1727
     26  C         24.0450   -4.3160  -36.0140 C.2    10  VAL10       0.2616
     27  O         23.0760   -3.8980  -35.3750 O.2    10  VAL10      -0.2715
     28  CB        23.4590   -3.9780  -38.4300 C.3    10  VAL10       0.0290
     29  CG1       24.4780   -2.8350  -38.4950 C.3    10  VAL10       0.0023
     30  CG2       23.3130   -4.6650  -39.8050 C.3    10  VAL10       0.0023
     31  N         25.2920   -4.2210  -35.5640 N.am   11  ASP11      -0.1957
     32  CA        25.5710   -3.5920  -34.2730 C.3    11  ASP11       0.1840
     33  C         26.9370   -2.9200  -34.2910 C.2    11  ASP11       0.2623
     34  O         27.8140   -3.3010  -35.0610 O.2    11  ASP11      -0.2715
     35  CB        25.5020   -4.6300  -33.1470 C.3    11  ASP11       0.1450
     36  CG        25.2150   -4.0020  -31.7810 C.2    11  ASP11       0.3671
     37  OD1       25.9470   -3.0800  -31.3650 O.co2  11  ASP11      -0.2456
     38  OD2       24.2560   -4.4400  -31.1170 O.co2  11  ASP11      -0.2456
     39  N         27.1150   -1.9150  -33.4430 N.am   12  SER12      -0.1936
     40  CA        28.3890   -1.1900  -33.3820 C.3    12  SER12       0.2055
     41  C         29.3840   -1.8370  -32.4170 C.2    12  SER12       0.2642
     42  O         30.5610   -1.4660  -32.4030 O.2    12  SER12      -0.2714
     43  CB        28.1620    0.2630  -32.9800 C.3    12  SER12       0.2130
     44  OG        27.4530    0.3160  -31.7640 O.3    12  SER12      -0.2179
     45  N         28.9040   -2.7520  -31.5760 N.am   13  ARG13      -0.1977
     46  CA        29.7600   -3.4400  -30.6110 C.3    13  ARG13       0.1597
     47  C         30.5930   -4.4640  -31.3870 C.2    13  ARG13       0.2287
     48  O         30.0580   -5.1400  -32.2570 O.2    13  ARG13      -0.2864
     49  CB        28.9180   -4.1400  -29.5180 C.3    13  ARG13       0.0334
     50  CG        28.2070   -3.2160  -28.4790 C.3    13  ARG13       0.0492
     51  CD        26.6680   -3.4550  -28.4340 C.3    13  ARG13       0.2205
     52  NE        26.1610   -4.3240  -27.3580 N.pl3  13  ARG13      -0.0865
     53  CZ        24.9030   -4.7900  -27.2880 C.cat  13  ARG13       0.5346
     54  NH1       24.5200   -5.5800  -26.2710 N.pl3  13  ARG13       0.1354
     55  NH2       24.0190   -4.4860  -28.2460 N.pl3  13  ARG13       0.1354
     56  N         18.2030   -3.0970  -23.9780 N.3    26  HIS26      -0.1241
     57  CA        18.3650   -1.8920  -23.1700 C.3    26  HIS26       0.1621
     58  C         17.6770   -2.0110  -21.8130 C.2    26  HIS26       0.2264
     59  O         18.2180   -1.5960  -20.7890 O.2    26  HIS26      -0.2867
     60  CB        17.7960   -0.6730  -23.8940 C.3    26  HIS26       0.0745
     61  CG        18.5810   -0.2410  -25.0860 C.ar   26  HIS26       0.0817
     62  ND1       19.7540    0.4740  -24.9890 N.ar   26  HIS26      -0.2268
     63  CD2       18.3290   -0.3680  -26.4160 C.ar   26  HIS26       0.1154
     64  CE1       20.2090    0.7430  -26.1970 C.ar   26  HIS26       0.1986
     65  NE2       19.3640    0.2420  -27.0800 N.ar   26  HIS26      -0.2212
     66  N          9.2130   -0.1020  -29.7640 N.3    35  HIS35      -0.1226
     67  CA        10.4570   -0.6900  -30.2470 C.3    35  HIS35       0.1752
     68  C         10.5590   -0.6050  -31.7730 C.2    35  HIS35       0.2596
     69  O         11.5930   -0.2080  -32.3210 O.2    35  HIS35      -0.2718
     70  CB        10.5660   -2.1370  -29.8020 C.3    35  HIS35       0.0759
     71  CG        11.7470   -2.8520  -30.4120 C.ar   35  HIS35       0.0818
     72  ND1       13.0200   -2.7190  -29.9170 N.ar   35  HIS35      -0.2268
     73  CD2       11.8300   -3.6460  -31.4870 C.ar   35  HIS35       0.1154
     74  CE1       13.8540   -3.4280  -30.6530 C.ar   35  HIS35       0.1986
     75  NE2       13.1440   -4.0170  -31.6300 N.ar   35  HIS35      -0.2212
     76  N          9.4940   -0.9960  -32.4630 N.am   36  LEU36      -0.1966
     77  CA         9.5350   -1.0380  -33.9160 C.3    36  LEU36       0.1728
     78  C          9.7260    0.3550  -34.5290 C.2    36  LEU36       0.2616
     79  O         10.3360    0.4730  -35.5920 O.2    36  LEU36      -0.2715
     80  CB         8.2790   -1.7170  -34.4710 C.3    36  LEU36       0.0311
     81  CG         8.1830   -3.2180  -34.1590 C.3    36  LEU36       0.0022
     82  CD1        6.8460   -3.7770  -34.6020 C.3    36  LEU36       0.0001
     83  CD2        9.3100   -3.9830  -34.8460 C.3    36  LEU36       0.0001
     84  N          9.2380    1.4020  -33.8610 N.am   37  ARG37      -0.1963
     85  CA         9.4650    2.7810  -34.3270 C.3    37  ARG37       0.1729
     86  C         10.8720    3.2760  -34.0410 C.2    37  ARG37       0.2616
     87  O         11.3520    4.2080  -34.6900 O.2    37  ARG37      -0.2715
     88  CB         8.5040    3.7750  -33.6710 C.3    37  ARG37       0.0348
     89  CG         7.0360    3.5490  -33.8880 C.3    37  ARG37       0.0492
     90  CD         6.2780    4.6630  -33.1740 C.3    37  ARG37       0.2205
     91  NE         4.8330    4.4750  -33.1970 N.pl3  37  ARG37      -0.0865
     92  CZ         4.1150    4.1460  -32.1210 C.cat  37  ARG37       0.5346
     93  NH1        4.7110    3.9790  -30.9360 N.pl3  37  ARG37       0.1354
     94  NH2        2.7990    3.9940  -32.2230 N.pl3  37  ARG37       0.1354
     95  N         11.5140    2.6820  -33.0410 N.am   38  GLY38      -0.1955
     96  CA        12.8160    3.1430  -32.5960 C.3    38  GLY38       0.1869
     97  C         12.7250    3.9950  -31.3380 C.2    38  GLY38       0.2309
     98  O         13.7440    4.4480  -30.8060 O.2    38  GLY38      -0.2863
     99  N         14.5880    2.5340  -28.3450 N.3    41  CYS41      -0.1221
    100  CA        15.9340    2.0760  -28.6550 C.3    41  CYS41       0.1808
    101  C         16.9850    3.1760  -28.4130 C.2    41  CYS41       0.2601
    102  O         16.7520    4.0960  -27.6200 O.2    41  CYS41      -0.2717
    103  CB        15.9760    1.5460  -30.0900 C.3    41  CYS41       0.0970
    104  SG        14.9860    0.0110  -30.2050 S.3    41  CYS41      -0.0800
    105  N         18.1510    3.0500  -29.0450 N.am   42  ALA42      -0.1965
    106  CA        19.2940    3.9120  -28.7250 C.3    42  ALA42       0.1728
    107  C         18.9950    5.4070  -28.8800 C.2    42  ALA42       0.2616
    108  O         19.4770    6.2230  -28.0900 O.2    42  ALA42      -0.2715
    109  CB        20.5030    3.5310  -29.5990 C.3    42  ALA42       0.0334
    110  N         18.1700    5.7630  -29.8610 N.am   43  ALA43      -0.1977
    111  CA        17.8570    7.1680  -30.1040 C.3    43  ALA43       0.1597
    112  C         16.6720    7.6590  -29.2670 C.2    43  ALA43       0.2287
    113  O         16.2450    8.8050  -29.3990 O.2    43  ALA43      -0.2864
    114  CB        17.5820    7.3900  -31.5680 C.3    43  ALA43       0.0319
    115  N         16.6890   -6.3680  -31.8910 N.3    52  ALA52      -0.1231
    116  CA        16.2470   -6.4440  -33.2840 C.3    52  ALA52       0.1694
    117  C         17.1810   -7.2800  -34.1420 C.2    52  ALA52       0.2593
    118  O         18.4020   -7.1600  -34.0440 O.2    52  ALA52      -0.2718
    119  CB        16.1240   -5.0370  -33.8810 C.3    52  ALA52       0.0304
    120  N         16.5980   -8.1180  -34.9950 N.am   53  THR53      -0.1939
    121  CA        17.3450   -8.8690  -35.9950 C.3    53  THR53       0.2028
    122  C         16.5130   -8.9370  -37.2770 C.2    53  THR53       0.2642
    123  O         15.3310   -8.5990  -37.2750 O.2    53  THR53      -0.2714
    124  CB        17.6760  -10.3260  -35.5240 C.3    53  THR53       0.1808
    125  OG1       16.4850  -11.1290  -35.5620 O.3    53  THR53      -0.2208
    126  CG2       18.2750  -10.3690  -34.0910 C.3    53  THR53       0.0379
    127  N         17.1170   -9.4040  -38.3630 N.am   54  THR54      -0.1950
    128  CA        16.3830   -9.5850  -39.6020 C.3    54  THR54       0.1897
    129  C         16.8670  -10.8390  -40.3130 C.2    54  THR54       0.2313
    130  O         18.0300  -11.2270  -40.1910 O.2    54  THR54      -0.2863
    131  CB        16.5200   -8.3710  -40.5550 C.3    54  THR54       0.1794
    132  OG1       15.8980   -8.6880  -41.8000 O.3    54  THR54      -0.2208
    133  CG2       17.9840   -8.0350  -40.8350 C.3    54  THR54       0.0378
    134  N         18.6480   -6.4030  -46.3640 N.3    59  GLU59      -0.1231
    135  CA        18.2510   -5.3990  -45.3840 C.3    59  GLU59       0.1699
    136  C         19.4190   -4.9520  -44.5020 C.2    59  GLU59       0.2592
    137  O         19.4930   -3.7830  -44.1290 O.2    59  GLU59      -0.2718
    138  CB        17.1270   -5.9320  -44.4880 C.3    59  GLU59       0.0402
    139  CG        15.7540   -5.9820  -45.1550 C.3    59  GLU59       0.1161
    140  CD        14.6420   -6.4170  -44.1980 C.2    59  GLU59       0.3649
    141  OE1       14.9340   -6.7010  -43.0180 O.co2  59  GLU59      -0.2457
    142  OE2       13.4720   -6.4780  -44.6320 O.co2  59  GLU59      -0.2457
    143  N         20.3180   -5.8690  -44.1500 N.am   60  THR60      -0.1953
    144  CA        21.4240   -5.5070  -43.2480 C.3    60  THR60       0.1897
    145  C         22.3000   -4.4070  -43.8510 C.2    60  THR60       0.2313
    146  O         22.7200   -3.4920  -43.1410 O.2    60  THR60      -0.2863
    147  CB        22.3170   -6.7280  -42.8660 C.3    60  THR60       0.1794
    148  OG1       22.9850   -7.2450  -44.0230 O.3    60  THR60      -0.2208
    149  CG2       21.4730   -7.8100  -42.2420 C.3    60  THR60       0.0378
    150  N         20.3060   -1.1460  -43.4780 N.3    63  ILE63      -0.1245
    151  CA        20.3720   -0.7040  -42.0870 C.3    63  ILE63       0.1561
    152  C         21.7330   -0.0840  -41.7610 C.2    63  ILE63       0.2260
    153  O         21.8210    0.9790  -41.1300 O.2    63  ILE63      -0.2867
    154  CB        20.0730   -1.8770  -41.1290 C.3    63  ILE63       0.0252
    155  CG1       18.6020   -2.2890  -41.2730 C.3    63  ILE63       0.0019
    156  CG2       20.3780   -1.4930  -39.6850 C.3    63  ILE63       0.0019
    157  CD1       18.2560   -3.6470  -40.6510 C.3    63  ILE63       0.0001
    158  N         22.0810    3.3410  -43.3380 N.3    66  GLN66      -0.1231
    159  CA        21.3190    4.3260  -42.5710 C.3    66  GLN66       0.1698
    160  C         22.1350    4.8180  -41.3860 C.2    66  GLN66       0.2592
    161  O         22.2420    6.0160  -41.1560 O.2    66  GLN66      -0.2718
    162  CB        19.9930    3.7330  -42.0670 C.3    66  GLN66       0.0381
    163  CG        19.1640    4.6950  -41.2010 C.3    66  GLN66       0.0905
    164  CD        18.0670    3.9950  -40.3670 C.2    66  GLN66       0.2608
    165  OE1       17.7500    2.8190  -40.5730 O.2    66  GLN66      -0.2717
    166  NE2       17.5170    4.7200  -39.3930 N.am   66  GLN66      -0.0878
    167  N         22.7410    3.8920  -40.6550 N.am   67  TYR67      -0.1976
    168  CA        23.5160    4.2790  -39.4880 C.3    67  TYR67       0.1639
    169  C         24.8040    5.0000  -39.8790 C.2    67  TYR67       0.2290
    170  O         25.1390    6.0310  -39.2990 O.2    67  TYR67      -0.2864
    171  CB        23.8470    3.0570  -38.6230 C.3    67  TYR67       0.0560
    172  CG        22.6400    2.3740  -38.0080 C.ar   67  TYR67      -0.0198
    173  CD1       21.3890    2.9890  -37.9970 C.ar   67  TYR67      -0.0009
    174  CD2       22.7560    1.1160  -37.4210 C.ar   67  TYR67      -0.0009
    175  CE1       20.2860    2.3650  -37.4350 C.ar   67  TYR67       0.0417
    176  CE2       21.6650    0.4870  -36.8620 C.ar   67  TYR67       0.0417
    177  CZ        20.4350    1.1160  -36.8670 C.ar   67  TYR67       0.1957
    178  OH        19.3390    0.5010  -36.3090 O.3    67  TYR67      -0.2866
    179  N         24.3580    8.6410  -40.8930 N.3    70  SER70      -0.1217
    180  CA        23.7010    9.5230  -39.9400 C.3    70  SER70       0.1889
    181  C         24.6860   10.4850  -39.2860 C.2    70  SER70       0.2288
    182  O         25.8460   10.1400  -39.0410 O.2    70  SER70      -0.2866
    183  CB        22.9880    8.7090  -38.8640 C.3    70  SER70       0.2089
    184  OG        23.9280    8.0750  -38.0270 O.3    70  SER70      -0.2183
    185  N         27.4740   10.0190  -36.3580 N.3    73  PHE73      -0.1241
    186  CA        27.9000    8.6290  -36.2550 C.3    73  PHE73       0.1605
    187  C         29.3920    8.5110  -36.5440 C.2    73  PHE73       0.2264
    188  O         29.8720    8.9400  -37.5980 O.2    73  PHE73      -0.2867
    189  CB        27.1240    7.7170  -37.2120 C.3    73  PHE73       0.0534
    190  CG        27.4580    6.2530  -37.0450 C.ar   73  PHE73      -0.0203
    191  CD1       26.7080    5.4610  -36.1890 C.ar   73  PHE73      -0.0042
    192  CD2       28.5250    5.6760  -37.7180 C.ar   73  PHE73      -0.0042
    193  CE1       27.0080    4.1220  -36.0160 C.ar   73  PHE73      -0.0003
    194  CE2       28.8320    4.3330  -37.5440 C.ar   73  PHE73      -0.0003
    195  CZ        28.0770    3.5590  -36.6930 C.ar   73  PHE73      -0.0000
    196  N         30.6660   -0.6990  -37.8160 N.3    77  LEU77      -0.1245
    197  CA        29.5250   -1.5860  -37.6980 C.3    77  LEU77       0.1561
    198  C         29.9050   -2.9860  -38.1520 C.2    77  LEU77       0.2260
    199  O         30.7340   -3.1490  -39.0410 O.2    77  LEU77      -0.2867
    200  CB        28.3620   -1.0580  -38.5430 C.3    77  LEU77       0.0270
    201  CG        27.7370    0.2670  -38.0940 C.3    77  LEU77       0.0019
    202  CD1       26.6910    0.7430  -39.0930 C.3    77  LEU77       0.0001
    203  CD2       27.1000    0.0780  -36.7290 C.3    77  LEU77       0.0001
    204  N         11.4780   -9.0370  -40.1010 N.3   118  ASP118     -0.1239
    205  CA        11.8600   -8.6470  -38.7460 C.3   118  ASP118      0.1674
    206  C         11.6070   -9.7320  -37.7250 C.2   118  ASP118      0.2266
    207  O         10.5230  -10.3120  -37.6750 O.2   118  ASP118     -0.2867
    208  CB        11.1040   -7.3890  -38.3140 C.3   118  ASP118      0.1410
    209  CG        11.4390   -6.1850  -39.1560 C.2   118  ASP118      0.3668
    210  OD1       12.4960   -5.5570  -38.9020 O.co2 118  ASP118     -0.2456
    211  OD2       10.6610   -5.8910  -40.0920 O.co2 118  ASP118     -0.2456
    212  N         12.4700  -10.3850  -33.3980 N.3   120  VAL120     -0.1245
    213  CA        13.0760   -9.8550  -32.1820 C.3   120  VAL120      0.1561
    214  C         13.4000  -10.9630  -31.1950 C.2   120  VAL120      0.2260
    215  O         12.6790  -11.9550  -31.1020 O.2   120  VAL120     -0.2867
    216  CB        12.1660   -8.8020  -31.4790 C.3   120  VAL120      0.0252
    217  CG1       11.9350   -7.5900  -32.3910 C.3   120  VAL120      0.0019
    218  CG2       10.8350   -9.4100  -31.0610 C.3   120  VAL120      0.0019
@<TRIPOS>BOND
     1   134   135    1
     2   135   136    1
     3   135   138    1
     4   139   138    1
     5   139   140    1
     6   142   140   ar
     7   136   143   am
     8   136   137    2
     9    12    11    1
    10   140   141   ar
    11   143   144    1
    12   148   147    1
    13   145   144    1
    14   145   146    2
    15   150   151    1
    16   158   159    1
    17    11    10   ar
    18    11     9   ar
    19   144   147    1
    20    10     8   ar
    21   147   149    1
    22   159   162    1
    23   159   160    1
    24     9     7   ar
    25     8     6   ar
    26   151   152    1
    27   151   154    1
    28   162   163    1
    29   132   131    1
    30   152   153    2
    31   160   161    2
    32   160   167   am
    33     7     6   ar
    34   155   154    1
    35   155   157    1
    36     6     5    1
    37   163   164    1
    38   154   156    1
    39   179   180    1
    40   133   131    1
    41   167   168    1
    42   165   164    2
    43   131   128    1
    44   164   166   am
    45   129   130    2
    46   129   128    1
    47     5     2    1
    48   204   205    1
    49   211   209   ar
    50   180   181    1
    51   180   183    1
    52   169   168    1
    53   169   170    2
    54    30    28    1
    55   128   127    1
    56   168   171    1
    57   181   182    2
    58   209   210   ar
    59   209   208    1
    60   202   201    1
    61   199   198    2
    62   183   184    1
    63     1     2    1
    64     2     3    1
    65   205   208    1
    66   205   206    1
    67   171   172    1
    68   200   201    1
    69   200   197    1
    70    29    28    1
    71    28    25    1
    72   127   122   am
    73   198   197    1
    74   201   203    1
    75   172   173   ar
    76   172   174   ar
    77   173   175   ar
    78     3     4    2
    79     3    13   am
    80   196   197    1
    81   206   207    2
    82   192   194   ar
    83   192   190   ar
    84   188   187    2
    85   194   195   ar
    86   175   177   ar
    87   174   176   ar
    88    25    24    1
    89    25    26    1
    90    13    14    1
    91   122   123    2
    92   122   121    1
    93   189   190    1
    94   189   186    1
    95    24    15   am
    96   190   191   ar
    97    16    15    2
    98   177   176   ar
    99   177   178    1
   100    15    14    1
   101   195   193   ar
   102   187   186    1
   103    14    17    1
   104   185   186    1
   105   191   193   ar
   106    26    31   am
   107    26    27    2
   108   121   124    1
   109   121   120    1
   110    79    78    2
   111    31    32    1
   112   125   124    1
   113   124   126    1
   114    34    33    2
   115    17    18    1
   116   120   117   am
   117    83    81    1
   118    87    86    2
   119    82    81    1
   120    78    77    1
   121    78    84   am
   122    80    81    1
   123    80    77    1
   124    85    86    1
   125    85    84    1
   126    85    88    1
   127    33    32    1
   128    33    39   am
   129    32    35    1
   130    18    19    1
   131   117   118    2
   132   117   116    1
   133    86    95   am
   134    77    76    1
   135    89    88    1
   136    89    90    1
   137   119   116    1
   138    39    40    1
   139   212   213    1
   140    40    43    1
   141    40    41    1
   142   116   115    1
   143    91    90    1
   144    91    92    2
   145    35    36    1
   146    95    96    1
   147    43    44    1
   148    19    20    1
   149    96    97    1
   150    22    21    1
   151    76    68   am
   152    41    42    2
   153    41    45   am
   154   217   216    1
   155    69    68    2
   156    48    47    2
   157    94    92    1
   158   213   216    1
   159   213   214    1
   160    92    93    1
   161    20    21    2
   162    21    23    1
   163    36    37   ar
   164    36    38   ar
   165    68    67    1
   166    75    73   ar
   167    75    74   ar
   168    45    46    1
   169   114   111    1
   170    73    71   ar
   171   216   218    1
   172    47    46    1
   173    97    98    2
   174   214   215    2
   175    74    72   ar
   176    46    49    1
   177    71    72   ar
   178    71    70    1
   179    67    70    1
   180    67    66    1
   181   104   103    1
   182   111   110    1
   183   111   112    1
   184   103   100    1
   185   110   107   am
   186   109   106    1
   187    49    50    1
   188   113   112    2
   189   105   106    1
   190   105   101   am
   191   107   106    1
   192   107   108    2
   193   100   101    1
   194   100    99    1
   195    50    51    1
   196    51    52    1
   197   101   102    2
   198    55    53    1
   199    52    53    2
   200    53    54    1
   201    65    63   ar
   202    65    64   ar
   203    63    61   ar
   204    64    62   ar
   205    61    62   ar
   206    61    60    1
   207    56    57    1
   208    60    57    1
   209    57    58    1
   210    58    59    2
