@<TRIPOS>MOLECULE
tmp/4z9gB04.pdb
 90 83 0 0 0
SMALL
GASTEIGER

@<TRIPOS>ATOM
      1  N        -14.2380   88.1230  -35.1820 N.3    16  CYS16      -0.1221
      2  CA       -14.1610   89.5250  -34.7840 C.3    16  CYS16       0.1808
      3  C        -14.6580   89.7010  -33.3530 C.2    16  CYS16       0.2601
      4  O        -14.0350   90.3880  -32.5460 O.2    16  CYS16      -0.2717
      5  CB       -14.9920   90.3910  -35.7340 C.3    16  CYS16       0.0970
      6  SG       -14.3950   90.4260  -37.4410 S.3    16  CYS16      -0.0800
      7  N        -15.7870   89.0710  -33.0490 N.am   17  ILE17      -0.1979
      8  CA       -16.3740   89.1250  -31.7170 C.3    17  ILE17       0.1595
      9  C        -15.3920   88.5990  -30.6820 C.2    17  ILE17       0.2287
     10  O        -15.1460   89.2380  -29.6580 O.2    17  ILE17      -0.2864
     11  CB       -17.6880   88.3090  -31.6620 C.3    17  ILE17       0.0276
     12  CG1      -18.6910   88.8610  -32.6740 C.3    17  ILE17       0.0022
     13  CG2      -18.3020   88.3450  -30.2770 C.3    17  ILE17       0.0022
     14  CD1      -20.0920   88.3250  -32.5050 C.3    17  ILE17       0.0001
     15  N        -12.2030   90.9310  -29.9490 N.3    20  VAL20      -0.1231
     16  CA       -12.4710   92.0710  -29.0850 C.3    20  VAL20       0.1692
     17  C        -12.7460   91.6080  -27.6550 C.2    20  VAL20       0.2591
     18  O        -12.4250   92.2960  -26.6900 O.2    20  VAL20      -0.2718
     19  CB       -13.6560   92.8930  -29.5990 C.3    20  VAL20       0.0266
     20  CG1      -13.7610   94.2000  -28.8280 C.3    20  VAL20       0.0020
     21  CG2      -13.4970   93.1640  -31.0730 C.3    20  VAL20       0.0020
     22  N        -13.3420   90.4300  -27.5280 N.am   21  ALA21      -0.1980
     23  CA       -13.5420   89.8130  -26.2260 C.3    21  ALA21       0.1597
     24  C        -12.2010   89.4300  -25.6130 C.2    21  ALA21       0.2287
     25  O        -11.9580   89.6600  -24.4290 O.2    21  ALA21      -0.2864
     26  CB       -14.4230   88.5940  -26.3540 C.3    21  ALA21       0.0319
     27  N        -10.2050   92.8400  -24.6540 N.3    24  VAL24      -0.1231
     28  CA       -10.6430   93.5510  -23.4600 C.3    24  VAL24       0.1692
     29  C        -10.1470   92.8400  -22.2190 C.2    24  VAL24       0.2591
     30  O         -9.6170   93.4690  -21.3080 O.2    24  VAL24      -0.2718
     31  CB       -12.1720   93.6940  -23.3980 C.3    24  VAL24       0.0266
     32  CG1      -12.5950   94.2400  -22.0440 C.3    24  VAL24       0.0020
     33  CG2      -12.6580   94.6010  -24.5170 C.3    24  VAL24       0.0020
     34  N        -10.2980   91.5200  -22.2100 N.am   25  ALA25      -0.1980
     35  CA        -9.8160   90.6950  -21.1120 C.3    25  ALA25       0.1597
     36  C         -8.3130   90.8670  -20.9090 C.2    25  ALA25       0.2287
     37  O         -7.8400   91.0040  -19.7820 O.2    25  ALA25      -0.2864
     38  CB       -10.1530   89.2430  -21.3640 C.3    25  ALA25       0.0319
     39  N         -7.7490   94.2130  -19.2060 N.3    28  LEU28      -0.1245
     40  CA        -8.1000   94.1440  -17.7870 C.3    28  LEU28       0.1561
     41  C         -7.0170   93.4520  -16.9770 C.2    28  LEU28       0.2260
     42  O         -6.6490   93.9060  -15.8950 O.2    28  LEU28      -0.2867
     43  CB        -9.4190   93.3940  -17.5880 C.3    28  LEU28       0.0270
     44  CG       -10.6310   93.8430  -18.4080 C.3    28  LEU28       0.0019
     45  CD1      -11.8820   93.0750  -18.0070 C.3    28  LEU28       0.0001
     46  CD2      -10.8490   95.3370  -18.2880 C.3    28  LEU28       0.0001
     47  N        -14.0610   83.7460  -27.3810 N.3   400  PHE400     -0.1241
     48  CA       -15.0240   84.2160  -26.4000 C.3   400  PHE400      0.1605
     49  C        -15.0660   83.2670  -25.2080 C.2   400  PHE400      0.2264
     50  O        -15.0320   83.6900  -24.0650 O.2   400  PHE400     -0.2867
     51  CB       -16.4060   84.3500  -27.0280 C.3   400  PHE400      0.0534
     52  CG       -17.4240   84.9340  -26.1060 C.ar  400  PHE400     -0.0203
     53  CD1      -17.4330   86.2910  -25.8420 C.ar  400  PHE400     -0.0042
     54  CD2      -18.3720   84.1320  -25.5030 C.ar  400  PHE400     -0.0042
     55  CE1      -18.3700   86.8390  -24.9910 C.ar  400  PHE400     -0.0003
     56  CE2      -19.3150   84.6700  -24.6530 C.ar  400  PHE400     -0.0003
     57  CZ       -19.3150   86.0270  -24.3950 C.ar  400  PHE400     -0.0000
     58  N        -11.9610   83.6240  -23.3400 N.3   403  SER403     -0.1202
     59  CA       -12.0020   84.9410  -22.7150 C.3   403  SER403      0.2020
     60  C        -12.9210   84.9480  -21.4960 C.2   403  SER403      0.2618
     61  O        -12.5570   85.4700  -20.4430 O.2   403  SER403     -0.2717
     62  CB       -12.4470   86.0130  -23.7090 C.3   403  SER403      0.2103
     63  OG       -13.8410   85.9400  -23.9340 O.3   403  SER403     -0.2182
     64  N        -14.1090   84.3680  -21.6300 N.am  404  VAL404     -0.1979
     65  CA       -15.0360   84.3400  -20.5060 C.3   404  VAL404      0.1595
     66  C        -14.5140   83.4270  -19.4040 C.2   404  VAL404      0.2287
     67  O        -14.6190   83.7390  -18.2170 O.2   404  VAL404     -0.2864
     68  CB       -16.4450   83.9010  -20.9310 C.3   404  VAL404      0.0276
     69  CG1      -17.3630   83.8280  -19.7180 C.3   404  VAL404      0.0022
     70  CG2      -17.0010   84.8660  -21.9490 C.3   404  VAL404      0.0022
     71  N        -11.9340   85.3190  -17.5090 N.3   407  CYS407     -0.1235
     72  CA       -12.6470   86.3590  -16.7720 C.3   407  CYS407      0.1677
     73  C        -13.3750   85.7640  -15.5760 C.2   407  CYS407      0.2270
     74  O        -13.4530   86.3750  -14.5110 O.2   407  CYS407     -0.2867
     75  CB       -13.6450   87.0680  -17.6920 C.3   407  CYS407      0.0956
     76  SG       -14.9280   88.0200  -16.8410 S.3   407  CYS407     -0.0801
     77  N        -10.9580   84.9110  -12.8700 N.3   410  ASN410     -0.1225
     78  CA       -10.5840   86.1830  -12.2730 C.3   410  ASN410      0.1785
     79  C        -11.6040   86.6260  -11.2220 C.2   410  ASN410      0.2597
     80  O        -11.2380   87.2120  -10.2060 O.2   410  ASN410     -0.2718
     81  CB       -10.4270   87.2540  -13.3560 C.3   410  ASN410      0.1169
     82  CG        -9.6280   88.4520  -12.8810 C.2   410  ASN410      0.2627
     83  OD1       -8.9060   88.3770  -11.8860 O.2   410  ASN410     -0.2716
     84  ND2       -9.7490   89.5650  -13.5970 N.am  410  ASN410     -0.0877
     85  N        -12.8780   86.3290  -11.4630 N.am  411  SER411     -0.1952
     86  CA       -13.9460   86.7290  -10.5450 C.3   411  SER411      0.1924
     87  C        -14.0350   85.8320   -9.3120 C.2   411  SER411      0.2314
     88  O        -14.4740   86.2710   -8.2480 O.2   411  SER411     -0.2863
     89  CB       -15.2990   86.7180  -11.2560 C.3   411  SER411      0.2116
     90  OG       -15.9840   85.5020  -11.0050 O.3   411  SER411     -0.2180
@<TRIPOS>BOND
     1     6     5    1
     2     5     2    1
     3     1     2    1
     4     2     3    1
     5     3     7   am
     6     3     4    2
     7     7     8    1
     8    12    14    1
     9    12    11    1
    10     8    11    1
    11     8     9    1
    12    11    13    1
    13    21    19    1
    14     9    10    2
    15    15    16    1
    16    19    16    1
    17    19    20    1
    18    16    17    1
    19    17    22   am
    20    17    18    2
    21    22    23    1
    22    47    48    1
    23    51    48    1
    24    51    52    1
    25    48    49    1
    26    26    23    1
    27    23    24    1
    28    52    53   ar
    29    52    54   ar
    30    53    55   ar
    31    24    25    2
    32    54    56   ar
    33    49    50    2
    34    55    57   ar
    35    27    28    1
    36    56    57   ar
    37    33    31    1
    38    63    62    1
    39    62    59    1
    40    28    31    1
    41    28    29    1
    42    31    32    1
    43    58    59    1
    44    59    60    1
    45    29    34   am
    46    29    30    2
    47    34    35    1
    48    70    68    1
    49    64    60   am
    50    64    65    1
    51    60    61    2
    52    38    35    1
    53    35    36    1
    54    68    65    1
    55    68    69    1
    56    36    37    2
    57    65    66    1
    58    66    67    2
    59    39    40    1
    60    44    46    1
    61    44    45    1
    62    44    43    1
    63    40    43    1
    64    40    41    1
    65    75    76    1
    66    75    72    1
    67    71    72    1
    68    41    42    2
    69    72    73    1
    70    73    74    2
    71    84    82   am
    72    81    82    1
    73    81    78    1
    74    82    83    2
    75    77    78    1
    76    78    79    1
    77    85    79   am
    78    85    86    1
    79    89    90    1
    80    89    86    1
    81    79    80    2
    82    86    87    1
    83    87    88    2
