@<TRIPOS>MOLECULE
tmp/4z9gC04.pdb
 125 121 0 0 0
SMALL
GASTEIGER

@<TRIPOS>ATOM
      1  N        -36.4050  104.8510   -8.0950 N.3   350  LYS350     -0.1245
      2  CA       -35.8990  105.7030   -9.1600 C.3   350  LYS350      0.1561
      3  C        -35.6190  104.8780  -10.4110 C.2   350  LYS350      0.2260
      4  O        -35.9250  105.3040  -11.5240 O.2   350  LYS350     -0.2867
      5  CB       -34.6200  106.4190   -8.7180 C.3   350  LYS350      0.0271
      6  CG       -34.8280  107.5550   -7.7280 C.3   350  LYS350      0.0035
      7  CD       -33.4890  108.1650   -7.3120 C.3   350  LYS350      0.0206
      8  CE       -33.6620  109.2900   -6.2930 C.3   350  LYS350      0.1093
      9  NZ       -32.3590  109.7450   -5.7230 N.3   350  LYS350     -0.1314
     10  N        -38.9130  104.0400  -12.2190 N.3   353  LYS353     -0.1231
     11  CA       -39.4340  105.2310  -12.8780 C.3   353  LYS353      0.1693
     12  C        -38.6370  105.5520  -14.1410 C.2   353  LYS353      0.2591
     13  O        -39.1980  105.9390  -15.1660 O.2   353  LYS353     -0.2718
     14  CB       -39.4020  106.4210  -11.9180 C.3   353  LYS353      0.0285
     15  CG       -40.2990  106.2620  -10.7010 C.3   353  LYS353      0.0035
     16  CD       -40.2620  107.4900   -9.7980 C.3   353  LYS353      0.0206
     17  CE       -40.8480  108.7140  -10.4760 C.3   353  LYS353      0.1093
     18  NZ       -40.9160  109.8700   -9.5410 N.3   353  LYS353     -0.1314
     19  N        -37.3240  105.3800  -14.0550 N.am  354  ALA354     -0.1980
     20  CA       -36.4310  105.6320  -15.1760 C.3   354  ALA354      0.1597
     21  C        -36.7630  104.7180  -16.3370 C.2   354  ALA354      0.2287
     22  O        -36.8630  105.1550  -17.4820 O.2   354  ALA354     -0.2864
     23  CB       -35.0070  105.4050  -14.7510 C.3   354  ALA354      0.0319
     24  N        -39.7870  105.6430  -18.1410 N.3   357  VAL357     -0.1231
     25  CA       -39.7170  106.7710  -19.0500 C.3   357  VAL357      0.1692
     26  C        -39.0860  106.2960  -20.3400 C.2   357  VAL357      0.2591
     27  O        -39.4920  106.6740  -21.4370 O.2   357  VAL357     -0.2718
     28  CB       -38.8740  107.9050  -18.4530 C.3   357  VAL357      0.0266
     29  CG1      -38.5060  108.9230  -19.5180 C.3   357  VAL357      0.0020
     30  CG2      -39.6220  108.5610  -17.3070 C.3   357  VAL357      0.0020
     31  N        -38.0910  105.4370  -20.1860 N.am  358  LEU358     -0.1980
     32  CA       -37.3280  104.9400  -21.3130 C.3   358  LEU358      0.1596
     33  C        -38.1800  103.9960  -22.1350 C.2   358  LEU358      0.2287
     34  O        -37.9600  103.8250  -23.3310 O.2   358  LEU358     -0.2864
     35  CB       -36.0860  104.2100  -20.8190 C.3   358  LEU358      0.0297
     36  CG       -35.0930  103.8530  -21.9160 C.3   358  LEU358      0.0022
     37  CD1      -34.6230  105.1200  -22.5900 C.3   358  LEU358      0.0001
     38  CD2      -33.9350  103.1130  -21.3160 C.3   358  LEU358      0.0001
     39  N        -40.2300  105.8800  -25.0190 N.3   361  LEU361     -0.1245
     40  CA       -39.3120  106.4440  -26.0010 C.3   361  LEU361      0.1561
     41  C        -38.6570  105.3920  -26.8790 C.2   361  LEU361      0.2260
     42  O        -38.5490  105.5600  -28.0900 O.2   361  LEU361     -0.2867
     43  CB       -38.2480  107.2830  -25.3050 C.3   361  LEU361      0.0270
     44  CG       -38.8300  108.4440  -24.5020 C.3   361  LEU361      0.0019
     45  CD1      -37.7270  109.3880  -24.0390 C.3   361  LEU361      0.0001
     46  CD2      -39.8780  109.1820  -25.3240 C.3   361  LEU361      0.0001
     47  N        -37.0750  110.8590  -35.6800 N.3   383  PHE383     -0.1241
     48  CA       -36.6350  111.4900  -34.4550 C.3   383  PHE383      0.1605
     49  C        -36.4190  110.4970  -33.3250 C.2   383  PHE383      0.2264
     50  O        -35.4340  110.5830  -32.5960 O.2   383  PHE383     -0.2867
     51  CB       -37.6610  112.5080  -34.0200 C.3   383  PHE383      0.0534
     52  CG       -37.3760  113.0940  -32.6930 C.ar  383  PHE383     -0.0203
     53  CD1      -36.3690  114.0310  -32.5440 C.ar  383  PHE383     -0.0042
     54  CD2      -38.0870  112.6870  -31.5770 C.ar  383  PHE383     -0.0042
     55  CE1      -36.0890  114.5580  -31.3040 C.ar  383  PHE383     -0.0003
     56  CE2      -37.8070  113.2190  -30.3490 C.ar  383  PHE383     -0.0003
     57  CZ       -36.8080  114.1510  -30.2160 C.ar  383  PHE383     -0.0000
     58  N        -32.5640  109.2540  -31.9940 N.3   387  PHE387     -0.1241
     59  CA       -32.1870  109.7150  -30.6620 C.3   387  PHE387      0.1605
     60  C        -32.2330  108.6140  -29.6230 C.2   387  PHE387      0.2264
     61  O        -32.2780  108.8770  -28.4200 O.2   387  PHE387     -0.2867
     62  CB       -33.0950  110.8490  -30.2180 C.3   387  PHE387      0.0534
     63  CG       -32.3950  112.1520  -30.1020 C.ar  387  PHE387     -0.0203
     64  CD1      -31.2240  112.3760  -30.7970 C.ar  387  PHE387     -0.0042
     65  CD2      -32.8870  113.1450  -29.2810 C.ar  387  PHE387     -0.0042
     66  CE1      -30.5670  113.5720  -30.6920 C.ar  387  PHE387     -0.0003
     67  CE2      -32.2320  114.3450  -29.1680 C.ar  387  PHE387     -0.0003
     68  CZ       -31.0680  114.5600  -29.8730 C.ar  387  PHE387     -0.0000
     69  N        -29.1910  108.9440  -27.4690 N.3   390  PHE390     -0.1227
     70  CA       -29.2190  110.0420  -26.5190 C.3   390  PHE390      0.1736
     71  C        -30.0260  109.6580  -25.2890 C.2   390  PHE390      0.2595
     72  O        -29.6670  109.9850  -24.1600 O.2   390  PHE390     -0.2718
     73  CB       -29.7950  111.3010  -27.1540 C.3   390  PHE390      0.0547
     74  CG       -29.7770  112.4790  -26.2460 C.ar  390  PHE390     -0.0202
     75  CD1      -28.6040  113.1720  -26.0260 C.ar  390  PHE390     -0.0042
     76  CD2      -30.9240  112.8860  -25.5970 C.ar  390  PHE390     -0.0042
     77  CE1      -28.5750  114.2590  -25.1800 C.ar  390  PHE390     -0.0003
     78  CE2      -30.9040  113.9720  -24.7480 C.ar  390  PHE390     -0.0003
     79  CZ       -29.7280  114.6610  -24.5390 C.ar  390  PHE390     -0.0000
     80  N        -31.1140  108.9430  -25.5240 N.am  391  PHE391     -0.1976
     81  CA       -31.9800  108.4860  -24.4490 C.3   391  PHE391      0.1639
     82  C        -31.2310  107.5480  -23.5050 C.2   391  PHE391      0.2290
     83  O        -31.2860  107.6960  -22.2870 O.2   391  PHE391     -0.2864
     84  CB       -33.1950  107.7580  -25.0300 C.3   391  PHE391      0.0560
     85  CG       -34.0750  108.6290  -25.8900 C.ar  391  PHE391     -0.0200
     86  CD1      -33.9690  110.0110  -25.8410 C.ar  391  PHE391     -0.0042
     87  CD2      -35.0170  108.0660  -26.7380 C.ar  391  PHE391     -0.0042
     88  CE1      -34.7800  110.8130  -26.6270 C.ar  391  PHE391     -0.0003
     89  CE2      -35.8320  108.8620  -27.5260 C.ar  391  PHE391     -0.0003
     90  CZ       -35.7120  110.2400  -27.4680 C.ar  391  PHE391     -0.0000
     91  N        -28.6280  109.4310  -21.3360 N.3   394  VAL394     -0.1231
     92  CA       -29.2820  110.1100  -20.2270 C.3   394  VAL394      0.1692
     93  C        -29.7800  109.1130  -19.1820 C.2   394  VAL394      0.2592
     94  O        -29.5670  109.3050  -17.9890 O.2   394  VAL394     -0.2718
     95  CB       -30.4560  110.9600  -20.7110 C.3   394  VAL394      0.0266
     96  CG1      -31.1230  111.6460  -19.5360 C.3   394  VAL394      0.0020
     97  CG2      -29.9730  111.9850  -21.7230 C.3   394  VAL394      0.0020
     98  N        -30.4370  108.0550  -19.6480 N.am  395  PHE395     -0.1976
     99  CA       -30.9250  106.9880  -18.7830 C.3   395  PHE395      0.1639
    100  C        -29.8170  106.4020  -17.9190 C.2   395  PHE395      0.2290
    101  O        -29.9930  106.2180  -16.7180 O.2   395  PHE395     -0.2864
    102  CB       -31.5670  105.8890  -19.6290 C.3   395  PHE395      0.0560
    103  CG       -31.9510  104.6590  -18.8520 C.ar  395  PHE395     -0.0200
    104  CD1      -33.0540  104.6660  -18.0120 C.ar  395  PHE395     -0.0042
    105  CD2      -31.2230  103.4850  -18.9820 C.ar  395  PHE395     -0.0042
    106  CE1      -33.4130  103.5310  -17.3060 C.ar  395  PHE395     -0.0003
    107  CE2      -31.5790  102.3440  -18.2800 C.ar  395  PHE395     -0.0003
    108  CZ       -32.6750  102.3690  -17.4410 C.ar  395  PHE395     -0.0000
    109  N        -28.2930  109.1060  -15.7090 N.3   398  PHE398     -0.1241
    110  CA       -29.2650  109.2670  -14.6330 C.3   398  PHE398      0.1605
    111  C        -29.0290  108.2240  -13.5530 C.2   398  PHE398      0.2264
    112  O        -29.1590  108.5070  -12.3640 O.2   398  PHE398     -0.2867
    113  CB       -30.6940  109.1210  -15.1670 C.3   398  PHE398      0.0534
    114  CG       -31.7150  108.8100  -14.1030 C.ar  398  PHE398     -0.0203
    115  CD1      -32.3710  109.8300  -13.4370 C.ar  398  PHE398     -0.0042
    116  CD2      -32.0210  107.4980  -13.7740 C.ar  398  PHE398     -0.0042
    117  CE1      -33.3040  109.5490  -12.4640 C.ar  398  PHE398     -0.0003
    118  CE2      -32.9440  107.2170  -12.7950 C.ar  398  PHE398     -0.0003
    119  CZ       -33.5920  108.2410  -12.1440 C.ar  398  PHE398     -0.0000
    120  N        -27.0560  109.1110  -10.7070 N.3   401  SER401     -0.1217
    121  CA       -27.7250  109.9320   -9.6930 C.3   401  SER401      0.1889
    122  C        -28.3970  109.0580   -8.6430 C.2   401  SER401      0.2288
    123  O        -28.6240  109.4890   -7.5130 O.2   401  SER401     -0.2866
    124  CB       -28.7640  110.8590  -10.3340 C.3   401  SER401      0.2089
    125  OG       -29.7370  111.2830   -9.3920 O.3   401  SER401     -0.2183
@<TRIPOS>BOND
     1    47    48    1
     2    48    51    1
     3    48    49    1
     4    51    52    1
     5    49    50    2
     6    52    53   ar
     7    52    54   ar
     8    53    55   ar
     9    58    59    1
    10    54    56   ar
    11    55    57   ar
    12    64    66   ar
    13    64    63   ar
    14    66    68   ar
    15    59    62    1
    16    59    60    1
    17    56    57   ar
    18    62    63    1
    19    63    65   ar
    20    68    67   ar
    21    60    61    2
    22    65    67   ar
    23    42    41    2
    24    89    90   ar
    25    89    87   ar
    26    69    70    1
    27    90    88   ar
    28    73    70    1
    29    73    74    1
    30    41    40    1
    31    87    85   ar
    32    88    86   ar
    33    70    71    1
    34    74    75   ar
    35    74    76   ar
    36    75    77   ar
    37    40    43    1
    38    40    39    1
    39    85    86   ar
    40    85    84    1
    41    76    78   ar
    42    80    71   am
    43    80    81    1
    44    46    44    1
    45    43    44    1
    46    71    72    2
    47    77    79   ar
    48    84    81    1
    49    78    79   ar
    50    44    45    1
    51    81    82    1
    52    82    83    2
    53    34    33    2
    54    37    36    1
    55    33    32    1
    56    36    38    1
    57    36    35    1
    58    97    95    1
    59    27    26    2
    60    91    92    1
    61    32    35    1
    62    32    31    1
    63    95    92    1
    64    95    96    1
    65    26    31   am
    66    26    25    1
    67    92    93    1
    68    98    93   am
    69    98    99    1
    70   102   103    1
    71   102    99    1
    72    29    28    1
    73    93    94    2
    74    25    28    1
    75    25    24    1
    76   105   103   ar
    77   105   107   ar
    78   103   104   ar
    79    99   100    1
    80    28    30    1
    81   107   108   ar
    82   104   106   ar
    83   100   101    2
    84    22    21    2
    85   108   106   ar
    86    21    20    1
    87   109   110    1
    88    20    23    1
    89    20    19    1
    90   113   110    1
    91   113   114    1
    92    13    12    2
    93   110   111    1
    94    12    19   am
    95    12    11    1
    96   114   116   ar
    97   114   115   ar
    98   116   118   ar
    99   111   112    2
   100   115   117   ar
   101    11    10    1
   102    11    14    1
   103   118   119   ar
   104   117   119   ar
   105    14    15    1
   106     4     3    2
   107   120   121    1
   108    15    16    1
   109    17    16    1
   110    17    18    1
   111     3     2    1
   112   124   121    1
   113   124   125    1
   114   121   122    1
   115     2     5    1
   116     2     1    1
   117     5     6    1
   118   122   123    2
   119     6     7    1
   120     7     8    1
   121     8     9    1
