@<TRIPOS>MOLECULE
tmp/4z9gB01.pdb
 109 103 0 0 0
SMALL
GASTEIGER

@<TRIPOS>ATOM
      1  N         -9.3500   90.7320  -26.4060 N.3    23  LEU23      -0.1245
      2  CA        -8.5610   91.9340  -26.1990 C.3    23  LEU23       0.1561
      3  C         -8.9130   92.6350  -24.8940 C.2    23  LEU23       0.2260
      4  O         -8.0260   92.9860  -24.1180 O.2    23  LEU23      -0.2867
      5  CB        -8.7110   92.8910  -27.3780 C.3    23  LEU23       0.0270
      6  CG        -7.7340   92.6390  -28.5230 C.3    23  LEU23       0.0019
      7  CD1       -7.8980   93.6910  -29.6010 C.3    23  LEU23       0.0001
      8  CD2       -6.3230   92.6380  -27.9820 C.3    23  LEU23       0.0001
      9  N         -7.5700   90.8670  -22.0100 N.3    26  PHE26      -0.1227
     10  CA        -6.1260   91.0340  -21.9590 C.3    26  PHE26       0.1736
     11  C         -5.7840   92.3790  -21.3390 C.2    26  PHE26       0.2595
     12  O         -4.8700   92.4830  -20.5240 O.2    26  PHE26      -0.2718
     13  CB        -5.5410   90.9310  -23.3650 C.3    26  PHE26       0.0547
     14  CG        -4.0370   90.9310  -23.4090 C.ar   26  PHE26      -0.0202
     15  CD1       -3.3150   89.8870  -22.8590 C.ar   26  PHE26      -0.0042
     16  CD2       -3.3500   91.9620  -24.0310 C.ar   26  PHE26      -0.0042
     17  CE1       -1.9380   89.8800  -22.9130 C.ar   26  PHE26      -0.0003
     18  CE2       -1.9720   91.9560  -24.0930 C.ar   26  PHE26      -0.0003
     19  CZ        -1.2640   90.9160  -23.5320 C.ar   26  PHE26      -0.0000
     20  N         -6.5360   93.4050  -21.7190 N.am   27  VAL27      -0.1980
     21  CA        -6.3550   94.7350  -21.1490 C.3    27  VAL27       0.1595
     22  C         -6.5960   94.7330  -19.6300 C.2    27  VAL27       0.2287
     23  O         -5.7360   95.1770  -18.8650 O.2    27  VAL27      -0.2864
     24  CB        -7.2480   95.7890  -21.8570 C.3    27  VAL27       0.0276
     25  CG1       -7.1190   97.1380  -21.1830 C.3    27  VAL27       0.0022
     26  CG2       -6.8690   95.9020  -23.3230 C.3    27  VAL27       0.0022
     27  N         -3.7560   93.0240  -17.7020 N.3    30  LEU30      -0.1245
     28  CA        -2.5550   93.8530  -17.6320 C.3    30  LEU30       0.1561
     29  C         -2.7240   95.0270  -16.6720 C.2    30  LEU30       0.2260
     30  O         -1.7920   95.4040  -15.9620 O.2    30  LEU30      -0.2867
     31  CB        -2.1850   94.3830  -19.0190 C.3    30  LEU30       0.0270
     32  CG        -1.7300   93.3710  -20.0770 C.3    30  LEU30       0.0019
     33  CD1       -1.6010   94.0650  -21.4180 C.3    30  LEU30       0.0001
     34  CD2       -0.4150   92.7170  -19.6880 C.3    30  LEU30       0.0001
     35  N         -1.5740   91.0040  -11.4960 N.3    35  ILE35      -0.1231
     36  CA        -0.6830   90.4770  -12.5440 C.3    35  ILE35       0.1692
     37  C          0.7160   90.0570  -12.0650 C.2    35  ILE35       0.2591
     38  O          1.3610   89.2070  -12.6780 O.2    35  ILE35      -0.2718
     39  CB        -0.5710   91.4530  -13.7620 C.3    35  ILE35       0.0266
     40  CG1        0.0810   90.7430  -14.9580 C.3    35  ILE35       0.0019
     41  CG2        0.1740   92.7340  -13.3750 C.3    35  ILE35       0.0020
     42  CD1       -0.1380   91.4270  -16.2990 C.3    35  ILE35       0.0001
     43  N          1.1620   90.6490  -10.9610 N.am   36  ARG36      -0.1980
     44  CA         2.3310   90.1780  -10.2260 C.3    36  ARG36       0.1597
     45  C          2.1960   88.7060   -9.8050 C.2    36  ARG36       0.2287
     46  O          3.1960   88.0200   -9.6120 O.2    36  ARG36      -0.2864
     47  CB         2.5550   91.0510   -8.9850 C.3    36  ARG36       0.0334
     48  CG         1.4210   90.9860   -7.9460 C.3    36  ARG36       0.0492
     49  CD         1.7440   91.8130   -6.6910 C.3    36  ARG36       0.2205
     50  NE         0.7080   91.7230   -5.6560 N.pl3  36  ARG36      -0.0865
     51  CZ         0.7430   92.3790   -4.4950 C.cat  36  ARG36       0.5346
     52  NH1        1.7610   93.1820   -4.2130 N.pl3  36  ARG36       0.1354
     53  NH2       -0.2410   92.2370   -3.6140 N.pl3  36  ARG36       0.1354
     54  N         -0.2510   85.8320  -14.4210 N.3    41  ILE41      -0.1245
     55  CA         0.7870   85.7890  -15.4290 C.3    41  ILE41       0.1561
     56  C          0.4180   84.7200  -16.4510 C.2    41  ILE41       0.2260
     57  O          0.5940   84.9050  -17.6550 O.2    41  ILE41      -0.2867
     58  CB         2.1660   85.4980  -14.8120 C.3    41  ILE41       0.0252
     59  CG1        2.6180   86.6850  -13.9620 C.3    41  ILE41       0.0019
     60  CG2        3.1830   85.2400  -15.8990 C.3    41  ILE41       0.0019
     61  CD1        3.9810   86.5220  -13.3280 C.3    41  ILE41       0.0001
     62  N         -2.8070   85.7760  -18.5310 N.3    44  ALA44      -0.1231
     63  CA        -2.4310   86.8010  -19.4960 C.3    44  ALA44       0.1694
     64  C         -1.7060   86.1910  -20.6860 C.2    44  ALA44       0.2592
     65  O         -1.9230   86.5870  -21.8290 O.2    44  ALA44      -0.2718
     66  CB        -1.5660   87.8630  -18.8330 C.3    44  ALA44       0.0304
     67  N         -0.8430   85.2240  -20.4130 N.am   45  ASN45      -0.1974
     68  CA        -0.1310   84.5420  -21.4800 C.3    45  ASN45       0.1688
     69  C         -1.0650   83.6960  -22.3260 C.2    45  ASN45       0.2292
     70  O         -0.9550   83.6700  -23.5500 O.2    45  ASN45      -0.2864
     71  CB         0.9870   83.6810  -20.9100 C.3    45  ASN45       0.1181
     72  CG         2.1750   84.4980  -20.4810 C.2    45  ASN45       0.2629
     73  OD1        3.0270   84.8420  -21.2970 O.2    45  ASN45      -0.2716
     74  ND2        2.2350   84.8300  -19.1990 N.am   45  ASN45      -0.0877
     75  N         -3.0750   86.0260  -24.5580 N.3    48  ALA48      -0.1245
     76  CA        -2.1540   86.4700  -25.5970 C.3    48  ALA48       0.1562
     77  C         -1.9420   85.3710  -26.6370 C.2    48  ALA48       0.2260
     78  O         -1.9470   85.6330  -27.8400 O.2    48  ALA48      -0.2867
     79  CB        -0.8250   86.8900  -24.9820 C.3    48  ALA48       0.0290
     80  N         -5.0880   85.1770  -28.6420 N.3    51  ILE51      -0.1231
     81  CA        -5.2890   86.3700  -29.4530 C.3    51  ILE51       0.1692
     82  C         -4.5310   86.2310  -30.7590 C.2    51  ILE51       0.2591
     83  O         -5.0860   86.4170  -31.8420 O.2    51  ILE51      -0.2718
     84  CB        -4.7890   87.6360  -28.7350 C.3    51  ILE51       0.0266
     85  CG1       -5.7740   88.0500  -27.6410 C.3    51  ILE51       0.0019
     86  CG2       -4.5880   88.7740  -29.7320 C.3    51  ILE51       0.0020
     87  CD1       -5.3410   89.2710  -26.8570 C.3    51  ILE51       0.0001
     88  N         -3.2570   85.8850  -30.6370 N.am   52  LEU52      -0.1980
     89  CA        -2.3790   85.7850  -31.7850 C.3    52  LEU52       0.1596
     90  C         -2.9030   84.7890  -32.8080 C.2    52  LEU52       0.2287
     91  O         -2.6580   84.9340  -33.9980 O.2    52  LEU52      -0.2864
     92  CB        -0.9650   85.4110  -31.3380 C.3    52  LEU52       0.0297
     93  CG        -0.1880   86.5160  -30.6160 C.3    52  LEU52       0.0022
     94  CD1        1.1890   86.0290  -30.2130 C.3    52  LEU52       0.0001
     95  CD2       -0.0740   87.7600  -31.4860 C.3    52  LEU52       0.0001
     96  N          5.3870   79.1130  -24.6930 N.3   283  TRP283     -0.1241
     97  CA         5.8850   79.7290  -25.9130 C.3   283  TRP283      0.1605
     98  C          7.0660   78.9680  -26.5140 C.2   283  TRP283      0.2264
     99  O          7.1880   78.8650  -27.7310 O.2   283  TRP283     -0.2867
    100  CB         6.2820   81.1840  -25.6550 C.3   283  TRP283      0.0550
    101  CG         5.1590   82.0670  -25.1830 C.ar  283  TRP283      0.0003
    102  CD1        4.9550   82.5310  -23.9150 C.ar  283  TRP283      0.0946
    103  CD2        4.0960   82.6020  -25.9800 C.ar  283  TRP283      0.0152
    104  NE1        3.8290   83.3180  -23.8730 N.ar  283  TRP283     -0.2442
    105  CE2        3.2830   83.3780  -25.1280 C.ar  283  TRP283      0.0810
    106  CE3        3.7500   82.4990  -27.3310 C.ar  283  TRP283      0.0012
    107  CZ2        2.1490   84.0440  -25.5830 C.ar  283  TRP283      0.0191
    108  CZ3        2.6230   83.1610  -27.7800 C.ar  283  TRP283      0.0001
    109  CH2        1.8360   83.9230  -26.9090 C.ar  283  TRP283      0.0015
@<TRIPOS>BOND
     1    91    90    2
     2    90    89    1
     3    83    82    2
     4    89    92    1
     5    89    88    1
     6    95    93    1
     7    92    93    1
     8    82    88   am
     9    82    81    1
    10    93    94    1
    11    86    84    1
    12     7     6    1
    13    81    84    1
    14    81    80    1
    15    84    85    1
    16     6     8    1
    17     6     5    1
    18    78    77    2
    19   108   106   ar
    20   108   109   ar
    21    99    98    2
    22    85    87    1
    23     5     2    1
    24   106   103   ar
    25   109   107   ar
    26    77    76    1
    27    98    97    1
    28     1     2    1
    29     2     3    1
    30   103   101   ar
    31   103   105   ar
    32    97   100    1
    33    97    96    1
    34   100   101    1
    35    76    79    1
    36    76    75    1
    37   107   105   ar
    38   101   102   ar
    39   105   104   ar
    40     3     4    2
    41    18    16   ar
    42    18    19   ar
    43    16    14   ar
    44   102   104   ar
    45    70    69    2
    46    19    17   ar
    47    14    13    1
    48    14    15   ar
    49    13    10    1
    50    26    24    1
    51    17    15   ar
    52    69    68    1
    53     9    10    1
    54    10    11    1
    55    24    25    1
    56    24    21    1
    57    65    64    2
    58    20    11   am
    59    20    21    1
    60    68    71    1
    61    68    67    1
    62    33    32    1
    63    11    12    2
    64    73    72    2
    65    21    22    1
    66    71    72    1
    67    64    67   am
    68    64    63    1
    69    72    74   am
    70    32    34    1
    71    32    31    1
    72    22    23    2
    73    63    66    1
    74    63    62    1
    75    31    28    1
    76    27    28    1
    77    57    56    2
    78    28    29    1
    79    29    30    2
    80    56    55    1
    81    42    40    1
    82    60    58    1
    83    55    58    1
    84    55    54    1
    85    40    39    1
    86    58    59    1
    87    59    61    1
    88    39    41    1
    89    39    36    1
    90    38    37    2
    91    36    37    1
    92    36    35    1
    93    37    43   am
    94    43    44    1
    95    44    45    1
    96    44    47    1
    97    45    46    2
    98    47    48    1
    99    48    49    1
   100    49    50    1
   101    50    51    2
   102    51    52    1
   103    51    53    1
