@<TRIPOS>MOLECULE
tmp/4z9gB02.pdb
 101 96 0 0 0
SMALL
GASTEIGER

@<TRIPOS>ATOM
      1  N        -14.6410   75.1560   -7.7930 N.3   358  LYS358     -0.1245
      2  CA       -15.0590   76.1280   -8.7950 C.3   358  LYS358      0.1561
      3  C        -14.2270   76.0390  -10.0790 C.2   358  LYS358      0.2260
      4  O        -14.7750   76.0440  -11.1810 O.2   358  LYS358     -0.2867
      5  CB       -14.9950   77.5450   -8.2180 C.3   358  LYS358      0.0271
      6  CG       -15.9860   77.8290   -7.0890 C.3   358  LYS358      0.0035
      7  CD       -16.6380   79.1970   -7.2850 C.3   358  LYS358      0.0206
      8  CE       -16.9760   79.8930   -5.9740 C.3   358  LYS358      0.1093
      9  NZ       -17.5120   81.2640   -6.2250 N.3   358  LYS358     -0.1314
     10  N        -15.1080   72.9490  -11.8630 N.3   361  LYS361     -0.1231
     11  CA       -16.4270   73.1990  -12.4270 C.3   361  LYS361      0.1693
     12  C        -16.2970   73.9250  -13.7630 C.2   361  LYS361      0.2591
     13  O        -16.9540   73.5720  -14.7380 O.2   361  LYS361     -0.2718
     14  CB       -17.2690   74.0340  -11.4640 C.3   361  LYS361      0.0285
     15  CG       -18.3080   73.2470  -10.6900 C.3   361  LYS361      0.0035
     16  CD       -19.3110   74.1880  -10.0430 C.3   361  LYS361      0.0206
     17  CE       -20.5950   73.4640   -9.6810 C.3   361  LYS361      0.1093
     18  NZ       -21.7180   74.4140   -9.4430 N.3   361  LYS361     -0.1314
     19  N        -15.4250   74.9270  -13.7990 N.am  362  ALA362     -0.1980
     20  CA       -15.2000   75.7220  -15.0040 C.3   362  ALA362      0.1597
     21  C        -14.5740   74.9130  -16.1390 C.2   362  ALA362      0.2287
     22  O        -14.9820   75.0270  -17.2930 O.2   362  ALA362     -0.2864
     23  CB       -14.3320   76.9270  -14.6790 C.3   362  ALA362      0.0319
     24  N        -17.1070   72.8800  -17.9360 N.3   365  VAL365     -0.1231
     25  CA       -18.0330   73.5500  -18.8340 C.3   365  VAL365      0.1692
     26  C        -17.3280   73.8830  -20.1380 C.2   365  VAL365      0.2591
     27  O        -17.8460   73.6470  -21.2290 O.2   365  VAL365     -0.2718
     28  CB       -18.5780   74.8510  -18.2070 C.3   365  VAL365      0.0266
     29  CG1      -19.4300   75.6190  -19.2140 C.3   365  VAL365      0.0020
     30  CG2      -19.3710   74.5440  -16.9390 C.3   365  VAL365      0.0020
     31  N        -16.1260   74.4240  -19.9990 N.am  366  LEU366     -0.1980
     32  CA       -15.3450   74.9120  -21.1210 C.3   366  LEU366      0.1596
     33  C        -14.9110   73.7910  -22.0460 C.2   366  LEU366      0.2287
     34  O        -14.9530   73.9230  -23.2700 O.2   366  LEU366     -0.2864
     35  CB       -14.1030   75.6140  -20.5890 C.3   366  LEU366      0.0297
     36  CG       -13.1980   76.1790  -21.6740 C.3   366  LEU366      0.0022
     37  CD1      -13.9080   77.3310  -22.3690 C.3   366  LEU366      0.0001
     38  CD2      -11.8630   76.6110  -21.0870 C.3   366  LEU366      0.0001
     39  N        -17.1610   72.7860  -24.9780 N.3   369  LEU369     -0.1245
     40  CA       -17.1570   73.8740  -25.9470 C.3   369  LEU369      0.1561
     41  C        -15.8970   73.8610  -26.8010 C.2   369  LEU369      0.2260
     42  O        -15.9510   74.0640  -28.0120 O.2   369  LEU369     -0.2867
     43  CB       -17.2840   75.2140  -25.2220 C.3   369  LEU369      0.0270
     44  CG       -18.5380   75.3780  -24.3620 C.3   369  LEU369      0.0019
     45  CD1      -18.4920   76.6790  -23.5730 C.3   369  LEU369      0.0001
     46  CD2      -19.7770   75.3190  -25.2380 C.3   369  LEU369      0.0001
     47  N        -15.1160   81.9740  -25.4980 N.3   401  PHE401     -0.1241
     48  CA       -15.1070   80.9570  -24.4490 C.3   401  PHE401      0.1605
     49  C        -13.8820   81.1030  -23.5510 C.2   401  PHE401      0.2264
     50  O        -14.0170   81.2050  -22.3240 O.2   401  PHE401     -0.2867
     51  CB       -15.1050   79.5590  -25.0500 C.3   401  PHE401      0.0534
     52  CG       -16.2910   79.2650  -25.9130 C.ar  401  PHE401     -0.0203
     53  CD1      -17.4360   80.0380  -25.8400 C.ar  401  PHE401     -0.0042
     54  CD2      -16.2620   78.2040  -26.7940 C.ar  401  PHE401     -0.0042
     55  CE1      -18.5240   79.7610  -26.6360 C.ar  401  PHE401     -0.0003
     56  CE2      -17.3440   77.9130  -27.5930 C.ar  401  PHE401     -0.0003
     57  CZ       -18.4850   78.6970  -27.5150 C.ar  401  PHE401     -0.0000
     58  N        -14.1090   84.3680  -21.6300 N.3   404  VAL404     -0.1231
     59  CA       -15.0360   84.3400  -20.5060 C.3   404  VAL404      0.1692
     60  C        -14.5140   83.4270  -19.4040 C.2   404  VAL404      0.2592
     61  O        -14.6190   83.7390  -18.2170 O.2   404  VAL404     -0.2718
     62  CB       -16.4450   83.9010  -20.9310 C.3   404  VAL404      0.0266
     63  CG1      -17.3630   83.8280  -19.7180 C.3   404  VAL404      0.0020
     64  CG2      -17.0010   84.8660  -21.9490 C.3   404  VAL404      0.0020
     65  N        -13.9350   82.3050  -19.8160 N.am  405  PHE405     -0.1976
     66  CA       -13.3640   81.3340  -18.8910 C.3   405  PHE405      0.1639
     67  C        -12.3140   81.9680  -17.9860 C.2   405  PHE405      0.2290
     68  O        -12.3200   81.7590  -16.7760 O.2   405  PHE405     -0.2864
     69  CB       -12.7630   80.1670  -19.6760 C.3   405  PHE405      0.0560
     70  CG       -11.8530   79.2910  -18.8680 C.ar  405  PHE405     -0.0200
     71  CD1      -12.3710   78.3580  -17.9840 C.ar  405  PHE405     -0.0042
     72  CD2      -10.4760   79.3860  -19.0080 C.ar  405  PHE405     -0.0042
     73  CE1      -11.5340   77.5460  -17.2430 C.ar  405  PHE405     -0.0003
     74  CE2       -9.6310   78.5780  -18.2720 C.ar  405  PHE405     -0.0003
     75  CZ       -10.1610   77.6550  -17.3870 C.ar  405  PHE405     -0.0000
     76  N        -13.9020   84.5600  -15.7680 N.3   408  PHE408     -0.1241
     77  CA       -14.6030   83.8350  -14.7180 C.3   408  PHE408      0.1605
     78  C        -13.6780   83.5050  -13.5540 C.2   408  PHE408      0.2264
     79  O        -13.9940   83.7970  -12.4030 O.2   408  PHE408     -0.2867
     80  CB       -15.1970   82.5510  -15.2900 C.3   408  PHE408      0.0534
     81  CG       -15.8720   81.6820  -14.2720 C.ar  408  PHE408     -0.0203
     82  CD1      -16.8860   82.1820  -13.4770 C.ar  408  PHE408     -0.0042
     83  CD2      -15.5100   80.3540  -14.1310 C.ar  408  PHE408     -0.0042
     84  CE1      -17.5170   81.3810  -12.5490 C.ar  408  PHE408     -0.0003
     85  CE2      -16.1390   79.5470  -13.2060 C.ar  408  PHE408     -0.0003
     86  CZ       -17.1470   80.0610  -12.4180 C.ar  408  PHE408     -0.0000
     87  N        -12.8780   86.3290  -11.4630 N.3   411  SER411     -0.1202
     88  CA       -13.9460   86.7290  -10.5450 C.3   411  SER411      0.2020
     89  C        -14.0350   85.8320   -9.3120 C.2   411  SER411      0.2618
     90  O        -14.4740   86.2710   -8.2480 O.2   411  SER411     -0.2717
     91  CB       -15.2990   86.7180  -11.2560 C.3   411  SER411      0.2103
     92  OG       -15.9840   85.5020  -11.0050 O.3   411  SER411     -0.2182
     93  N        -13.6240   84.5770   -9.4630 N.am  412  GLU412     -0.1979
     94  CA       -13.7940   83.5840   -8.4030 C.3   412  GLU412      0.1602
     95  C        -12.4940   83.1540   -7.7050 C.2   412  GLU412      0.2287
     96  O        -12.4370   83.1380   -6.4770 O.2   412  GLU412     -0.2864
     97  CB       -14.5340   82.3570   -8.9420 C.3   412  GLU412      0.0415
     98  CG       -13.7980   81.6740  -10.0780 C.3   412  GLU412      0.1163
     99  CD       -14.3770   80.3290  -10.4310 C.2   412  GLU412      0.3649
    100  OE1      -15.5190   80.0540  -10.0160 O.co2 412  GLU412     -0.2457
    101  OE2      -13.6890   79.5480  -11.1230 O.co2 412  GLU412     -0.2457
@<TRIPOS>BOND
     1    42    41    2
     2    56    57   ar
     3    56    54   ar
     4    57    55   ar
     5    41    40    1
     6    54    52   ar
     7    55    53   ar
     8    40    43    1
     9    40    39    1
    10    52    53   ar
    11    52    51    1
    12    47    48    1
    13    46    44    1
    14    43    44    1
    15    51    48    1
    16    48    49    1
    17    44    45    1
    18    49    50    2
    19    34    33    2
    20    37    36    1
    21    33    32    1
    22    64    62    1
    23    36    38    1
    24    36    35    1
    25    58    59    1
    26    27    26    2
    27    32    35    1
    28    32    31    1
    29    62    59    1
    30    62    63    1
    31    59    60    1
    32    26    31   am
    33    26    25    1
    34    65    60   am
    35    65    66    1
    36    69    66    1
    37    69    70    1
    38    60    61    2
    39    29    28    1
    40    72    70   ar
    41    72    74   ar
    42    66    67    1
    43    70    71   ar
    44    25    28    1
    45    25    24    1
    46    74    75   ar
    47    28    30    1
    48    67    68    2
    49    71    73   ar
    50    75    73   ar
    51    22    21    2
    52    21    20    1
    53    76    77    1
    54    80    77    1
    55    80    81    1
    56    20    23    1
    57    20    19    1
    58    13    12    2
    59    77    78    1
    60    81    83   ar
    61    81    82   ar
    62    83    85   ar
    63    19    12   am
    64    12    11    1
    65    78    79    2
    66    82    84   ar
    67    85    86   ar
    68    84    86   ar
    69    11    10    1
    70    11    14    1
    71    14    15    1
    72    87    88    1
    73    91    92    1
    74    91    88    1
    75     4     3    2
    76   101    99   ar
    77    15    16    1
    78    88    89    1
    79    99    98    1
    80    99   100   ar
    81     3     2    1
    82    98    97    1
    83    16    17    1
    84    17    18    1
    85    93    89   am
    86    93    94    1
    87    89    90    2
    88    97    94    1
    89     2     5    1
    90     2     1    1
    91    94    95    1
    92     5     6    1
    93    95    96    2
    94     7     6    1
    95     7     8    1
    96     9     8    1
