@<TRIPOS>MOLECULE
tmp/4z9gA03.pdb
 198 190 0 0 0
SMALL
GASTEIGER

@<TRIPOS>ATOM
      1  N          4.4150   26.2100  -20.6380 N.3    52  PHE52      -0.1241
      2  CA         3.2880   26.6680  -19.8530 C.3    52  PHE52       0.1605
      3  C          2.7140   25.5360  -19.0300 C.2    52  PHE52       0.2264
      4  O          2.2380   25.7540  -17.9180 O.2    52  PHE52      -0.2867
      5  CB         2.2180   27.2530  -20.7640 C.3    52  PHE52       0.0534
      6  CG         2.4740   28.6740  -21.1430 C.ar   52  PHE52      -0.0203
      7  CD1        3.3570   28.9860  -22.1650 C.ar   52  PHE52      -0.0042
      8  CD2        1.8420   29.7030  -20.4660 C.ar   52  PHE52      -0.0042
      9  CE1        3.6000   30.2980  -22.5090 C.ar   52  PHE52      -0.0003
     10  CE2        2.0780   31.0170  -20.8030 C.ar   52  PHE52      -0.0003
     11  CZ         2.9600   31.3180  -21.8280 C.ar   52  PHE52      -0.0000
     12  N          8.5690   31.0000  -20.4660 N.3    92  ASN92      -0.1225
     13  CA         7.3730   31.5300  -21.1250 C.3    92  ASN92       0.1785
     14  C          7.6450   32.6930  -22.0700 C.2    92  ASN92       0.2597
     15  O          7.2140   32.6850  -23.2210 O.2    92  ASN92      -0.2718
     16  CB         6.3460   31.9690  -20.0800 C.3    92  ASN92       0.1169
     17  CG         5.7410   30.8030  -19.3300 C.2    92  ASN92       0.2627
     18  OD1        6.3160   29.7190  -19.2720 O.2    92  ASN92      -0.2716
     19  ND2        4.5670   31.0220  -18.7520 N.am   92  ASN92      -0.0877
     20  N          8.3600   33.6910  -21.5680 N.am   93  PHE93      -0.1976
     21  CA         8.7510   34.8420  -22.3660 C.3    93  PHE93       0.1639
     22  C          9.6910   34.4460  -23.4930 C.2    93  PHE93       0.2290
     23  O          9.5290   34.8760  -24.6350 O.2    93  PHE93      -0.2864
     24  CB         9.4250   35.8790  -21.4750 C.3    93  PHE93       0.0560
     25  CG         8.4610   36.7540  -20.7400 C.ar   93  PHE93      -0.0200
     26  CD1        7.4470   36.2030  -19.9750 C.ar   93  PHE93      -0.0042
     27  CD2        8.5680   38.1300  -20.8130 C.ar   93  PHE93      -0.0042
     28  CE1        6.5540   37.0110  -19.3000 C.ar   93  PHE93      -0.0003
     29  CE2        7.6820   38.9420  -20.1380 C.ar   93  PHE93      -0.0003
     30  CZ         6.6720   38.3830  -19.3810 C.ar   93  PHE93      -0.0000
     31  N          7.9510   32.5210  -26.1520 N.3    96  MET96      -0.1230
     32  CA         7.1060   33.4870  -26.8400 C.3    96  MET96       0.1702
     33  C          7.9810   34.3650  -27.7160 C.2    96  MET96       0.2592
     34  O          7.5480   34.8720  -28.7550 O.2    96  MET96      -0.2718
     35  CB         6.3660   34.3520  -25.8300 C.3    96  MET96       0.0401
     36  CG         5.1010   33.7270  -25.3120 C.3    96  MET96       0.0596
     37  SD         3.8240   33.7440  -26.5710 S.3    96  MET96      -0.1393
     38  CE         2.3810   33.4560  -25.5570 C.3    96  MET96       0.0692
     39  N          9.2200   34.5440  -27.2730 N.am   97  PHE97      -0.1976
     40  CA        10.2300   35.2220  -28.0630 C.3    97  PHE97       0.1639
     41  C         10.5300   34.3990  -29.3070 C.2    97  PHE97       0.2290
     42  O         10.8200   34.9390  -30.3750 O.2    97  PHE97      -0.2864
     43  CB        11.5010   35.4020  -27.2430 C.3    97  PHE97       0.0560
     44  CG        12.5740   36.1560  -27.9600 C.ar   97  PHE97      -0.0200
     45  CD1       12.3510   37.4540  -28.3830 C.ar   97  PHE97      -0.0042
     46  CD2       13.8060   35.5720  -28.2140 C.ar   97  PHE97      -0.0042
     47  CE1       13.3360   38.1600  -29.0480 C.ar   97  PHE97      -0.0003
     48  CE2       14.7970   36.2730  -28.8780 C.ar   97  PHE97      -0.0003
     49  CZ        14.5630   37.5700  -29.2950 C.ar   97  PHE97      -0.0000
     50  N          8.2920   32.4140  -30.7620 N.3    99  GLU99      -0.1231
     51  CA         7.1080   32.6200  -31.5850 C.3    99  GLU99       0.1699
     52  C          7.1720   33.9510  -32.3170 C.2    99  GLU99       0.2592
     53  O          6.7110   34.0710  -33.4510 O.2    99  GLU99      -0.2718
     54  CB         5.8430   32.5620  -30.7270 C.3    99  GLU99       0.0402
     55  CG         5.4000   31.1570  -30.3520 C.3    99  GLU99       0.1161
     56  CD         4.7020   30.4370  -31.4910 C.2    99  GLU99       0.3649
     57  OE1        5.3560   30.1530  -32.5160 O.co2  99  GLU99      -0.2457
     58  OE2        3.4930   30.1550  -31.3620 O.co2  99  GLU99      -0.2457
     59  N          7.7460   34.9490  -31.6580 N.am  100  GLY100     -0.1957
     60  CA         7.8710   36.2650  -32.2470 C.3   100  GLY100      0.1869
     61  C          8.9420   36.3180  -33.3140 C.2   100  GLY100      0.2309
     62  O          8.7320   36.8800  -34.3870 O.2   100  GLY100     -0.2863
     63  N          7.6790   34.4180  -36.3230 N.3   103  LEU103     -0.1245
     64  CA         6.6480   35.1930  -37.0020 C.3   103  LEU103      0.1561
     65  C          7.2300   36.3360  -37.8110 C.2   103  LEU103      0.2260
     66  O          6.9100   36.5100  -38.9860 O.2   103  LEU103     -0.2867
     67  CB         5.6690   35.7630  -35.9770 C.3   103  LEU103      0.0270
     68  CG         4.7140   36.8520  -36.4690 C.3   103  LEU103      0.0019
     69  CD1        3.8520   36.3380  -37.6110 C.3   103  LEU103      0.0001
     70  CD2        3.8450   37.3470  -35.3240 C.3   103  LEU103      0.0001
     71  N         13.2130   41.0740  -23.4650 N.3   328  VAL328     -0.1231
     72  CA        12.6910   40.1700  -24.4830 C.3   328  VAL328      0.1692
     73  C         11.3050   40.6020  -24.9690 C.2   328  VAL328      0.2591
     74  O         11.0060   40.5460  -26.1650 O.2   328  VAL328     -0.2718
     75  CB        12.6610   38.7190  -23.9510 C.3   328  VAL328      0.0266
     76  CG1       11.6540   37.8720  -24.7080 C.3   328  VAL328      0.0020
     77  CG2       14.0480   38.1100  -24.0330 C.3   328  VAL328      0.0020
     78  N         10.4700   41.0440  -24.0350 N.am  329  LEU329     -0.1980
     79  CA         9.1580   41.5820  -24.3690 C.3   329  LEU329      0.1596
     80  C          9.3120   42.8410  -25.2160 C.2   329  LEU329      0.2287
     81  O          8.5590   43.0670  -26.1620 O.2   329  LEU329     -0.2864
     82  CB         8.3710   41.8850  -23.0920 C.3   329  LEU329      0.0297
     83  CG         7.0250   42.5890  -23.2610 C.3   329  LEU329      0.0022
     84  CD1        6.0870   41.7700  -24.1300 C.3   329  LEU329      0.0001
     85  CD2        6.4000   42.8640  -21.9080 C.3   329  LEU329      0.0001
     86  N         10.3550   42.0440  -28.8360 N.3   332  ASN332     -0.1225
     87  CA         9.1960   41.4860  -29.5190 C.3   332  ASN332      0.1785
     88  C          8.2230   42.5720  -29.9450 C.2   332  ASN332      0.2597
     89  O          7.5170   42.4360  -30.9460 O.2   332  ASN332     -0.2718
     90  CB         8.4870   40.4590  -28.6340 C.3   332  ASN332      0.1169
     91  CG         8.0770   39.2240  -29.4030 C.2   332  ASN332      0.2627
     92  OD1        8.4510   39.0590  -30.5610 O.2   332  ASN332     -0.2716
     93  ND2        7.3180   38.3460  -28.7650 N.am  332  ASN332     -0.0877
     94  N          8.1960   43.6520  -29.1710 N.am  333  PHE333     -0.1976
     95  CA         7.3760   44.8120  -29.4870 C.3   333  PHE333      0.1639
     96  C          7.8960   45.4840  -30.7470 C.2   333  PHE333      0.2290
     97  O          7.1240   45.8260  -31.6450 O.2   333  PHE333     -0.2864
     98  CB         7.3830   45.8010  -28.3210 C.3   333  PHE333      0.0560
     99  CG         6.2530   45.6060  -27.3540 C.ar  333  PHE333     -0.0200
    100  CD1        5.1060   44.9380  -27.7410 C.ar  333  PHE333     -0.0042
    101  CD2        6.3330   46.1000  -26.0620 C.ar  333  PHE333     -0.0042
    102  CE1        4.0630   44.7600  -26.8590 C.ar  333  PHE333     -0.0003
    103  CE2        5.2900   45.9260  -25.1740 C.ar  333  PHE333     -0.0003
    104  CZ         4.1530   45.2540  -25.5740 C.ar  333  PHE333     -0.0000
    105  N          9.6260   44.0320  -33.0220 N.3   335  PHE335     -0.1227
    106  CA         9.2630   43.0890  -34.0800 C.3   335  PHE335      0.1736
    107  C          7.8290   43.2840  -34.5360 C.2   335  PHE335      0.2595
    108  O          7.5670   43.4480  -35.7240 O.2   335  PHE335     -0.2718
    109  CB         9.4270   41.6410  -33.6120 C.3   335  PHE335      0.0547
    110  CG        10.8510   41.1770  -33.5510 C.ar  335  PHE335     -0.0202
    111  CD1       11.8730   41.9630  -34.0570 C.ar  335  PHE335     -0.0042
    112  CD2       11.1670   39.9480  -32.9930 C.ar  335  PHE335     -0.0042
    113  CE1       13.1860   41.5380  -34.0010 C.ar  335  PHE335     -0.0003
    114  CE2       12.4790   39.5150  -32.9330 C.ar  335  PHE335     -0.0003
    115  CZ        13.4910   40.3110  -33.4370 C.ar  335  PHE335     -0.0000
    116  N          6.9050   43.2540  -33.5810 N.am  336  LEU336     -0.1980
    117  CA         5.4840   43.3730  -33.8790 C.3   336  LEU336      0.1596
    118  C          5.1770   44.6240  -34.6960 C.2   336  LEU336      0.2287
    119  O          4.4950   44.5470  -35.7150 O.2   336  LEU336     -0.2864
    120  CB         4.6620   43.3600  -32.5880 C.3   336  LEU336      0.0297
    121  CG         3.1290   43.3610  -32.6730 C.3   336  LEU336      0.0022
    122  CD1        2.6090   42.6010  -33.8860 C.3   336  LEU336      0.0001
    123  CD2        2.5390   42.7850  -31.3980 C.3   336  LEU336      0.0001
    124  N          6.6830   44.5390  -38.1730 N.3   339  ILE339     -0.1245
    125  CA         5.8220   43.7770  -39.0660 C.3   339  ILE339      0.1561
    126  C          4.7200   44.6650  -39.6340 C.2   339  ILE339      0.2260
    127  O          4.4900   44.6840  -40.8430 O.2   339  ILE339     -0.2867
    128  CB         5.1760   42.5790  -38.3380 C.3   339  ILE339      0.0252
    129  CG1        6.2390   41.6000  -37.8430 C.3   339  ILE339      0.0019
    130  CG2        4.2160   41.8520  -39.2520 C.3   339  ILE339      0.0019
    131  CD1        5.6620   40.4600  -37.0400 C.3   339  ILE339      0.0001
    132  N         -1.7850   37.8860  -32.3690 N.3   365  THR365     -0.1218
    133  CA        -0.7560   38.4310  -31.4950 C.3   365  THR365      0.1862
    134  C         -1.2070   39.7510  -30.8620 C.2   365  THR365      0.2287
    135  O         -0.7370   40.1370  -29.7900 O.2   365  THR365     -0.2866
    136  CB         0.5580   38.6280  -32.2710 C.3   365  THR365      0.1770
    137  OG1        0.9300   37.3930  -32.8910 O.3   365  THR365     -0.2211
    138  CG2        1.6690   39.0650  -31.3530 C.3   365  THR365      0.0375
    139  N         -3.9880   38.5180  -28.1630 N.3   368  LEU368     -0.1231
    140  CA        -3.3870   37.8090  -27.0450 C.3   368  LEU368      0.1693
    141  C         -2.6680   38.7560  -26.1000 C.2   368  LEU368      0.2591
    142  O         -2.7460   38.6130  -24.8810 O.2   368  LEU368     -0.2718
    143  CB        -2.3980   36.7700  -27.5700 C.3   368  LEU368      0.0284
    144  CG        -1.6160   35.9860  -26.5150 C.3   368  LEU368      0.0019
    145  CD1       -2.4780   34.8950  -25.9000 C.3   368  LEU368      0.0001
    146  CD2       -0.3420   35.4080  -27.1110 C.3   368  LEU368      0.0001
    147  N         -1.9660   39.7190  -26.6790 N.am  369  LEU369     -0.1980
    148  CA        -1.1430   40.6550  -25.9220 C.3   369  LEU369      0.1596
    149  C         -1.8300   41.3330  -24.7200 C.2   369  LEU369      0.2287
    150  O         -1.2490   41.3740  -23.6360 O.2   369  LEU369     -0.2864
    151  CB        -0.5270   41.6880  -26.8660 C.3   369  LEU369      0.0297
    152  CG         0.5590   42.5820  -26.2860 C.3   369  LEU369      0.0022
    153  CD1        1.8370   41.7950  -26.1110 C.3   369  LEU369      0.0001
    154  CD2        0.7750   43.7820  -27.1810 C.3   369  LEU369      0.0001
    155  N         -2.5730   38.5080  -21.8390 N.3   372  LEU372     -0.1231
    156  CA        -1.3810   38.1580  -21.0770 C.3   372  LEU372      0.1693
    157  C         -0.7920   39.4030  -20.4280 C.2   372  LEU372      0.2592
    158  O         -0.4440   39.4000  -19.2440 O.2   372  LEU372     -0.2718
    159  CB        -0.3180   37.5090  -21.9710 C.3   372  LEU372      0.0284
    160  CG        -0.5780   36.1820  -22.6960 C.3   372  LEU372      0.0019
    161  CD1        0.7100   35.3520  -22.7640 C.3   372  LEU372      0.0001
    162  CD2       -1.7190   35.3830  -22.0660 C.3   372  LEU372      0.0001
    163  N         -0.6960   40.4680  -21.2180 N.am  373  GLY373     -0.1957
    164  CA         0.0190   41.6680  -20.8250 C.3   373  GLY373      0.1869
    165  C         -0.5480   42.4600  -19.6610 C.2   373  GLY373      0.2309
    166  O          0.2070   43.1160  -18.9430 O.2   373  GLY373     -0.2863
    167  N          0.7110   41.8910  -15.8470 N.3   376  TYR376     -0.1241
    168  CA         2.0170   42.4900  -15.6040 C.3   376  TYR376      0.1605
    169  C          1.9320   44.0150  -15.5570 C.2   376  TYR376      0.2264
    170  O          2.6800   44.6640  -14.8250 O.2   376  TYR376     -0.2867
    171  CB         3.0100   42.0470  -16.6820 C.3   376  TYR376      0.0534
    172  CG         3.2710   40.5570  -16.6950 C.ar  376  TYR376     -0.0201
    173  CD1        4.4260   40.0310  -16.1300 C.ar  376  TYR376     -0.0009
    174  CD2        2.3590   39.6770  -17.2630 C.ar  376  TYR376     -0.0009
    175  CE1        4.6670   38.6730  -16.1350 C.ar  376  TYR376      0.0417
    176  CE2        2.5890   38.3180  -17.2710 C.ar  376  TYR376      0.0417
    177  CZ         3.7450   37.8210  -16.7070 C.ar  376  TYR376      0.1957
    178  OH         3.9810   36.4670  -16.7150 O.3   376  TYR376     -0.2866
    179  N         -4.4810   32.1130  -18.4740 N.3   404  GLN404     -0.1245
    180  CA        -3.4080   32.2710  -19.4480 C.3   404  GLN404      0.1566
    181  C         -3.2590   31.0070  -20.2930 C.2   404  GLN404      0.2260
    182  O         -3.2240   31.0620  -21.5270 O.2   404  GLN404     -0.2867
    183  CB        -2.0860   32.6220  -18.7510 C.3   404  GLN404      0.0367
    184  CG        -1.8670   34.1260  -18.5790 C.3   404  GLN404      0.0905
    185  CD        -0.4880   34.4830  -18.0370 C.2   404  GLN404      0.2608
    186  OE1        0.4530   33.6890  -18.1070 O.2   404  GLN404     -0.2717
    187  NE2       -0.3650   35.6920  -17.4950 N.am  404  GLN404     -0.0878
    188  N         -4.7280   30.1690  -28.8980 N.3   411  PHE411     -0.1241
    189  CA        -3.8430   30.9530  -29.7570 C.3   411  PHE411      0.1605
    190  C         -2.9300   30.0580  -30.5790 C.2   411  PHE411      0.2264
    191  O         -2.7670   30.2600  -31.7790 O.2   411  PHE411     -0.2867
    192  CB        -3.0100   31.9250  -28.9130 C.3   411  PHE411      0.0534
    193  CG        -1.7340   32.3880  -29.5790 C.ar  411  PHE411     -0.0203
    194  CD1       -1.7500   33.4070  -30.5210 C.ar  411  PHE411     -0.0042
    195  CD2       -0.5130   31.8170  -29.2420 C.ar  411  PHE411     -0.0042
    196  CE1       -0.5780   33.8350  -31.1240 C.ar  411  PHE411     -0.0003
    197  CE2        0.6610   32.2410  -29.8420 C.ar  411  PHE411     -0.0003
    198  CZ         0.6280   33.2520  -30.7830 C.ar  411  PHE411     -0.0000
@<TRIPOS>BOND
     1   127   126    2
     2   126   125    1
     3   130   128    1
     4   125   128    1
     5   125   124    1
     6    66    65    2
     7   128   129    1
     8   129   131    1
     9    65    64    1
    10    69    68    1
    11    64    63    1
    12    64    67    1
    13    68    67    1
    14    68    70    1
    15   108   107    2
    16   119   118    2
    17   118   117    1
    18   107   106    1
    19   107   116   am
    20    62    61    2
    21   106   109    1
    22   106   105    1
    23   111   113   ar
    24   111   110   ar
    25   113   115   ar
    26   122   121    1
    27   117   116    1
    28   117   120    1
    29   109   110    1
    30   110   112   ar
    31    53    52    2
    32   115   114   ar
    33    61    60    1
    34   112   114   ar
    35   137   136    1
    36   121   120    1
    37   121   123    1
    38    57    56   ar
    39   132   133    1
    40    52    59   am
    41    52    51    1
    42   136   133    1
    43   136   138    1
    44    60    59    1
    45   191   190    2
    46    97    96    2
    47    51    50    1
    48    51    54    1
    49   133   134    1
    50    56    58   ar
    51    56    55    1
    52   196   198   ar
    53   196   194   ar
    54    89    88    2
    55   134   135    2
    56   198   197   ar
    57    96    95    1
    58    54    55    1
    59   190   189    1
    60    92    91    2
    61   194   193   ar
    62    42    41    2
    63    88    87    1
    64    88    94   am
    65   197   195   ar
    66   189   192    1
    67   189   188    1
    68   193   195   ar
    69   193   192    1
    70    87    86    1
    71    87    90    1
    72    95    94    1
    73    95    98    1
    74    91    93   am
    75    91    90    1
    76    41    40    1
    77    49    47   ar
    78    49    48   ar
    79    47    45   ar
    80    48    46   ar
    81    34    33    2
    82    45    44   ar
    83    98    99    1
    84    46    44   ar
    85   139   140    1
    86    40    39    1
    87    40    43    1
    88    44    43    1
    89   100    99   ar
    90   100   102   ar
    91    33    39   am
    92    33    32    1
    93   143   140    1
    94   143   144    1
    95    99   101   ar
    96   154   152    1
    97   146   144    1
    98   140   141    1
    99   151   152    1
   100   151   148    1
   101   102   104   ar
   102    32    31    1
   103    32    35    1
   104   147   141   am
   105   147   148    1
   106    37    38    1
   107    37    36    1
   108   144   145    1
   109   152   153    1
   110    74    73    2
   111    81    80    2
   112   141   142    2
   113   101   103   ar
   114   148   149    1
   115    35    36    1
   116   104   103   ar
   117    80    79    1
   118    73    72    1
   119    73    78   am
   120   149   150    2
   121    76    75    1
   122    23    22    2
   123    72    75    1
   124    72    71    1
   125    79    78    1
   126    79    82    1
   127    84    83    1
   128    77    75    1
   129    22    21    1
   130    83    82    1
   131    83    85    1
   132    15    14    2
   133   161   160    1
   134   160   162    1
   135   160   159    1
   136     9     7   ar
   137     9    11   ar
   138    21    20    1
   139    21    24    1
   140     7     6   ar
   141    14    20   am
   142    14    13    1
   143   159   156    1
   144   155   156    1
   145    11    10   ar
   146   182   181    2
   147    24    25    1
   148   163   164    1
   149   163   157   am
   150     6     5    1
   151     6     8   ar
   152    13    12    1
   153    13    16    1
   154   156   157    1
   155   164   165    1
   156    27    25   ar
   157    27    29   ar
   158    10     8   ar
   159     5     2    1
   160    25    26   ar
   161     1     2    1
   162   157   158    2
   163   181   180    1
   164    29    30   ar
   165    16    17    1
   166    26    28   ar
   167     2     3    1
   168   165   166    2
   169   180   183    1
   170   180   179    1
   171    30    28   ar
   172    17    18    2
   173    17    19   am
   174     3     4    2
   175   183   184    1
   176   184   185    1
   177   186   185    2
   178   185   187   am
   179   176   174   ar
   180   176   177   ar
   181   174   172   ar
   182   178   177    1
   183   177   175   ar
   184   172   171    1
   185   172   173   ar
   186   171   168    1
   187   175   173   ar
   188   167   168    1
   189   168   169    1
   190   169   170    2
