@<TRIPOS>MOLECULE
tmp/4z9gC03.pdb
 122 118 0 0 0
SMALL
GASTEIGER

@<TRIPOS>ATOM
      1  N        -28.2630   94.7730  -32.9160 N.3    85  HIS85      -0.1241
      2  CA       -29.6360   95.0490  -32.5510 C.3    85  HIS85       0.1621
      3  C        -30.1010   94.0840  -31.4700 C.2    85  HIS85       0.2264
      4  O        -30.7770   94.4810  -30.5210 O.2    85  HIS85      -0.2867
      5  CB       -30.5340   94.9390  -33.7740 C.3    85  HIS85       0.0745
      6  CG       -31.7880   95.7470  -33.6700 C.ar   85  HIS85       0.0817
      7  ND1      -32.5670   96.0530  -34.7640 N.ar   85  HIS85      -0.2268
      8  CD2      -32.3940   96.3180  -32.6030 C.ar   85  HIS85       0.1154
      9  CE1      -33.6030   96.7750  -34.3750 C.ar   85  HIS85       0.1986
     10  NE2      -33.5220   96.9500  -33.0680 N.ar   85  HIS85      -0.2212
     11  N        -31.1270   94.6310  -26.9120 N.3    89  PHE89      -0.1241
     12  CA       -32.2150   94.0440  -26.1370 C.3    89  PHE89       0.1605
     13  C        -31.6960   93.1910  -24.9870 C.2    89  PHE89       0.2264
     14  O        -32.2010   93.2620  -23.8640 O.2    89  PHE89      -0.2867
     15  CB       -33.1140   93.2020  -27.0430 C.3    89  PHE89       0.0534
     16  CG       -34.1960   93.9900  -27.7200 C.ar   89  PHE89      -0.0203
     17  CD1      -33.8840   94.9780  -28.6380 C.ar   89  PHE89      -0.0042
     18  CD2      -35.5290   93.7400  -27.4370 C.ar   89  PHE89      -0.0042
     19  CE1      -34.8840   95.7050  -29.2620 C.ar   89  PHE89      -0.0003
     20  CE2      -36.5320   94.4590  -28.0580 C.ar   89  PHE89      -0.0003
     21  CZ       -36.2090   95.4430  -28.9720 C.ar   89  PHE89      -0.0000
     22  N        -34.4770   86.2650  -35.4640 N.3   311  TYR311     -0.1227
     23  CA       -33.7810   87.0770  -34.4700 C.3   311  TYR311      0.1736
     24  C        -34.7070   88.1010  -33.8140 C.2   311  TYR311      0.2595
     25  O        -34.5510   88.4230  -32.6380 O.2   311  TYR311     -0.2718
     26  CB       -32.5180   87.7350  -35.0490 C.3   311  TYR311      0.0548
     27  CG       -32.7540   88.9600  -35.9060 C.ar  311  TYR311     -0.0200
     28  CD1      -32.8280   88.8600  -37.2910 C.ar  311  TYR311     -0.0009
     29  CD2      -32.8770   90.2220  -35.3320 C.ar  311  TYR311     -0.0009
     30  CE1      -33.0350   89.9780  -38.0790 C.ar  311  TYR311      0.0417
     31  CE2      -33.0880   91.3450  -36.1080 C.ar  311  TYR311      0.0417
     32  CZ       -33.1650   91.2170  -37.4820 C.ar  311  TYR311      0.1957
     33  OH       -33.3720   92.3330  -38.2580 O.3   311  TYR311     -0.2866
     34  N        -35.6750   88.6060  -34.5710 N.am  312  GLN312     -0.1979
     35  CA       -36.6150   89.5770  -34.0290 C.3   312  GLN312      0.1601
     36  C        -37.5260   88.9300  -32.9930 C.2   312  GLN312      0.2287
     37  O        -38.0120   89.5910  -32.0760 O.2   312  GLN312     -0.2864
     38  CB       -37.4350   90.2100  -35.1490 C.3   312  GLN312      0.0394
     39  CG       -36.6420   91.1990  -35.9730 C.3   312  GLN312      0.0908
     40  CD       -37.4460   91.7870  -37.1090 C.2   312  GLN312      0.2608
     41  OE1      -38.6160   91.4520  -37.2960 O.2   312  GLN312     -0.2717
     42  NE2      -36.8210   92.6700  -37.8800 N.am  312  GLN312     -0.0878
     43  N        -35.8350   88.6560  -29.4510 N.3   315  MET315     -0.1230
     44  CA       -35.7800   90.0290  -28.9610 C.3   315  MET315      0.1702
     45  C        -37.0930   90.3770  -28.2800 C.2   315  MET315      0.2592
     46  O        -37.1140   91.0130  -27.2280 O.2   315  MET315     -0.2718
     47  CB       -35.5120   90.9980  -30.1110 C.3   315  MET315      0.0401
     48  CG       -34.1180   90.8960  -30.6900 C.3   315  MET315      0.0596
     49  SD       -33.9670   91.7430  -32.2740 S.3   315  MET315     -0.1393
     50  CE       -34.1800   93.4420  -31.7670 C.3   315  MET315      0.0692
     51  N        -38.1910   89.9410  -28.8860 N.am  316  ALA316     -0.1980
     52  CA       -39.5110   90.1250  -28.3020 C.3   316  ALA316      0.1597
     53  C        -39.7000   89.2350  -27.0760 C.2   316  ALA316      0.2287
     54  O        -40.2550   89.6730  -26.0720 O.2   316  ALA316     -0.2864
     55  CB       -40.5920   89.8550  -29.3360 C.3   316  ALA316      0.0319
     56  N        -37.8560   90.7770  -24.3520 N.3   319  LEU319     -0.1245
     57  CA       -38.6260   91.9570  -23.9890 C.3   319  LEU319      0.1561
     58  C        -39.7780   91.6010  -23.0600 C.2   319  LEU319      0.2260
     59  O        -40.0340   92.3030  -22.0810 O.2   319  LEU319     -0.2867
     60  CB       -39.1660   92.6310  -25.2520 C.3   319  LEU319      0.0270
     61  CG       -40.2760   93.6680  -25.0720 C.3   319  LEU319      0.0019
     62  CD1      -39.8070   94.8510  -24.2310 C.3   319  LEU319      0.0001
     63  CD2      -40.7880   94.1350  -26.4220 C.3   319  LEU319      0.0001
     64  N        -40.8590   92.4710  -19.0230 N.3   323  PHE323     -0.1241
     65  CA       -42.1610   93.0100  -18.6530 C.3   323  PHE323      0.1605
     66  C        -42.7460   92.2330  -17.4870 C.2   323  PHE323      0.2264
     67  O        -43.4560   92.7920  -16.6510 O.2   323  PHE323     -0.2867
     68  CB       -43.1180   92.9650  -19.8420 C.3   323  PHE323      0.0534
     69  CG       -43.2760   94.2820  -20.5400 C.ar  323  PHE323     -0.0203
     70  CD1      -43.6190   95.4230  -19.8310 C.ar  323  PHE323     -0.0042
     71  CD2      -43.0750   94.3820  -21.9070 C.ar  323  PHE323     -0.0042
     72  CE1      -43.7660   96.6330  -20.4750 C.ar  323  PHE323     -0.0003
     73  CE2      -43.2170   95.5900  -22.5550 C.ar  323  PHE323     -0.0003
     74  CZ       -43.5630   96.7180  -21.8390 C.ar  323  PHE323     -0.0000
     75  N        -39.1590  103.3890  -21.4780 N.3   359  LEU359     -0.1245
     76  CA       -40.0070  102.3930  -22.1170 C.3   359  LEU359      0.1561
     77  C        -40.8510  102.9510  -23.2720 C.2   359  LEU359      0.2260
     78  O        -40.9140  102.3360  -24.3350 O.2   359  LEU359     -0.2867
     79  CB       -40.8650  101.6730  -21.0700 C.3   359  LEU359      0.0270
     80  CG       -41.6030  100.4060  -21.4910 C.3   359  LEU359      0.0019
     81  CD1      -40.6580   99.4300  -22.1710 C.3   359  LEU359      0.0001
     82  CD2      -42.2440   99.7660  -20.2740 C.3   359  LEU359      0.0001
     83  N        -39.7160  102.0690  -26.9180 N.3   363  GLY363     -0.1225
     84  CA       -40.7010  101.0770  -27.3000 C.3   363  GLY363      0.1811
     85  C        -41.6640  101.4700  -28.4060 C.2   363  GLY363      0.2280
     86  O        -42.0450  100.6300  -29.2200 O.2   363  GLY363     -0.2866
     87  N        -40.9570  100.6870  -32.1140 N.3   366  TYR366     -0.1227
     88  CA       -41.1980   99.3060  -32.5230 C.3   366  TYR366      0.1736
     89  C        -42.6860   98.9900  -32.6840 C.2   366  TYR366      0.2595
     90  O        -43.0590   98.0780  -33.4240 O.2   366  TYR366     -0.2718
     91  CB       -40.5480   98.3390  -31.5290 C.3   366  TYR366      0.0548
     92  CG       -39.0350   98.3430  -31.5760 C.ar  366  TYR366     -0.0200
     93  CD1      -38.3360   97.2680  -32.1110 C.ar  366  TYR366     -0.0009
     94  CD2      -38.3070   99.4260  -31.0950 C.ar  366  TYR366     -0.0009
     95  CE1      -36.9550   97.2690  -32.1600 C.ar  366  TYR366      0.0417
     96  CE2      -36.9270   99.4370  -31.1410 C.ar  366  TYR366      0.0417
     97  CZ       -36.2560   98.3550  -31.6740 C.ar  366  TYR366      0.1957
     98  OH       -34.8820   98.3600  -31.7220 O.3   366  TYR366     -0.2866
     99  N        -43.5310   99.7470  -31.9900 N.am  367  MET367     -0.1979
    100  CA       -44.9780   99.5830  -32.1010 C.3   367  MET367      0.1605
    101  C        -45.4670   99.9680  -33.4870 C.2   367  MET367      0.2287
    102  O        -46.2870   99.2730  -34.0880 O.2   367  MET367     -0.2864
    103  CB       -45.6930  100.4490  -31.0700 C.3   367  MET367      0.0413
    104  CG       -45.4690  100.0210  -29.6440 C.3   367  MET367      0.0598
    105  SD       -47.0310   99.8500  -28.7720 S.3   367  MET367     -0.1393
    106  CE       -47.7210   98.4180  -29.5990 C.3   367  MET367      0.0692
    107  N        -43.6970  100.0610  -36.1710 N.3   369  ALA369     -0.1231
    108  CA       -43.0870   99.1780  -37.1590 C.3   369  ALA369      0.1694
    109  C        -43.9860   97.9850  -37.4810 C.2   369  ALA369      0.2592
    110  O        -44.1370   97.6100  -38.6420 O.2   369  ALA369     -0.2718
    111  CB       -41.7120   98.7090  -36.6830 C.3   369  ALA369      0.0304
    112  N        -44.5840   97.3990  -36.4470 N.am  370  PHE370     -0.1976
    113  CA       -45.4930   96.2690  -36.6210 C.3   370  PHE370      0.1639
    114  C        -46.9380   96.6850  -36.3450 C.2   370  PHE370      0.2290
    115  O        -47.6970   96.9900  -37.2670 O.2   370  PHE370     -0.2864
    116  CB       -45.0900   95.0980  -35.7100 C.3   370  PHE370      0.0560
    117  CG       -43.8890   94.3150  -36.2010 C.ar  370  PHE370     -0.0200
    118  CD1      -43.5150   94.3440  -37.5370 C.ar  370  PHE370     -0.0042
    119  CD2      -43.1410   93.5410  -35.3220 C.ar  370  PHE370     -0.0042
    120  CE1      -42.4150   93.6230  -37.9870 C.ar  370  PHE370     -0.0003
    121  CE2      -42.0390   92.8170  -35.7670 C.ar  370  PHE370     -0.0003
    122  CZ       -41.6780   92.8600  -37.1020 C.ar  370  PHE370     -0.0000
@<TRIPOS>BOND
     1   110   109    2
     2    33    32    1
     3    30    32   ar
     4    30    28   ar
     5   120   118   ar
     6   120   122   ar
     7    42    40   am
     8   118   117   ar
     9    32    31   ar
    10   109   108    1
    11   109   112   am
    12    41    40    2
    13    28    27   ar
    14   115   114    2
    15   108   111    1
    16   108   107    1
    17    40    39    1
    18   122   121   ar
    19   113   112    1
    20   113   114    1
    21   113   116    1
    22   117   116    1
    23   117   119   ar
    24    31    29   ar
    25    39    38    1
    26    27    29   ar
    27    27    26    1
    28   121   119   ar
    29    22    23    1
    30    38    35    1
    31    26    23    1
    32     7     9   ar
    33     7     6   ar
    34    34    35    1
    35    34    24   am
    36    23    24    1
    37     9    10   ar
    38   102   101    2
    39    35    36    1
    40    24    25    2
    41     5     6    1
    42     5     2    1
    43     6     8   ar
    44   101   100    1
    45    90    89    2
    46    10     8   ar
    47    36    37    2
    48     1     2    1
    49    89    88    1
    50    89    99   am
    51     2     3    1
    52    88    87    1
    53    88    91    1
    54    49    50    1
    55    49    48    1
    56    95    93   ar
    57    95    97   ar
    58    93    92   ar
    59   100    99    1
    60   100   103    1
    61    98    97    1
    62    97    96   ar
    63    92    91    1
    64    92    94   ar
    65     3     4    2
    66    96    94   ar
    67   103   104    1
    68    48    47    1
    69    47    44    1
    70   104   105    1
    71   106   105    1
    72    43    44    1
    73    55    52    1
    74    19    21   ar
    75    19    17   ar
    76    86    85    2
    77    21    20   ar
    78    44    45    1
    79    51    52    1
    80    51    45   am
    81    17    16   ar
    82    85    84    1
    83    52    53    1
    84    45    46    2
    85    20    18   ar
    86    16    18   ar
    87    16    15    1
    88    84    83    1
    89    53    54    2
    90    15    12    1
    91    11    12    1
    92    63    61    1
    93    12    13    1
    94    60    61    1
    95    60    57    1
    96    61    62    1
    97    13    14    2
    98    56    57    1
    99    78    77    2
   100    57    58    1
   101    77    76    1
   102    58    59    2
   103    73    71   ar
   104    73    74   ar
   105    81    80    1
   106    76    75    1
   107    76    79    1
   108    71    69   ar
   109    74    72   ar
   110    80    79    1
   111    80    82    1
   112    69    68    1
   113    69    70   ar
   114    72    70   ar
   115    68    65    1
   116    64    65    1
   117    65    66    1
   118    66    67    2
