@<TRIPOS>MOLECULE
tmp/4z9lA00.pdb
 134 128 0 0 0
SMALL
GASTEIGER

@<TRIPOS>ATOM
      1  N         28.5820   13.7240   32.4560 N.3    28  SER28      -0.1202
      2  CA        28.3480   15.1050   32.8370 C.3    28  SER28       0.2020
      3  C         28.2000   15.9580   31.5800 C.2    28  SER28       0.2619
      4  O         28.5950   15.5500   30.4840 O.2    28  SER28      -0.2717
      5  CB        29.4800   15.6220   33.7240 C.3    28  SER28       0.2103
      6  OG        30.7170   15.6570   33.0340 O.3    28  SER28      -0.2182
      7  N         27.6040   17.1150   31.7670 N.am   29  GLY29      -0.1942
      8  CA        27.3790   18.1050   30.7240 C.3    29  GLY29       0.2014
      9  C         27.3830   19.4810   31.3500 C.2    29  GLY29       0.2639
     10  O         27.6870   19.6120   32.5320 O.2    29  GLY29      -0.2714
     11  N         27.0140   20.5050   30.5740 N.am   30  ALA30      -0.1963
     12  CA        26.9790   21.9060   31.0150 C.3    30  ALA30       0.1728
     13  C         26.0360   22.1180   32.1980 C.2    30  ALA30       0.2616
     14  O         26.3460   22.9040   33.0830 O.2    30  ALA30      -0.2715
     15  CB        26.5690   22.7990   29.8490 C.3    30  ALA30       0.0334
     16  N         24.9280   21.3620   32.2420 N.am   31  GLN31      -0.1977
     17  CA        23.8960   21.4510   33.2760 C.3    31  GLN31       0.1601
     18  C         24.2120   20.7480   34.6000 C.2    31  GLN31       0.2287
     19  O         23.7820   21.2240   35.6420 O.2    31  GLN31      -0.2864
     20  CB        22.5560   20.9370   32.7280 C.3    31  GLN31       0.0394
     21  CG        21.3580   21.5830   33.4150 C.3    31  GLN31       0.0908
     22  CD        20.1100   20.7490   33.3580 C.2    31  GLN31       0.2608
     23  OE1       20.1370   19.5860   32.9460 O.2    31  GLN31      -0.2717
     24  NE2       18.9770   21.3430   33.7480 N.am   31  GLN31      -0.0878
     25  N         16.1210   26.8790   32.4570 N.3    63  ARG63      -0.1245
     26  CA        16.1050   25.4560   32.1360 C.3    63  ARG63       0.1563
     27  C         15.7190   24.5910   33.3270 C.2    63  ARG63       0.2260
     28  O         14.8060   23.7880   33.1840 O.2    63  ARG63      -0.2867
     29  CB        17.4230   24.9750   31.4940 C.3    63  ARG63       0.0307
     30  CG        17.3010   23.5500   30.9590 C.3    63  ARG63       0.0489
     31  CD        18.5750   23.0250   30.3580 C.3    63  ARG63       0.2205
     32  NE        18.5570   21.5620   30.3260 N.pl3  63  ARG63      -0.0865
     33  CZ        19.5250   20.8080   29.8200 C.cat  63  ARG63       0.5346
     34  NH1       20.6110   21.3700   29.3040 N.pl3  63  ARG63       0.1354
     35  NH2       19.4140   19.4880   29.8210 N.pl3  63  ARG63       0.1354
     36  N         23.3260    8.1250   21.0400 N.3   110  CYS110     -0.1235
     37  CA        24.6370    8.2750   20.3800 C.3   110  CYS110      0.1677
     38  C         25.2700    6.8800   20.2100 C.2   110  CYS110      0.2270
     39  O         25.7490    6.5470   19.1330 O.2   110  CYS110     -0.2867
     40  CB        25.5590    9.1810   21.1910 C.3   110  CYS110      0.0956
     41  SG        25.0050   10.8940   21.3000 S.3   110  CYS110     -0.0801
     42  N         23.4210    4.8640   17.7090 N.3   113  ILE113     -0.1245
     43  CA        23.8140    5.3560   16.3720 C.3   113  ILE113      0.1561
     44  C         25.1070    4.6750   15.8780 C.2   113  ILE113      0.2260
     45  O         25.2330    4.4130   14.6890 O.2   113  ILE113     -0.2867
     46  CB        23.9410    6.9130   16.3840 C.3   113  ILE113      0.0252
     47  CG1       22.5930    7.5670   16.0730 C.3   113  ILE113      0.0019
     48  CG2       25.1000    7.4510   15.4680 C.3   113  ILE113      0.0019
     49  CD1       22.4460    9.0580   16.5800 C.3   113  ILE113      0.0001
     50  N         18.1170   16.0290   20.3890 N.3   147  LYS147     -0.1231
     51  CA        19.4340   15.5330   19.9910 C.3   147  LYS147      0.1678
     52  C         19.6740   14.1580   20.6150 C.2   147  LYS147      0.2434
     53  O         19.0910   13.8550   21.6620 O.2   147  LYS147     -0.2733
     54  CB        20.5590   16.5530   20.3010 C.3   147  LYS147      0.0284
     55  CG        20.7990   16.7920   21.7810 C.3   147  LYS147      0.0035
     56  CD        21.6570   18.0750   22.0000 C.3   147  LYS147      0.0206
     57  CE        20.8040   19.2740   22.3790 C.3   147  LYS147      0.1093
     58  NZ        21.5890   20.5440   22.4260 N.3   147  LYS147     -0.1314
     59  N         20.5010   13.2980   19.9870 N.am  148  PRO148     -0.2718
     60  CA        20.6590   11.9410   20.5060 C.3   148  PRO148      0.1535
     61  C         21.3240   11.8310   21.8750 C.2   148  PRO148      0.2599
     62  O         21.0370   10.8800   22.5930 O.2   148  PRO148     -0.2715
     63  CB        21.4490   11.2160   19.4050 C.3   148  PRO148      0.0310
     64  CG        22.0610   12.2340   18.6070 C.3   148  PRO148      0.0237
     65  CD        21.2190   13.4710   18.7070 C.3   148  PRO148      0.0939
     66  N         22.1680   12.7890   22.2630 N.am  149  SER149     -0.1936
     67  CA        22.7760   12.7420   23.6000 C.3   149  SER149      0.2055
     68  C         21.7190   12.9360   24.7080 C.2   149  SER149      0.2643
     69  O         21.9680   12.5440   25.8370 O.2   149  SER149     -0.2714
     70  CB        23.8850   13.7760   23.7310 C.3   149  SER149      0.2130
     71  OG        23.3490   15.0800   23.6090 O.3   149  SER149     -0.2179
     72  N         20.5280   13.4590   24.3670 N.am  150  ASN150     -0.1971
     73  CA        19.4230   13.6660   25.3250 C.3   150  ASN150      0.1688
     74  C         18.2930   12.6530   25.1810 C.2   150  ASN150      0.2292
     75  O         17.1880   12.8660   25.6690 O.2   150  ASN150     -0.2864
     76  CB        18.9020   15.0820   25.2660 C.3   150  ASN150      0.1181
     77  CG        19.8020   16.0110   26.0140 C.2   150  ASN150      0.2629
     78  OD1       20.3170   15.6750   27.0780 O.2   150  ASN150     -0.2716
     79  ND2       20.0110   17.1820   25.4750 N.am  150  ASN150     -0.0877
     80  N         27.4960   24.2410   22.5170 N.3   171  VAL171     -0.1231
     81  CA        26.2040   23.5730   22.3860 C.3   171  VAL171      0.1692
     82  C         25.9990   22.9770   20.9930 C.2   171  VAL171      0.2592
     83  O         26.3640   23.5920   19.9970 O.2   171  VAL171     -0.2718
     84  CB        25.0140   24.4690   22.8110 C.3   171  VAL171      0.0266
     85  CG1       23.6790   23.7500   22.6540 C.3   171  VAL171      0.0020
     86  CG2       25.1870   24.8440   24.2850 C.3   171  VAL171      0.0020
     87  N         25.3900   21.7900   20.9430 N.am  172  THR172     -0.1953
     88  CA        25.0970   20.9970   19.7400 C.3   172  THR172      0.1897
     89  C         23.9320   21.5810   18.9240 C.2   172  THR172      0.2313
     90  O         22.7850   21.5530   19.3710 O.2   172  THR172     -0.2863
     91  CB        24.8560   19.5340   20.1610 C.3   172  THR172      0.1794
     92  OG1       25.9800   19.1090   20.9250 O.3   172  THR172     -0.2208
     93  CG2       24.6280   18.5900   18.9760 C.3   172  THR172      0.0378
     94  N         23.6500   20.6310   15.3840 N.3   174  TYR174     -0.1227
     95  CA        23.5000   19.7050   14.2390 C.3   174  TYR174      0.1736
     96  C         22.0580   19.2810   13.8720 C.2   174  TYR174      0.2595
     97  O         21.8100   18.9970   12.7120 O.2   174  TYR174     -0.2718
     98  CB        24.3470   18.4240   14.4470 C.3   174  TYR174      0.0548
     99  CG        25.7440   18.6560   14.9780 C.ar  174  TYR174     -0.0200
    100  CD1       26.5480   19.6740   14.4680 C.ar  174  TYR174     -0.0009
    101  CD2       26.2880   17.8230   15.9500 C.ar  174  TYR174     -0.0009
    102  CE1       27.8390   19.8870   14.9490 C.ar  174  TYR174      0.0417
    103  CE2       27.5760   18.0290   16.4430 C.ar  174  TYR174      0.0417
    104  CZ        28.3560   19.0520   15.9250 C.ar  174  TYR174      0.1957
    105  OH        29.6350   19.2550   16.3840 O.3   174  TYR174     -0.2866
    106  N         21.1270   19.2120   14.8670 N.am  175  TYR175     -0.1976
    107  CA        19.7470   18.6960   14.7120 C.3   175  TYR175      0.1639
    108  C         18.6820   19.7770   14.5950 C.2   175  TYR175      0.2290
    109  O         17.5220   19.4630   14.3680 O.2   175  TYR175     -0.2864
    110  CB        19.4320   17.7270   15.8770 C.3   175  TYR175      0.0560
    111  CG        20.5350   16.7130   16.0400 C.ar  175  TYR175     -0.0198
    112  CD1       21.6350   16.9800   16.8530 C.ar  175  TYR175     -0.0009
    113  CD2       20.5650   15.5600   15.2610 C.ar  175  TYR175     -0.0009
    114  CE1       22.7210   16.1160   16.9040 C.ar  175  TYR175      0.0417
    115  CE2       21.6510   14.6890   15.2990 C.ar  175  TYR175      0.0417
    116  CZ        22.7290   14.9790   16.1200 C.ar  175  TYR175      0.1957
    117  OH        23.7770   14.1130   16.2180 O.3   175  TYR175     -0.2866
    118  N         21.2760    9.8780   10.5900 N.3   201  GLU201     -0.1245
    119  CA        22.4920    9.5320   11.3160 C.3   201  GLU201      0.1567
    120  C         22.4920    8.0630   11.7610 C.2   201  GLU201      0.2260
    121  O         23.5590    7.4620   11.8180 O.2   201  GLU201     -0.2867
    122  CB        22.6740   10.4530   12.5150 C.3   201  GLU201      0.0388
    123  CG        24.0270   10.3220   13.1780 C.3   201  GLU201      0.1160
    124  CD        24.3130   11.3900   14.2070 C.2   201  GLU201      0.3649
    125  OE1       23.6580   12.4550   14.1540 O.co2 201  GLU201     -0.2457
    126  OE2       25.2320   11.1850   15.0300 O.co2 201  GLU201     -0.2457
    127  N         27.0650   12.1310   11.6820 N.3   207  ILE207     -0.1245
    128  CA        26.2520   13.3500   11.7950 C.3   207  ILE207      0.1561
    129  C         25.9440   13.8140   10.3680 C.2   207  ILE207      0.2260
    130  O         26.8670   13.8570    9.5410 O.2   207  ILE207     -0.2867
    131  CB        27.0070   14.4520   12.5990 C.3   207  ILE207      0.0252
    132  CG1       27.3090   13.9870   14.0490 C.3   207  ILE207      0.0019
    133  CG2       26.2280   15.7800   12.5940 C.3   207  ILE207      0.0019
    134  CD1       28.4400   14.8130   14.8010 C.3   207  ILE207      0.0001
@<TRIPOS>BOND
     1   130   129    2
     2   129   128    1
     3   118   119    1
     4   119   120    1
     5   119   122    1
     6   127   128    1
     7   120   121    2
     8   128   131    1
     9   122   123    1
    10   133   131    1
    11   131   132    1
    12    97    96    2
    13   123   124    1
    14    96    95    1
    15    96   106   am
    16   132   134    1
    17   125   124   ar
    18   124   126   ar
    19    95    98    1
    20    95    94    1
    21   109   108    2
    22    98    99    1
    23   100   102   ar
    24   100    99   ar
    25   108   107    1
    26    45    44    2
    27   107   106    1
    28   107   110    1
    29   102   104   ar
    30    99   101   ar
    31   113   115   ar
    32   113   111   ar
    33   115   116   ar
    34    48    46    1
    35   110   111    1
    36    44    43    1
    37   104   105    1
    38   104   103   ar
    39   101   103   ar
    40   111   112   ar
    41    47    46    1
    42    47    49    1
    43   116   117    1
    44   116   114   ar
    45    43    46    1
    46    43    42    1
    47   112   114   ar
    48    64    65    1
    49    64    63    1
    50    65    59    1
    51    89    90    2
    52    89    88    1
    53    93    91    1
    54    39    38    2
    55    63    60    1
    56    88    91    1
    57    88    87    1
    58    59    60    1
    59    59    52   am
    60    51    54    1
    61    51    50    1
    62    51    52    1
    63    83    82    2
    64    91    92    1
    65    38    37    1
    66    54    55    1
    67    37    36    1
    68    37    40    1
    69    60    61    1
    70    52    53    2
    71    87    82   am
    72    82    81    1
    73    40    41    1
    74    55    56    1
    75    61    66   am
    76    61    62    2
    77    56    57    1
    78    66    67    1
    79    57    58    1
    80    81    80    1
    81    81    84    1
    82    85    84    1
    83    84    86    1
    84    67    70    1
    85    67    68    1
    86    71    70    1
    87    72    68   am
    88    72    73    1
    89    68    69    2
    90    74    73    1
    91    74    75    2
    92    76    73    1
    93    76    77    1
    94    79    77   am
    95    77    78    2
    96    34    33    1
    97    33    35    1
    98    33    32    2
    99    15    12    1
   100    32    31    1
   101    31    30    1
   102     4     3    2
   103    11    12    1
   104    11     9   am
   105     8     9    1
   106     8     7    1
   107    30    29    1
   108    12    13    1
   109     9    10    2
   110    29    26    1
   111     3     7   am
   112     3     2    1
   113    26    25    1
   114    26    27    1
   115    13    16   am
   116    13    14    2
   117    16    17    1
   118     1     2    1
   119    20    17    1
   120    20    21    1
   121     2     5    1
   122    23    22    2
   123     6     5    1
   124    28    27    2
   125    17    18    1
   126    22    21    1
   127    22    24   am
   128    18    19    2
