@<TRIPOS>MOLECULE
tmp/4z9lA01.pdb
 150 139 0 0 0
SMALL
GASTEIGER

@<TRIPOS>ATOM
      1  N         28.4560    8.5720   35.6090 N.3    26  ILE26      -0.1231
      2  CA        28.0970    7.9780   34.2880 C.3    26  ILE26       0.1692
      3  C         28.1190    9.0170   33.1700 C.2    26  ILE26       0.2593
      4  O         27.9030    8.6820   32.0040 O.2    26  ILE26      -0.2718
      5  CB        26.7800    7.1530   34.2850 C.3    26  ILE26       0.0266
      6  CG1       25.5660    7.9930   34.7480 C.3    26  ILE26       0.0019
      7  CG2       26.9430    5.8520   35.1230 C.3    26  ILE26       0.0020
      8  CD1       24.1490    7.3040   34.5970 C.3    26  ILE26       0.0001
      9  N         28.3900   10.2640   33.5350 N.am   27  GLY27      -0.1942
     10  CA        28.4780   11.3450   32.5680 C.3    27  GLY27       0.2014
     11  C         28.1220   12.6910   33.1360 C.2    27  GLY27       0.2640
     12  O         27.4450   12.7960   34.1600 O.2    27  GLY27      -0.2714
     13  N         28.5820   13.7240   32.4560 N.am   28  SER28      -0.1935
     14  CA        28.3480   15.1050   32.8370 C.3    28  SER28       0.2055
     15  C         28.2000   15.9580   31.5800 C.2    28  SER28       0.2643
     16  O         28.5950   15.5500   30.4840 O.2    28  SER28      -0.2714
     17  CB        29.4800   15.6220   33.7240 C.3    28  SER28       0.2130
     18  OG        30.7170   15.6570   33.0340 O.3    28  SER28      -0.2179
     19  N         27.6040   17.1150   31.7670 N.am   29  GLY29      -0.1954
     20  CA        27.3790   18.1050   30.7240 C.3    29  GLY29       0.1869
     21  C         27.3830   19.4810   31.3500 C.2    29  GLY29       0.2309
     22  O         27.6870   19.6120   32.5320 O.2    29  GLY29      -0.2863
     23  N         24.8710   19.5970   34.5560 N.3    32  GLY32      -0.1225
     24  CA        25.1770   18.8600   35.7800 C.3    32  GLY32       0.1811
     25  C         25.8640   17.5160   35.6210 C.2    32  GLY32       0.2280
     26  O         26.1460   17.0660   34.5090 O.2    32  GLY32      -0.2866
     27  N         25.9760   13.3840   36.4700 N.3    34  VAL34      -0.1245
     28  CA        25.0500   12.2640   36.5860 C.3    34  VAL34       0.1561
     29  C         25.7610   11.0370   37.1430 C.2    34  VAL34       0.2260
     30  O         26.8550   10.7050   36.6900 O.2    34  VAL34      -0.2867
     31  CB        24.3310   11.9570   35.2350 C.3    34  VAL34       0.0252
     32  CG1       23.2710   10.8830   35.4160 C.3    34  VAL34       0.0019
     33  CG2       23.7270   13.2270   34.6290 C.3    34  VAL34       0.0019
     34  N         19.3620    6.6890   38.0920 N.3    47  ALA47      -0.1245
     35  CA        20.2740    7.7170   37.6140 C.3    47  ALA47       0.1562
     36  C         19.9670    8.9310   38.4880 C.2    47  ALA47       0.2260
     37  O         18.7920    9.2290   38.7330 O.2    47  ALA47      -0.2867
     38  CB        19.9850    8.0350   36.1500 C.3    47  ALA47       0.0290
     39  N         20.8930   12.9880   38.9620 N.3    49  LYS49      -0.1245
     40  CA        21.4820   14.1940   38.4080 C.3    49  LYS49       0.1561
     41  C         21.5430   15.2850   39.4630 C.2    49  LYS49       0.2260
     42  O         20.5210   15.6260   40.0730 O.2    49  LYS49      -0.2867
     43  CB        20.6920   14.6820   37.1880 C.3    49  LYS49       0.0271
     44  CG        21.2940   15.9580   36.5720 C.3    49  LYS49       0.0035
     45  CD        20.8290   16.2360   35.1430 C.3    49  LYS49       0.0206
     46  CE        19.4680   16.8700   35.0450 C.3    49  LYS49       0.1093
     47  NZ        19.0890   17.1690   33.6330 N.3    49  LYS49      -0.1314
     48  N         16.1210   26.8790   32.4570 N.3    63  ARG63      -0.1245
     49  CA        16.1050   25.4560   32.1360 C.3    63  ARG63       0.1563
     50  C         15.7190   24.5910   33.3270 C.2    63  ARG63       0.2260
     51  O         14.8060   23.7880   33.1840 O.2    63  ARG63      -0.2867
     52  CB        17.4230   24.9750   31.4940 C.3    63  ARG63       0.0307
     53  CG        17.3010   23.5500   30.9590 C.3    63  ARG63       0.0489
     54  CD        18.5750   23.0250   30.3580 C.3    63  ARG63       0.2205
     55  NE        18.5570   21.5620   30.3260 N.pl3  63  ARG63      -0.0865
     56  CZ        19.5250   20.8080   29.8200 C.cat  63  ARG63       0.5346
     57  NH1       20.6110   21.3700   29.3040 N.pl3  63  ARG63       0.1354
     58  NH2       19.4140   19.4880   29.8210 N.pl3  63  ARG63       0.1354
     59  N         15.7170    9.3950   38.3550 N.3   102  MET102     -0.1230
     60  CA        14.8720    8.6530   37.4110 C.3   102  MET102      0.1702
     61  C         15.4280    7.2410   37.2770 C.2   102  MET102      0.2592
     62  O         16.5330    6.9670   37.7380 O.2   102  MET102     -0.2718
     63  CB        14.8250    9.3470   36.0310 C.3   102  MET102      0.0401
     64  CG        16.1340    9.2600   35.2530 C.3   102  MET102      0.0596
     65  SD        16.0050    9.9940   33.5950 S.3   102  MET102     -0.1393
     66  CE        15.2160    8.6710   32.7060 C.3   102  MET102      0.0692
     67  N         14.7000    6.3760   36.5650 N.am  103  GLU103     -0.1966
     68  CA        15.0810    5.0120   36.2350 C.3   103  GLU103      0.1733
     69  C         16.4510    5.0080   35.5260 C.2   103  GLU103      0.2616
     70  O         16.6690    5.8410   34.6550 O.2   103  GLU103     -0.2715
     71  CB        14.0630    4.4880   35.2270 C.3   103  GLU103      0.0429
     72  CG        13.9880    2.9830   35.2190 C.3   103  GLU103      0.1163
     73  CD        13.2910    2.4280   34.0030 C.2   103  GLU103      0.3649
     74  OE1       12.3090    3.0490   33.5390 O.co2 103  GLU103     -0.2457
     75  OE2       13.7300    1.3630   33.5170 O.co2 103  GLU103     -0.2457
     76  N         17.3540    4.0850   35.8870 N.am  104  LEU104     -0.1963
     77  CA        18.6460    4.0090   35.2100 C.3   104  LEU104      0.1728
     78  C         18.4530    3.4100   33.8130 C.2   104  LEU104      0.2616
     79  O         17.8760    2.3340   33.6900 O.2   104  LEU104     -0.2715
     80  CB        19.6620    3.1550   35.9920 C.3   104  LEU104      0.0311
     81  CG        21.0760    3.0400   35.3450 C.3   104  LEU104      0.0022
     82  CD1       21.8020    4.4550   35.2790 C.3   104  LEU104      0.0001
     83  CD2       21.9350    2.0080   36.0830 C.3   104  LEU104      0.0001
     84  N         18.9070    4.1110   32.7800 N.am  105  MET105     -0.1963
     85  CA        18.8340    3.5950   31.4070 C.3   105  MET105      0.1736
     86  C         20.1750    2.9670   31.0170 C.2   105  MET105      0.2616
     87  O         21.1760    3.1870   31.6850 O.2   105  MET105     -0.2715
     88  CB        18.3260    4.6680   30.4150 C.3   105  MET105      0.0427
     89  CG        17.0170    5.3270   30.8690 C.3   105  MET105      0.0599
     90  SD        15.5810    4.2350   30.7090 S.3   105  MET105     -0.1393
     91  CE        15.2300    4.3520   28.9050 C.3   105  MET105      0.0692
     92  N         20.1800    2.1390   29.9910 N.am  106  ASP106     -0.1957
     93  CA        21.3630    1.3880   29.5610 C.3   106  ASP106      0.1840
     94  C         22.3020    2.1310   28.6460 C.2   106  ASP106      0.2622
     95  O         23.5050    1.8900   28.6970 O.2   106  ASP106     -0.2715
     96  CB        20.9400    0.0720   28.9170 C.3   106  ASP106      0.1450
     97  CG        20.2490   -0.8180   29.9220 C.2   106  ASP106      0.3671
     98  OD1       20.7310   -0.8980   31.0690 O.co2 106  ASP106     -0.2456
     99  OD2       19.2280   -1.4250   29.5670 O.co2 106  ASP106     -0.2456
    100  N         21.7800    3.0070   27.7950 N.am  107  ALA107     -0.1963
    101  CA        22.6400    3.7070   26.8420 C.3   107  ALA107      0.1728
    102  C         21.9500    4.9400   26.3500 C.2   107  ALA107      0.2616
    103  O         20.7480    5.0820   26.5650 O.2   107  ALA107     -0.2715
    104  CB        22.9460    2.7930   25.6490 C.3   107  ALA107      0.0334
    105  N         22.6940    5.8300   25.6850 N.am  108  ASN108     -0.1972
    106  CA        22.0840    6.9840   25.0550 C.3   108  ASN108      0.1688
    107  C         21.9270    6.6500   23.5480 C.2   108  ASN108      0.2292
    108  O         22.4040    5.5960   23.1020 O.2   108  ASN108     -0.2864
    109  CB        22.8630    8.2820   25.3420 C.3   108  ASN108      0.1181
    110  CG        24.2500    8.3550   24.7460 C.2   108  ASN108      0.2629
    111  OD1       24.6260    7.6110   23.8390 O.2   108  ASN108     -0.2716
    112  ND2       25.0520    9.2690   25.2440 N.am  108  ASN108     -0.0877
    113  N         25.2790    6.0990   21.2970 N.3   111  GLN111     -0.1245
    114  CA        25.8130    4.7420   21.3490 C.3   111  GLN111      0.1566
    115  C         25.0570    3.8300   20.3940 C.2   111  GLN111      0.2260
    116  O         25.6870    3.0890   19.6440 O.2   111  GLN111     -0.2867
    117  CB        25.7770    4.2160   22.7880 C.3   111  GLN111      0.0367
    118  CG        26.6900    5.0040   23.7290 C.3   111  GLN111      0.0905
    119  CD        26.4950    4.5530   25.1550 C.2   111  GLN111      0.2608
    120  OE1       25.5360    4.9360   25.8270 O.2   111  GLN111     -0.2717
    121  NE2       27.3670    3.6810   25.6270 N.am  111  GLN111     -0.0878
    122  N         22.1680   12.7890   22.2630 N.3   149  SER149     -0.1202
    123  CA        22.7760   12.7420   23.6000 C.3   149  SER149      0.2020
    124  C         21.7190   12.9360   24.7080 C.2   149  SER149      0.2618
    125  O         21.9680   12.5440   25.8370 O.2   149  SER149     -0.2717
    126  CB        23.8850   13.7760   23.7310 C.3   149  SER149      0.2103
    127  OG        23.3490   15.0800   23.6090 O.3   149  SER149     -0.2182
    128  N         20.5280   13.4590   24.3670 N.am  150  ASN150     -0.1974
    129  CA        19.4230   13.6660   25.3250 C.3   150  ASN150      0.1688
    130  C         18.2930   12.6530   25.1810 C.2   150  ASN150      0.2292
    131  O         17.1880   12.8660   25.6690 O.2   150  ASN150     -0.2864
    132  CB        18.9020   15.0820   25.2660 C.3   150  ASN150      0.1181
    133  CG        19.8020   16.0110   26.0140 C.2   150  ASN150      0.2629
    134  OD1       20.3170   15.6750   27.0780 O.2   150  ASN150     -0.2716
    135  ND2       20.0110   17.1820   25.4750 N.am  150  ASN150     -0.0877
    136  N         17.7140    8.4970   25.7800 N.3   152  VAL152     -0.1245
    137  CA        18.2510    7.2800   26.3680 C.3   152  VAL152      0.1561
    138  C         17.3780    6.0970   26.0720 C.2   152  VAL152      0.2260
    139  O         16.1910    6.2450   25.8330 O.2   152  VAL152     -0.2867
    140  CB        18.5660    7.4270   27.8820 C.3   152  VAL152      0.0252
    141  CG1       19.8330    8.2500   28.0860 C.3   152  VAL152      0.0019
    142  CG2       17.3790    8.0370   28.6410 C.3   152  VAL152      0.0019
    143  N         14.9700   13.0150   27.4300 N.3   162  LEU162     -0.1245
    144  CA        15.3130   13.5530   28.7640 C.3   162  LEU162      0.1561
    145  C         14.9530   14.9900   29.0120 C.2   162  LEU162      0.2260
    146  O         14.8490   15.3900   30.1610 O.2   162  LEU162     -0.2867
    147  CB        16.8210   13.3700   29.0350 C.3   162  LEU162      0.0270
    148  CG        17.3490   11.9170   28.9530 C.3   162  LEU162      0.0019
    149  CD1       18.8750   11.8990   28.9380 C.3   162  LEU162      0.0001
    150  CD2       16.7850   11.0850   30.0840 C.3   162  LEU162      0.0001
@<TRIPOS>BOND
     1   116   115    2
     2   115   114    1
     3   113   114    1
     4   114   117    1
     5   122   123    1
     6   117   118    1
     7   108   107    2
     8   107   106    1
     9   123   126    1
    10   123   124    1
    11   127   126    1
    12   118   119    1
    13   111   110    2
    14   128   124   am
    15   128   129    1
    16   124   125    2
    17   110   112   am
    18   110   109    1
    19   106   109    1
    20   106   105    1
    21   119   121   am
    22   119   120    2
    23   130   129    1
    24   130   131    2
    25   132   129    1
    26   132   133    1
    27   135   133   am
    28   104   101    1
    29   105   102   am
    30   136   137    1
    31   139   138    2
    32   133   134    2
    33   138   137    1
    34   102   103    2
    35   102   101    1
    36   137   140    1
    37   101   100    1
    38   143   144    1
    39   100    94   am
    40   140   141    1
    41   140   142    1
    42    94    95    2
    43    94    93    1
    44   144   145    1
    45   144   147    1
    46    91    90    1
    47    96    93    1
    48    96    97    1
    49   149   148    1
    50   148   147    1
    51   148   150    1
    52   145   146    2
    53    57    56    1
    54    93    92    1
    55    99    97   ar
    56    56    58    1
    57    56    55    2
    58    97    98   ar
    59    92    86   am
    60    55    54    1
    61    54    53    1
    62    88    89    1
    63    88    85    1
    64    16    15    2
    65    90    89    1
    66    20    21    1
    67    20    19    1
    68    53    52    1
    69    86    85    1
    70    86    87    2
    71    21    22    2
    72    85    84    1
    73    52    49    1
    74    15    19   am
    75    15    14    1
    76     4     3    2
    77    49    48    1
    78    49    50    1
    79    13    14    1
    80    13    11   am
    81    10    11    1
    82    10     9    1
    83    66    65    1
    84    84    78   am
    85    14    17    1
    86    18    17    1
    87    11    12    2
    88     3     9   am
    89     3     2    1
    90    51    50    2
    91    75    73   ar
    92    74    73   ar
    93    65    64    1
    94    47    46    1
    95    79    78    2
    96    78    77    1
    97    73    72    1
    98     5     2    1
    99     5     6    1
   100     5     7    1
   101     2     1    1
   102    26    25    2
   103    23    24    1
   104     8     6    1
   105    33    31    1
   106    70    69    2
   107    46    45    1
   108    45    44    1
   109    77    76    1
   110    77    80    1
   111    72    71    1
   112    71    68    1
   113    31    32    1
   114    31    28    1
   115    64    63    1
   116    82    81    1
   117    81    80    1
   118    81    83    1
   119    69    76   am
   120    69    68    1
   121    25    24    1
   122    63    60    1
   123    38    35    1
   124    68    67    1
   125    27    28    1
   126    67    61   am
   127    44    43    1
   128    28    29    1
   129    30    29    2
   130    43    40    1
   131    61    60    1
   132    61    62    2
   133    60    59    1
   134    35    34    1
   135    35    36    1
   136    40    39    1
   137    40    41    1
   138    36    37    2
   139    41    42    2
