@<TRIPOS>MOLECULE
tmp/4z9mG00.pdb
 165 161 0 0 0
SMALL
GASTEIGER

@<TRIPOS>ATOM
      1  N        -10.8350  -26.8450   66.1080 N.3   108  SER108     -0.1202
      2  CA       -10.3810  -26.4400   64.7760 C.3   108  SER108      0.2020
      3  C        -11.5780  -26.7070   63.8630 C.2   108  SER108      0.2619
      4  O        -11.6780  -27.7840   63.2670 O.2   108  SER108     -0.2717
      5  CB        -9.1920  -27.3030   64.3350 C.3   108  SER108      0.2103
      6  OG        -8.6260  -26.8930   63.1120 O.3   108  SER108     -0.2182
      7  N        -12.4860  -25.7180   63.7720 N.am  109  SER109     -0.1937
      8  CA       -13.6810  -25.7730   62.8850 C.3   109  SER109      0.2055
      9  C        -13.6540  -24.6220   61.8400 C.2   109  SER109      0.2642
     10  O        -13.5990  -23.4490   62.2040 O.2   109  SER109     -0.2714
     11  CB       -14.9570  -25.7190   63.7140 C.3   109  SER109      0.2130
     12  OG       -15.0650  -24.4860   64.3590 O.3   109  SER109     -0.2179
     13  N        -13.7190  -24.9890   60.5520 N.am  110  ARG110     -0.1977
     14  CA       -13.5090  -24.0670   59.4240 C.3   110  ARG110      0.1597
     15  C        -14.6640  -24.1440   58.4460 C.2   110  ARG110      0.2287
     16  O        -15.2950  -25.1910   58.3070 O.2   110  ARG110     -0.2864
     17  CB       -12.2290  -24.4570   58.7150 C.3   110  ARG110      0.0334
     18  CG       -11.8080  -23.5920   57.5280 C.3   110  ARG110      0.0492
     19  CD       -10.3380  -23.8470   57.2450 C.3   110  ARG110      0.2205
     20  NE        -9.8250  -23.3200   55.9800 N.pl3 110  ARG110     -0.0865
     21  CZ       -10.0650  -23.8360   54.7640 C.cat 110  ARG110      0.5346
     22  NH1      -10.8640  -24.9000   54.6000 N.pl3 110  ARG110      0.1354
     23  NH2       -9.5120  -23.2610   53.6910 N.pl3 110  ARG110      0.1354
     24  N          1.6420  -20.1640   56.4500 N.3   168  ILE168     -0.1245
     25  CA         1.4050  -21.4980   55.8230 C.3   168  ILE168      0.1561
     26  C          1.3410  -22.6010   56.8990 C.2   168  ILE168      0.2260
     27  O          0.4490  -23.4460   56.8610 O.2   168  ILE168     -0.2867
     28  CB         2.4770  -21.8570   54.7330 C.3   168  ILE168      0.0252
     29  CG1        2.3740  -20.8920   53.5320 C.3   168  ILE168      0.0019
     30  CG2        2.3120  -23.3120   54.2430 C.3   168  ILE168      0.0019
     31  CD1        3.5630  -20.9360   52.5790 C.3   168  ILE168      0.0001
     32  N         -1.7710  -22.5300   59.0690 N.3   171  HIS171     -0.1241
     33  CA        -2.9730  -22.8870   58.2610 C.3   171  HIS171      0.1621
     34  C         -3.8350  -21.6780   57.7930 C.2   171  HIS171      0.2264
     35  O         -4.9800  -21.8620   57.3360 O.2   171  HIS171     -0.2867
     36  CB        -3.8460  -23.9250   58.9920 C.3   171  HIS171      0.0745
     37  CG        -3.1250  -25.1980   59.3300 C.ar  171  HIS171      0.0817
     38  ND1       -2.3780  -25.9010   58.4080 N.ar  171  HIS171     -0.2268
     39  CD2       -3.0590  -25.9050   60.4840 C.ar  171  HIS171      0.1154
     40  CE1       -1.8730  -26.9780   58.9820 C.ar  171  HIS171      0.1986
     41  NE2       -2.2720  -27.0040   60.2410 N.ar  171  HIS171     -0.2212
     42  N         -2.5280  -19.1210   55.4990 N.3   173  LEU173     -0.1231
     43  CA        -2.1100  -18.7310   54.1290 C.3   173  LEU173      0.1693
     44  C         -1.9700  -19.9560   53.2090 C.2   173  LEU173      0.2592
     45  O         -1.4710  -21.0020   53.6280 O.2   173  LEU173     -0.2718
     46  CB        -0.7730  -17.9760   54.1830 C.3   173  LEU173      0.0284
     47  CG        -0.1010  -17.5260   52.8750 C.3   173  LEU173      0.0019
     48  CD1       -0.9790  -16.5490   52.1000 C.3   173  LEU173      0.0001
     49  CD2        1.2520  -16.9070   53.1780 C.3   173  LEU173      0.0001
     50  N         -2.4250  -19.8010   51.9600 N.am  174  PHE174     -0.1962
     51  CA        -2.2180  -20.8100   50.8690 C.3   174  PHE174      0.1771
     52  C         -0.7430  -21.1330   50.5780 C.2   174  PHE174      0.2619
     53  O          0.1390  -20.2720   50.7140 O.2   174  PHE174     -0.2715
     54  CB        -2.8940  -20.3540   49.5410 C.3   174  PHE174      0.0574
     55  CG        -2.5330  -18.9330   49.1110 C.ar  174  PHE174     -0.0200
     56  CD1       -1.3270  -18.6500   48.4790 C.ar  174  PHE174     -0.0042
     57  CD2       -3.4210  -17.8870   49.3330 C.ar  174  PHE174     -0.0042
     58  CE1       -1.0190  -17.3510   48.0980 C.ar  174  PHE174     -0.0003
     59  CE2       -3.1190  -16.5800   48.9540 C.ar  174  PHE174     -0.0003
     60  CZ        -1.9160  -16.3140   48.3320 C.ar  174  PHE174     -0.0000
     61  N         -0.4960  -22.3760   50.1510 N.am  175  ASP175     -0.1971
     62  CA         0.8280  -22.7930   49.6820 C.3   175  ASP175      0.1709
     63  C          1.1290  -22.1750   48.2960 C.2   175  ASP175      0.2293
     64  O          0.2010  -21.8880   47.5070 O.2   175  ASP175     -0.2864
     65  CB         0.9160  -24.3280   49.6150 C.3   175  ASP175      0.1436
     66  CG         0.0640  -24.9680   48.6530 C.2   175  ASP175      0.3671
     67  OD1       -0.7300  -24.3350   47.9060 O.co2 175  ASP175     -0.2456
     68  OD2        0.1410  -26.2440   48.5180 O.co2 175  ASP175     -0.2456
     69  N         -8.2690  -15.0400   50.7860 N.3   208  TRP208     -0.1241
     70  CA        -7.0940  -15.1830   49.9130 C.3   208  TRP208      0.1605
     71  C         -7.4480  -14.5860   48.5710 C.2   208  TRP208      0.2264
     72  O         -8.5640  -14.7810   48.0980 O.2   208  TRP208     -0.2867
     73  CB        -6.7270  -16.6510   49.7130 C.3   208  TRP208      0.0550
     74  CG        -6.3080  -17.4050   50.9620 C.ar  208  TRP208      0.0003
     75  CD1       -5.8440  -16.8820   52.1250 C.ar  208  TRP208      0.0946
     76  CD2       -6.2600  -18.8260   51.1120 C.ar  208  TRP208      0.0152
     77  NE1       -5.5350  -17.8850   53.0100 N.ar  208  TRP208     -0.2442
     78  CE2       -5.7750  -19.0900   52.4150 C.ar  208  TRP208      0.0810
     79  CE3       -6.5850  -19.9130   50.2640 C.ar  208  TRP208      0.0012
     80  CZ2       -5.6080  -20.4000   52.9110 C.ar  208  TRP208      0.0191
     81  CZ3       -6.4220  -21.2150   50.7480 C.ar  208  TRP208      0.0001
     82  CH2       -5.9350  -21.4490   52.0690 C.ar  208  TRP208      0.0015
     83  N        -12.7940  -19.4080   60.1560 N.3   220  MET220     -0.1245
     84  CA       -12.2370  -20.4890   60.9990 C.3   220  MET220      0.1570
     85  C        -11.9540  -20.0600   62.4450 C.2   220  MET220      0.2261
     86  O        -11.9360  -18.8710   62.7590 O.2   220  MET220     -0.2867
     87  CB       -10.9620  -21.0720   60.3600 C.3   220  MET220      0.0387
     88  CG        -9.7490  -20.1420   60.3420 C.3   220  MET220      0.0595
     89  SD        -8.3960  -20.7910   59.3310 S.3   220  MET220     -0.1393
     90  CE        -8.0250  -22.3260   60.1790 C.3   220  MET220      0.0692
     91  N        -10.0940  -22.2410   66.3620 N.3   222  LYS222     -0.1245
     92  CA        -9.7920  -23.4520   67.1530 C.3   222  LYS222      0.1561
     93  C        -11.0150  -23.8600   67.9930 C.2   222  LYS222      0.2260
     94  O        -11.8360  -23.0100   68.3960 O.2   222  LYS222     -0.2867
     95  CB        -8.5680  -23.2370   68.0540 C.3   222  LYS222      0.0271
     96  CG        -7.3280  -22.7540   67.3130 C.3   222  LYS222      0.0035
     97  CD        -6.7530  -23.8300   66.4060 C.3   222  LYS222      0.0206
     98  CE        -5.5630  -23.3310   65.6060 C.3   222  LYS222      0.1093
     99  NZ        -5.9700  -22.6020   64.3720 N.3   222  LYS222     -0.1314
    100  N        -16.8340  -25.5790   51.5760 N.3   272  ARG272     -0.1245
    101  CA       -16.2440  -26.6870   52.3100 C.3   272  ARG272      0.1563
    102  C        -16.1930  -26.3580   53.8130 C.2   272  ARG272      0.2260
    103  O        -15.2470  -25.7220   54.3080 O.2   272  ARG272     -0.2867
    104  CB       -14.8660  -27.0340   51.7520 C.3   272  ARG272      0.0305
    105  CG       -14.3300  -28.3750   52.2230 C.3   272  ARG272      0.0461
    106  CD       -13.1550  -28.8500   51.3690 C.3   272  ARG272      0.2073
    107  NE       -11.8610  -28.3570   51.8530 N.pl3 272  ARG272     -0.0619
    108  CZ       -11.2130  -28.8260   52.9240 C.cat 272  ARG272      0.4657
    109  NH1      -11.7350  -29.7970   53.6740 N.pl3 272  ARG272     -0.0629
    110  NH2      -10.0360  -28.3070   53.2630 N.2   272  ARG272      0.1254
    111  N        -15.6750  -27.9570   57.3890 N.3   274  GLY274     -0.1210
    112  CA       -14.9740  -29.1430   57.9240 C.3   274  GLY274      0.1956
    113  C        -14.3570  -28.9380   59.2980 C.2   274  GLY274      0.2612
    114  O        -14.4890  -27.8640   59.8940 O.2   274  GLY274     -0.2717
    115  N        -13.6810  -29.9860   59.7950 N.am  275  VAL275     -0.1965
    116  CA       -13.0510  -29.9980   61.1490 C.3   275  VAL275      0.1727
    117  C        -11.6670  -30.6670   61.1110 C.2   275  VAL275      0.2616
    118  O        -11.2230  -31.1170   60.0610 O.2   275  VAL275     -0.2715
    119  CB       -13.9480  -30.7180   62.2010 C.3   275  VAL275      0.0290
    120  CG1      -15.3070  -30.0360   62.3100 C.3   275  VAL275      0.0023
    121  CG2      -14.1160  -32.2050   61.8720 C.3   275  VAL275      0.0023
    122  N        -10.9900  -30.6990   62.2640 N.am  276  HIS276     -0.1973
    123  CA        -9.7660  -31.5010   62.4600 C.3   276  HIS276      0.1656
    124  C        -10.0130  -32.5600   63.5420 C.2   276  HIS276      0.2291
    125  O        -10.5320  -32.2580   64.6220 O.2   276  HIS276     -0.2864
    126  CB        -8.5670  -30.6020   62.8550 C.3   276  HIS276      0.0771
    127  CG        -7.7060  -30.1610   61.6980 C.ar  276  HIS276      0.0820
    128  ND1       -6.8030  -29.1220   61.8040 N.ar  276  HIS276     -0.2267
    129  CD2       -7.6010  -30.6160   60.4230 C.ar  276  HIS276      0.1154
    130  CE1       -6.1780  -28.9600   60.6500 C.ar  276  HIS276      0.1986
    131  NE2       -6.6460  -29.8510   59.7950 N.ar  276  HIS276     -0.2212
    132  N         -8.4330  -35.5780   53.6280 N.3   281  ARG281     -0.1245
    133  CA        -7.3720  -34.5370   53.4450 C.3   281  ARG281      0.1562
    134  C         -6.4540  -34.3990   54.6600 C.2   281  ARG281      0.2260
    135  O         -6.9400  -34.3230   55.8030 O.2   281  ARG281     -0.2867
    136  CB        -8.0340  -33.1600   53.2140 C.3   281  ARG281      0.0285
    137  CG        -8.6750  -33.1190   51.8350 C.3   281  ARG281      0.0210
    138  CD        -9.3140  -31.6710   51.6450 C.3   281  ARG281      0.0949
    139  NE       -10.6230  -31.7810   52.3330 N.3   281  ARG281     -0.1526
    140  CZ       -10.8550  -31.0360   53.4360 C.3   281  ARG281      0.3798
    141  NH1       -9.8160  -30.3350   53.8400 N.4   281  ARG281      0.0472
    142  NH2      -12.0820  -31.1640   53.9370 N.3   281  ARG281      0.0084
    143  N         -3.3940  -32.0500   56.3440 N.3   283  GLY283     -0.1210
    144  CA        -2.8400  -30.7040   56.2280 C.3   283  GLY283      0.1956
    145  C         -3.0130  -30.1780   54.8100 C.2   283  GLY283      0.2612
    146  O         -2.1510  -29.4360   54.3040 O.2   283  GLY283     -0.2717
    147  N         -4.1270  -30.5610   54.1650 N.am  284  GLY284     -0.1942
    148  CA        -4.4570  -30.1340   52.7790 C.3   284  GLY284      0.2014
    149  C         -4.5340  -31.2820   51.7670 C.2   284  GLY284      0.2638
    150  O         -4.1070  -32.4110   52.0550 O.2   284  GLY284     -0.2714
    151  N         -5.0630  -30.9740   50.5710 N.am  285  VAL285     -0.1977
    152  CA        -5.2920  -31.9780   49.4950 C.3   285  VAL285      0.1596
    153  C         -3.9970  -32.6530   48.9870 C.2   285  VAL285      0.2287
    154  O         -3.9530  -33.8760   48.8440 O.2   285  VAL285     -0.2864
    155  CB        -6.0390  -31.3630   48.2930 C.3   285  VAL285      0.0276
    156  CG1       -5.2800  -30.2890   47.5580 C.3   285  VAL285      0.0022
    157  CG2       -6.5650  -32.4370   47.3540 C.3   285  VAL285      0.0022
    158  N         -8.9730  -34.3790   58.5000 N.3   289  ASP289     -0.1239
    159  CA        -9.7780  -33.2570   58.0310 C.3   289  ASP289      0.1673
    160  C        -11.1670  -33.7320   57.5400 C.2   289  ASP289      0.2266
    161  O        -11.3150  -34.1720   56.3830 O.2   289  ASP289     -0.2867
    162  CB        -9.0260  -32.4920   56.9230 C.3   289  ASP289      0.1383
    163  CG        -9.8050  -31.2530   56.4040 C.2   289  ASP289      0.3390
    164  OD1      -10.6240  -30.6730   57.1680 O.2   289  ASP289     -0.2482
    165  OD2       -9.5870  -30.8610   55.2240 O.3   289  ASP289     -0.3419
@<TRIPOS>BOND
     1   157   155    1
     2    64    63    2
     3   156   155    1
     4    67    66   ar
     5    72    71    2
     6    58    60   ar
     7    58    56   ar
     8   155   152    1
     9    63    62    1
    10    60    59   ar
    11    56    55   ar
    12    68    66   ar
    13    71    70    1
    14    66    65    1
    15   154   153    2
    16    59    57   ar
    17   153   152    1
    18    55    57   ar
    19    55    54    1
    20   152   151    1
    21    54    51    1
    22    65    62    1
    23    62    61    1
    24    73    70    1
    25    73    74    1
    26    70    69    1
    27    61    52   am
    28    79    81   ar
    29    79    76   ar
    30   151   149   am
    31    52    53    2
    32    52    51    1
    33    81    82   ar
    34    51    50    1
    35    74    76   ar
    36    74    75   ar
    37    76    78   ar
    38   106   107    1
    39   106   105    1
    40   100   101    1
    41   138   137    1
    42   138   139    1
    43   104   105    1
    44   104   101    1
    45   149   150    2
    46   149   148    1
    47   137   136    1
    48   107   108    1
    49    50    44   am
    50    82    80   ar
    51    48    47    1
    52    75    77   ar
    53   101   102    1
    54   139   140    1
    55    78    80   ar
    56    78    77   ar
    57    31    29    1
    58   148   147    1
    59    47    49    1
    60    47    46    1
    61   108   110    2
    62   108   109    1
    63    44    45    2
    64    44    43    1
    65   136   133    1
    66   140   109    1
    67   140   141    1
    68   140   142    1
    69   133   132    1
    70   133   134    1
    71    29    28    1
    72   109   142    1
    73    23    21    1
    74   102   103    2
    75   141   165    1
    76    43    46    1
    77    43    42    1
    78   147   145   am
    79    30    28    1
    80   146   145    2
    81    22    21    1
    82   134   135    2
    83    28    25    1
    84    21    20    2
    85   145   144    1
    86   165   163    1
    87    25    24    1
    88    25    26    1
    89    20    19    1
    90   144   143    1
    91   161   160    2
    92   163   162    1
    93   163   164    2
    94    27    26    2
    95   162   159    1
    96    19    18    1
    97    35    34    2
    98   111   112    1
    99    18    17    1
   100   160   159    1
   101    34    33    1
   102   112   113    1
   103   159   158    1
   104    33    36    1
   105    33    32    1
   106    16    15    2
   107    38    40   ar
   108    38    37   ar
   109    15    14    1
   110    17    14    1
   111    40    41   ar
   112    36    37    1
   113   113   115   am
   114   113   114    2
   115    37    39   ar
   116    89    90    1
   117    89    88    1
   118    14    13    1
   119   115   116    1
   120   131   129   ar
   121   131   130   ar
   122   118   117    2
   123    83    84    1
   124    41    39   ar
   125    88    87    1
   126    87    84    1
   127   129   127   ar
   128    13     9   am
   129   130   128   ar
   130    84    85    1
   131   117   116    1
   132   117   122   am
   133   116   119    1
   134   127   128   ar
   135   127   126    1
   136     9    10    2
   137     9     8    1
   138   121   119    1
   139   119   120    1
   140   122   123    1
   141    85    86    2
   142   123   126    1
   143   123   124    1
   144     8    11    1
   145     8     7    1
   146     6     5    1
   147     4     3    2
   148   124   125    2
   149    11    12    1
   150     7     3   am
   151     3     2    1
   152     5     2    1
   153    99    98    1
   154     2     1    1
   155    98    97    1
   156    91    92    1
   157    97    96    1
   158    92    93    1
   159    92    95    1
   160    96    95    1
   161    93    94    2
