@<TRIPOS>MOLECULE
tmp/4z9mC00.pdb
 178 166 0 0 0
SMALL
GASTEIGER

@<TRIPOS>ATOM
      1  N          5.8420   35.6440   45.1200 N.3   121  SER121     -0.1217
      2  CA         5.8780   34.1650   44.9120 C.3   121  SER121      0.1889
      3  C          6.3550   33.8070   43.5130 C.2   121  SER121      0.2288
      4  O          6.1790   34.5960   42.5750 O.2   121  SER121     -0.2866
      5  CB         4.5120   33.5310   45.1720 C.3   121  SER121      0.2089
      6  OG         3.5220   34.1460   44.3940 O.3   121  SER121     -0.2183
      7  N          6.5280   30.4240   40.6700 N.3   123  ARG123     -0.1245
      8  CA         5.7530   29.2160   40.3190 C.3   123  ARG123      0.1563
      9  C          6.1900   28.7090   38.9590 C.2   123  ARG123      0.2260
     10  O          6.4720   29.5110   38.0570 O.2   123  ARG123     -0.2867
     11  CB         4.2650   29.5540   40.3030 C.3   123  ARG123      0.0307
     12  CG         3.3110   28.3750   40.0660 C.3   123  ARG123      0.0489
     13  CD         1.8840   28.8560   40.2430 C.3   123  ARG123      0.2205
     14  NE         0.8220   27.8740   39.9260 N.pl3 123  ARG123     -0.0865
     15  CZ         0.2800   27.6590   38.7110 C.cat 123  ARG123      0.5346
     16  NH1        0.7030   28.3140   37.6190 N.pl3 123  ARG123      0.1354
     17  NH2       -0.7020   26.7640   38.5850 N.pl3 123  ARG123      0.1354
     18  N          4.7210   25.6770   36.2700 N.3   125  ARG125     -0.1245
     19  CA         3.6620   24.7240   36.0110 C.3   125  ARG125      0.1563
     20  C          3.9120   24.0360   34.6670 C.2   125  ARG125      0.2260
     21  O          4.3970   24.6720   33.7170 O.2   125  ARG125     -0.2867
     22  CB         2.3220   25.4720   36.0110 C.3   125  ARG125      0.0307
     23  CG         1.1250   24.6820   35.5010 C.3   125  ARG125      0.0489
     24  CD         0.9810   24.7490   33.9630 C.3   125  ARG125      0.2205
     25  NE         0.1870   25.8790   33.5210 N.pl3 125  ARG125     -0.0865
     26  CZ        -0.1030   26.1370   32.2460 C.cat 125  ARG125      0.5346
     27  NH1        0.3910   25.3790   31.2560 N.pl3 125  ARG125      0.1354
     28  NH2       -0.8810   27.1790   31.9520 N.pl3 125  ARG125      0.1354
     29  N         -8.0440   26.5030   47.4940 N.3   181  ILE181     -0.1245
     30  CA        -8.2480   27.3760   46.3090 C.3   181  ILE181      0.1561
     31  C         -7.8580   28.8490   46.6040 C.2   181  ILE181      0.2260
     32  O         -7.0990   29.4610   45.8280 O.2   181  ILE181     -0.2867
     33  CB        -9.7170   27.2750   45.7530 C.3   181  ILE181      0.0252
     34  CG1       -9.9770   25.8630   45.1470 C.3   181  ILE181      0.0019
     35  CG2      -10.0030   28.3720   44.7030 C.3   181  ILE181      0.0019
     36  CD1      -11.4440   25.5020   44.9880 C.3   181  ILE181      0.0001
     37  N         -4.1720   29.5840   46.6350 N.3   184  HIS184     -0.1241
     38  CA        -3.5060   29.3240   45.3410 C.3   184  HIS184      0.1621
     39  C         -2.9400   27.8800   45.1690 C.2   184  HIS184      0.2264
     40  O         -2.1180   27.6470   44.2820 O.2   184  HIS184     -0.2867
     41  CB        -2.3890   30.3780   45.0720 C.3   184  HIS184      0.0745
     42  CG        -2.8150   31.8010   45.3130 C.ar  184  HIS184      0.0817
     43  ND1       -3.7730   32.4360   44.5470 N.ar  184  HIS184     -0.2268
     44  CD2       -2.4060   32.7110   46.2320 C.ar  184  HIS184      0.1154
     45  CE1       -3.9380   33.6710   44.9860 C.ar  184  HIS184      0.1986
     46  NE2       -3.1210   33.8640   46.0070 N.ar  184  HIS184     -0.2212
     47  N         -5.1030   24.9860   44.9150 N.3   186  LEU186     -0.1245
     48  CA        -6.1200   24.0800   44.3680 C.3   186  LEU186      0.1561
     49  C         -7.0210   24.7500   43.2980 C.2   186  LEU186      0.2260
     50  O         -7.3160   25.9230   43.3820 O.2   186  LEU186     -0.2867
     51  CB        -6.9610   23.5370   45.5280 C.3   186  LEU186      0.0270
     52  CG        -7.8870   22.3470   45.2710 C.3   186  LEU186      0.0019
     53  CD1       -7.0830   21.0790   45.0410 C.3   186  LEU186      0.0001
     54  CD2       -8.8610   22.1500   46.4260 C.3   186  LEU186      0.0001
     55  N         -2.1360   18.3220   40.3610 N.3   221  TRP221     -0.1241
     56  CA        -3.6030   18.2450   40.1740 C.3   221  TRP221      0.1605
     57  C         -3.8970   17.0660   39.2890 C.2   221  TRP221      0.2264
     58  O         -3.2950   16.9500   38.2170 O.2   221  TRP221     -0.2867
     59  CB        -4.1400   19.4850   39.4870 C.3   221  TRP221      0.0550
     60  CG        -3.9020   20.7730   40.1880 C.ar  221  TRP221      0.0003
     61  CD1       -3.4960   20.9540   41.4740 C.ar  221  TRP221      0.0946
     62  CD2       -4.1140   22.0760   39.6450 C.ar  221  TRP221      0.0152
     63  NE1       -3.4230   22.2900   41.7660 N.ar  221  TRP221     -0.2442
     64  CE2       -3.8010   23.0080   40.6680 C.ar  221  TRP221      0.0810
     65  CE3       -4.5400   22.5560   38.3820 C.ar  221  TRP221      0.0012
     66  CZ2       -3.8950   24.4060   40.4780 C.ar  221  TRP221      0.0191
     67  CZ3       -4.6330   23.9390   38.1830 C.ar  221  TRP221      0.0001
     68  CH2       -4.3080   24.8560   39.2350 C.ar  221  TRP221      0.0015
     69  N         -7.7340   19.7330   34.1270 N.3   225  GLU225     -0.1245
     70  CA        -7.5960   20.1680   32.7080 C.3   225  GLU225      0.1567
     71  C         -6.7280   19.2150   31.8800 C.2   225  GLU225      0.2260
     72  O         -6.7080   19.2800   30.6510 O.2   225  GLU225     -0.2867
     73  CB        -7.0200   21.5940   32.6430 C.3   225  GLU225      0.0388
     74  CG        -7.9500   22.6550   33.2860 C.3   225  GLU225      0.1160
     75  CD        -7.2170   23.8560   33.9560 C.2   225  GLU225      0.3649
     76  OE1       -5.9820   23.8540   34.0670 O.co2 225  GLU225     -0.2457
     77  OE2       -7.8920   24.8080   34.4170 O.co2 225  GLU225     -0.2457
     78  N         -1.4340   18.1090   36.1910 N.3   229  ARG229     -0.1245
     79  CA        -0.8110   19.4310   36.1430 C.3   229  ARG229      0.1563
     80  C          0.1780   19.4620   37.2840 C.2   229  ARG229      0.2260
     81  O         -0.1970   19.2620   38.4270 O.2   229  ARG229     -0.2867
     82  CB        -1.8380   20.5550   36.2900 C.3   229  ARG229      0.0307
     83  CG        -2.6910   20.8040   35.0660 C.3   229  ARG229      0.0489
     84  CD        -1.8590   21.1950   33.8590 C.3   229  ARG229      0.2205
     85  NE        -2.6750   21.5400   32.6960 N.pl3 229  ARG229     -0.0865
     86  CZ        -3.2830   22.7240   32.4870 C.cat 229  ARG229      0.5346
     87  NH1       -3.1920   23.7270   33.3810 N.pl3 229  ARG229      0.1354
     88  NH2       -3.9940   22.9060   31.3630 N.pl3 229  ARG229      0.1354
     89  N          6.1370   25.5420   43.3940 N.3   233  MET233     -0.1245
     90  CA         5.9790   26.9290   43.8420 C.3   233  MET233      0.1570
     91  C          6.5530   27.1920   45.2390 C.2   233  MET233      0.2261
     92  O          6.6150   26.3040   46.0780 O.2   233  MET233     -0.2867
     93  CB         4.5100   27.3470   43.7750 C.3   233  MET233      0.0387
     94  CG         3.5460   26.5420   44.6520 C.3   233  MET233      0.0595
     95  SD         1.7900   26.9770   44.3520 S.3   233  MET233     -0.1393
     96  CE         1.8730   28.7730   44.4020 C.3   233  MET233      0.0692
     97  N          6.7070   30.7720   48.1310 N.3   235  LYS235     -0.1245
     98  CA         6.6810   32.1910   48.4950 C.3   235  LYS235      0.1561
     99  C          8.0760   32.7690   48.2340 C.2   235  LYS235      0.2260
    100  O          9.0720   32.0620   48.3350 O.2   235  LYS235     -0.2867
    101  CB         6.2850   32.3620   49.9730 C.3   235  LYS235      0.0271
    102  CG         4.7660   32.3140   50.1470 C.3   235  LYS235      0.0035
    103  CD         4.2480   33.5600   49.4610 C.3   235  LYS235      0.0206
    104  CE         2.8700   33.4160   48.9040 C.3   235  LYS235      0.1093
    105  NZ         2.5380   34.6800   48.1500 N.3   235  LYS235     -0.1314
    106  N          4.4600   27.0930   32.1070 N.3   285  ARG285     -0.1245
    107  CA         4.2100   28.4880   32.4550 C.3   285  ARG285      0.1563
    108  C          4.9690   28.7780   33.7240 C.2   285  ARG285      0.2260
    109  O          4.6040   28.3190   34.7980 O.2   285  ARG285     -0.2867
    110  CB         2.7170   28.7550   32.6230 C.3   285  ARG285      0.0307
    111  CG         2.3720   30.2450   32.6170 C.3   285  ARG285      0.0489
    112  CD         0.8570   30.4780   32.5440 C.3   285  ARG285      0.2205
    113  NE         0.2120   30.4070   33.8540 N.pl3 285  ARG285     -0.0865
    114  CZ         0.2320   31.3860   34.7770 C.cat 285  ARG285      0.5346
    115  NH1        0.8890   32.5300   34.5660 N.pl3 285  ARG285      0.1354
    116  NH2       -0.4130   31.2130   35.9420 N.pl3 285  ARG285      0.1354
    117  N          6.3880   31.7040   36.2780 N.3   287  GLY287     -0.1210
    118  CA         5.9500   33.0300   36.6200 C.3   287  GLY287      0.1956
    119  C          6.0460   33.4640   38.0470 C.2   287  GLY287      0.2612
    120  O          6.3930   32.6890   38.9390 O.2   287  GLY287     -0.2717
    121  N          5.7140   34.7380   38.2380 N.am  288  VAL288     -0.1965
    122  CA         5.7840   35.3980   39.5290 C.3   288  VAL288      0.1727
    123  C          4.4890   36.1340   39.8390 C.2   288  VAL288      0.2616
    124  O          3.7580   36.5260   38.9280 O.2   288  VAL288     -0.2715
    125  CB         6.9650   36.3960   39.5860 C.3   288  VAL288      0.0290
    126  CG1        8.2830   35.6540   39.4280 C.3   288  VAL288      0.0023
    127  CG2        6.8510   37.4750   38.5180 C.3   288  VAL288      0.0023
    128  N          4.1900   36.2740   41.1280 N.am  289  HIS289     -0.1973
    129  CA         3.3380   37.3710   41.6100 C.3   289  HIS289      0.1656
    130  C          4.2920   38.4510   41.9970 C.2   289  HIS289      0.2291
    131  O          5.1970   38.2300   42.8280 O.2   289  HIS289     -0.2864
    132  CB         2.4670   36.9600   42.8050 C.3   289  HIS289      0.0771
    133  CG         1.2550   36.1840   42.4170 C.ar  289  HIS289      0.0820
    134  ND1        0.3150   35.7720   43.3310 N.ar  289  HIS289     -0.2267
    135  CD2        0.8230   35.7490   41.2110 C.ar  289  HIS289      0.1154
    136  CE1       -0.6460   35.1160   42.7080 C.ar  289  HIS289      0.1986
    137  NE2       -0.3650   35.0940   41.4180 N.ar  289  HIS289     -0.2212
    138  N         -1.5410   38.4310   33.9240 N.3   313  ARG313     -0.1245
    139  CA        -2.9180   38.1560   34.3130 C.3   313  ARG313      0.1563
    140  C         -3.1090   38.5800   35.7660 C.2   313  ARG313      0.2260
    141  O         -2.1760   39.0850   36.3940 O.2   313  ARG313     -0.2867
    142  CB        -3.2550   36.6660   34.0960 C.3   313  ARG313      0.0307
    143  CG        -2.4960   35.6880   34.9930 C.3   313  ARG313      0.0489
    144  CD        -2.6410   34.2320   34.5560 C.3   313  ARG313      0.2205
    145  NE        -2.0180   34.0070   33.2430 N.pl3 313  ARG313     -0.0865
    146  CZ        -2.1420   32.9010   32.5000 C.cat 313  ARG313      0.5346
    147  NH1       -2.8540   31.8600   32.9280 N.pl3 313  ARG313      0.1354
    148  NH2       -1.5330   32.8430   31.3040 N.pl3 313  ARG313      0.1354
    149  N         -4.3180   38.3480   39.9970 N.3   315  THR315     -0.1203
    150  CA        -3.7900   37.6740   41.2010 C.3   315  THR315      0.1994
    151  C         -4.4390   36.2920   41.4850 C.2   315  THR315      0.2618
    152  O         -3.8140   35.4310   42.1260 O.2   315  THR315     -0.2717
    153  CB        -3.9480   38.5810   42.4600 C.3   315  THR315      0.1784
    154  OG1       -3.6530   39.9460   42.1170 O.3   315  THR315     -0.2211
    155  CG2       -3.0130   38.1340   43.5840 C.3   315  THR315      0.0376
    156  N         -5.6830   36.0990   41.0180 N.am  316  GLY316     -0.1942
    157  CA        -6.4030   34.8140   41.1490 C.3   316  GLY316      0.2014
    158  C         -6.4290   33.9570   39.8830 C.2   316  GLY316      0.2639
    159  O         -7.2600   33.0440   39.7740 O.2   316  GLY316     -0.2714
    160  N         -5.5260   34.2480   38.9310 N.am  317  GLY317     -0.1939
    161  CA        -5.3890   33.4700   37.6960 C.3   317  GLY317      0.2014
    162  C         -5.8540   34.1990   36.4470 C.2   317  GLY317      0.2638
    163  O         -5.8900   35.4450   36.4010 O.2   317  GLY317     -0.2714
    164  N         -6.1690   33.4110   35.4170 N.am  318  VAL318     -0.1977
    165  CA        -6.7150   33.9250   34.1520 C.3   318  VAL318      0.1596
    166  C         -8.1310   34.4970   34.3800 C.2   318  VAL318      0.2287
    167  O         -8.9010   33.9430   35.1550 O.2   318  VAL318     -0.2864
    168  CB        -6.7200   32.8160   33.0380 C.3   318  VAL318      0.0276
    169  CG1       -7.7280   31.6910   33.3470 C.3   318  VAL318      0.0022
    170  CG2       -6.9810   33.4260   31.6570 C.3   318  VAL318      0.0022
    171  N          0.3330   38.6500   37.9710 N.3   328  ASP328     -0.1239
    172  CA         0.9070   37.3540   37.6180 C.3   328  ASP328      0.1674
    173  C          1.5790   37.5220   36.2620 C.2   328  ASP328      0.2266
    174  O          0.9120   37.6930   35.2670 O.2   328  ASP328     -0.2867
    175  CB        -0.2110   36.2920   37.5910 C.3   328  ASP328      0.1410
    176  CG         0.2670   34.8810   37.1230 C.2   328  ASP328      0.3668
    177  OD1        1.3950   34.7200   36.5810 O.co2 328  ASP328     -0.2456
    178  OD2       -0.5300   33.9290   37.2830 O.co2 328  ASP328     -0.2456
@<TRIPOS>BOND
     1    72    71    2
     2    27    26    1
     3   148   146    1
     4    88    86    1
     5   170   168    1
     6    71    70    1
     7    28    26    1
     8   106   107    1
     9    26    25    2
    10   107   110    1
    11   107   108    1
    12    86    85    2
    13    86    87    1
    14   146   147    1
    15   146   145    2
    16   112   111    1
    17   112   113    1
    18   111   110    1
    19    73    70    1
    20    73    74    1
    21    85    84    1
    22    70    69    1
    23   168   169    1
    24   168   165    1
    25   145   144    1
    26    74    75    1
    27    25    24    1
    28    21    20    2
    29   108   109    2
    30   113   114    2
    31    84    83    1
    32   138   139    1
    33    75    76   ar
    34    75    77   ar
    35    24    23    1
    36   142   139    1
    37   142   143    1
    38   165   166    1
    39   165   164    1
    40   139   140    1
    41   166   167    2
    42   144   143    1
    43   115   114    1
    44    20    19    1
    45   114   116    1
    46    83    82    1
    47   174   173    2
    48   164   162   am
    49    23    22    1
    50   140   141    2
    51    19    22    1
    52    19    18    1
    53    79    78    1
    54    79    82    1
    55    79    80    1
    56   173   172    1
    57   117   118    1
    58   163   162    2
    59   162   161    1
    60   177   176   ar
    61   118   119    1
    62   176   178   ar
    63   176   175    1
    64    80    81    2
    65   175   172    1
    66   172   171    1
    67    16    15    1
    68   161   160    1
    69   119   121   am
    70   119   120    2
    71    10     9    2
    72    67    65   ar
    73    67    68   ar
    74    58    57    2
    75   121   122    1
    76    65    62   ar
    77   127   125    1
    78    17    15    1
    79    15    14    2
    80   124   123    2
    81   160   158   am
    82     9     8    1
    83    68    66   ar
    84    57    56    1
    85   126   125    1
    86    59    56    1
    87    59    60    1
    88   122   125    1
    89   122   123    1
    90    62    60   ar
    91    62    64   ar
    92   159   158    2
    93   123   128   am
    94   158   157    1
    95    14    13    1
    96   149   150    1
    97    12    13    1
    98    12    11    1
    99    56    55    1
   100    60    61   ar
   101    11     8    1
   102     8     7    1
   103    66    64   ar
   104    64    63   ar
   105   156   157    1
   106   156   151   am
   107   128   129    1
   108   150   151    1
   109   150   153    1
   110   135   137   ar
   111   135   133   ar
   112   137   136   ar
   113    61    63   ar
   114   151   152    2
   115   129   130    1
   116   129   132    1
   117   130   131    2
   118   154   153    1
   119   133   132    1
   120   133   134   ar
   121   153   155    1
   122     4     3    2
   123   136   134   ar
   124    49    50    2
   125    49    48    1
   126    89    90    1
   127     3     2    1
   128    93    90    1
   129    93    94    1
   130    90    91    1
   131    40    39    2
   132    95    96    1
   133    95    94    1
   134    48    47    1
   135    48    51    1
   136     6     5    1
   137    43    45   ar
   138    43    42   ar
   139    35    33    1
   140     2     1    1
   141     2     5    1
   142    45    46   ar
   143    36    34    1
   144    53    52    1
   145    41    42    1
   146    41    38    1
   147    34    33    1
   148    39    38    1
   149    91    92    2
   150    52    51    1
   151    52    54    1
   152    42    44   ar
   153    38    37    1
   154    33    30    1
   155    32    31    2
   156    46    44   ar
   157    30    31    1
   158    30    29    1
   159    97    98    1
   160   105   104    1
   161    99   100    2
   162    99    98    1
   163    98   101    1
   164   104   103    1
   165   103   102    1
   166   101   102    1
