@<TRIPOS>MOLECULE
tmp/4za0A00.pdb
 139 129 0 0 0
SMALL
GASTEIGER

@<TRIPOS>ATOM
      1  N        -10.7750  -21.6630   20.8290 N.3    38  GLY38      -0.1210
      2  CA       -11.6510  -21.6210   21.9850 C.3    38  GLY38       0.1956
      3  C        -11.0760  -22.3180   23.2030 C.2    38  GLY38       0.2612
      4  O        -10.1520  -23.1230   23.0940 O.2    38  GLY38      -0.2717
      5  N        -11.6240  -21.9980   24.3710 N.am   39  ALA39      -0.1965
      6  CA       -11.2350  -22.6590   25.6110 C.3    39  ALA39       0.1728
      7  C        -12.3690  -23.5530   26.0970 C.2    39  ALA39       0.2616
      8  O        -12.1570  -24.7190   26.4310 O.2    39  ALA39      -0.2715
      9  CB       -10.8630  -21.6370   26.6720 C.3    39  ALA39       0.0334
     10  N        -13.5750  -22.9950   26.1320 N.am   40  SER40      -0.1950
     11  CA       -14.7670  -23.7680   26.4500 C.3    40  SER40       0.1924
     12  C        -15.3800  -24.3130   25.1650 C.2    40  SER40       0.2314
     13  O        -16.4480  -23.8740   24.7370 O.2    40  SER40      -0.2863
     14  CB       -15.7820  -22.9150   27.2110 C.3    40  SER40       0.2116
     15  OG       -16.1590  -21.7760   26.4570 O.3    40  SER40      -0.2180
     16  N        -20.0620  -17.8160   32.5480 N.3   166  GLN166     -0.1231
     17  CA       -18.8670  -17.4280   31.8110 C.3   166  GLN166      0.1698
     18  C        -18.7720  -15.9400   31.4790 C.2   166  GLN166      0.2592
     19  O        -17.7720  -15.2970   31.7940 O.2   166  GLN166     -0.2718
     20  CB       -18.7830  -18.2460   30.5230 C.3   166  GLN166      0.0381
     21  CG       -17.4340  -18.2010   29.8370 C.3   166  GLN166      0.0905
     22  CD       -17.3730  -19.1350   28.6490 C.2   166  GLN166      0.2608
     23  OE1      -16.7790  -20.2090   28.7200 O.2   166  GLN166     -0.2717
     24  NE2      -17.9990  -18.7330   27.5490 N.am  166  GLN166     -0.0878
     25  N        -19.7980  -15.3950   30.8330 N.am  167  GLU167     -0.1979
     26  CA       -19.7120  -14.0310   30.3190 C.3   167  GLU167      0.1602
     27  C        -20.8950  -13.1540   30.7200 C.2   167  GLU167      0.2287
     28  O        -22.0500  -13.5690   30.6390 O.2   167  GLU167     -0.2864
     29  CB       -19.5940  -14.0530   28.7920 C.3   167  GLU167      0.0415
     30  CG       -18.4740  -14.9350   28.2610 C.3   167  GLU167      0.1163
     31  CD       -18.4680  -15.0260   26.7480 C.2   167  GLU167      0.3649
     32  OE1      -19.2020  -14.2490   26.1010 O.co2 167  GLU167     -0.2457
     33  OE2      -17.7270  -15.8740   26.2060 O.co2 167  GLU167     -0.2457
     34  N        -10.7880  -12.4230   28.0100 N.3   210  GLU210     -0.1245
     35  CA       -11.4920  -11.5940   27.0340 C.3   210  GLU210      0.1567
     36  C        -11.5430  -10.1150   27.4210 C.2   210  GLU210      0.2260
     37  O        -12.3020   -9.3420   26.8360 O.2   210  GLU210     -0.2867
     38  CB       -12.9120  -12.1270   26.8240 C.3   210  GLU210      0.0388
     39  CG       -12.9560  -13.5460   26.2710 C.3   210  GLU210      0.1160
     40  CD       -14.3650  -14.0220   25.9780 C.2   210  GLU210      0.3649
     41  OE1      -14.5390  -15.2280   25.6980 O.co2 210  GLU210     -0.2457
     42  OE2      -15.2980  -13.1910   26.0080 O.co2 210  GLU210     -0.2457
     43  N        -23.4850  -15.1050   28.5690 N.3   245  ASP245     -0.1239
     44  CA       -23.0770  -16.4150   28.0780 C.3   245  ASP245      0.1674
     45  C        -22.8530  -17.3130   29.2840 C.2   245  ASP245      0.2266
     46  O        -21.8340  -17.2110   29.9640 O.2   245  ASP245     -0.2867
     47  CB       -21.8110  -16.3370   27.2200 C.3   245  ASP245      0.1410
     48  CG       -21.4430  -17.6770   26.5880 C.2   245  ASP245      0.3668
     49  OD1      -22.1310  -18.6850   26.8570 O.co2 245  ASP245     -0.2456
     50  OD2      -20.4640  -17.7270   25.8110 O.co2 245  ASP245     -0.2456
     51  N        -22.6520  -20.7250   29.2830 N.3   247  ALA247     -0.1245
     52  CA       -21.7870  -21.8600   28.9650 C.3   247  ALA247      0.1562
     53  C        -22.0220  -22.9900   29.9600 C.2   247  ALA247      0.2260
     54  O        -21.0880  -23.4820   30.5940 O.2   247  ALA247     -0.2867
     55  CB       -20.3210  -21.4430   28.9570 C.3   247  ALA247      0.0290
     56  N        -26.9660  -16.8780   26.3880 N.3   293  GLU293     -0.1245
     57  CA       -26.3010  -17.8650   25.5430 C.3   293  GLU293      0.1567
     58  C        -25.9710  -19.1350   26.3240 C.2   293  GLU293      0.2260
     59  O        -25.5180  -19.0650   27.4670 O.2   293  GLU293     -0.2867
     60  CB       -25.0300  -17.2650   24.9390 C.3   293  GLU293      0.0388
     61  CG       -24.1500  -18.2580   24.2020 C.3   293  GLU293      0.1160
     62  CD       -22.8380  -17.6440   23.7620 C.2   293  GLU293      0.3649
     63  OE1      -22.7890  -16.4100   23.5790 O.co2 293  GLU293     -0.2457
     64  OE2      -21.8470  -18.3900   23.6260 O.co2 293  GLU293     -0.2457
     65  N        -24.7960  -21.9050   21.2240 N.3   318  ASP318     -0.1225
     66  CA       -23.3670  -21.8240   20.9430 C.3   318  ASP318      0.1805
     67  C        -22.7810  -23.2280   20.8340 C.2   318  ASP318      0.2597
     68  O        -22.5490  -23.7270   19.7340 O.2   318  ASP318     -0.2718
     69  CB       -22.6540  -21.0100   22.0300 C.3   318  ASP318      0.1424
     70  CG       -21.1410  -20.9880   21.8630 C.2   318  ASP318      0.3668
     71  OD1      -20.6480  -21.2300   20.7400 O.co2 318  ASP318     -0.2456
     72  OD2      -20.4430  -20.7100   22.8630 O.co2 318  ASP318     -0.2456
     73  N        -22.5490  -23.8630   21.9790 N.am  319  ASP319     -0.1974
     74  CA       -22.0750  -25.2420   22.0040 C.3   319  ASP319      0.1709
     75  C        -23.1790  -26.1910   21.5490 C.2   319  ASP319      0.2293
     76  O        -22.9140  -27.3270   21.1550 O.2   319  ASP319     -0.2864
     77  CB       -21.5900  -25.6240   23.4040 C.3   319  ASP319      0.1436
     78  CG       -20.2880  -24.9410   23.7780 C.2   319  ASP319      0.3671
     79  OD1      -19.5370  -24.5380   22.8620 O.co2 319  ASP319     -0.2456
     80  OD2      -20.0140  -24.8070   24.9890 O.co2 319  ASP319     -0.2456
     81  N        -25.0360  -18.4610   17.4880 N.3   341  LEU341     -0.1245
     82  CA       -23.7240  -17.8600   17.6740 C.3   341  LEU341      0.1561
     83  C        -22.7950  -18.3580   16.5740 C.2   341  LEU341      0.2260
     84  O        -22.4880  -19.5480   16.5000 O.2   341  LEU341     -0.2867
     85  CB       -23.1510  -18.1870   19.0510 C.3   341  LEU341      0.0270
     86  CG       -22.0720  -17.2060   19.5120 C.3   341  LEU341      0.0019
     87  CD1      -22.7020  -15.9190   20.0230 C.3   341  LEU341      0.0001
     88  CD2      -21.1800  -17.8220   20.5690 C.3   341  LEU341      0.0001
     89  N        -19.4980  -18.9740   14.9410 N.3   343  LYS343     -0.1245
     90  CA       -18.0540  -19.1130   15.0990 C.3   343  LYS343      0.1561
     91  C        -17.4720  -19.8830   13.9210 C.2   343  LYS343      0.2260
     92  O        -17.7250  -21.0780   13.7690 O.2   343  LYS343     -0.2867
     93  CB       -17.7130  -19.8220   16.4100 C.3   343  LYS343      0.0271
     94  CG       -18.0470  -19.0260   17.6580 C.3   343  LYS343      0.0035
     95  CD       -17.9190  -19.8880   18.9010 C.3   343  LYS343      0.0206
     96  CE       -17.8200  -19.0400   20.1540 C.3   343  LYS343      0.1093
     97  NZ       -17.8610  -19.8790   21.3800 N.3   343  LYS343     -0.1314
     98  N        -19.2680  -14.2310   16.4620 N.3   370  SER370     -0.1202
     99  CA       -18.4810  -14.2990   17.6840 C.3   370  SER370      0.2020
    100  C        -17.0060  -14.6160   17.4720 C.2   370  SER370      0.2619
    101  O        -16.6190  -15.3100   16.5330 O.2   370  SER370     -0.2717
    102  CB       -19.0810  -15.3380   18.6330 C.3   370  SER370      0.2103
    103  OG       -18.2850  -15.4790   19.7980 O.3   370  SER370     -0.2182
    104  N        -16.1880  -14.1560   18.3720 N.am  371  HIS371     -0.1961
    105  CA       -14.8040  -14.4730   18.4280 C.3   371  HIS371      0.1787
    106  C        -14.6160  -15.7620   19.2520 C.2   371  HIS371      0.2620
    107  O        -15.5260  -16.3960   19.6060 O.2   371  HIS371     -0.2715
    108  CB       -14.0780  -13.3550   19.1350 C.3   371  HIS371      0.0785
    109  CG       -14.5270  -13.0780   20.5410 C.ar  371  HIS371      0.0821
    110  ND1      -13.9340  -12.1300   21.3150 N.ar  371  HIS371     -0.2267
    111  CD2      -15.5100  -13.6060   21.3050 C.ar  371  HIS371      0.1154
    112  CE1      -14.5230  -12.0940   22.4940 C.ar  371  HIS371      0.1986
    113  NE2      -15.5080  -12.9470   22.4940 N.ar  371  HIS371     -0.2212
    114  N        -13.3950  -16.1250   19.5480 N.am  372  ARG372     -0.1963
    115  CA       -13.1130  -17.1850   20.5100 C.3   372  ARG372      0.1729
    116  C        -12.3800  -16.5620   21.6900 C.2   372  ARG372      0.2616
    117  O        -11.8780  -15.4400   21.5810 O.2   372  ARG372     -0.2715
    118  CB       -12.2770  -18.3090   19.8930 C.3   372  ARG372      0.0348
    119  CG       -12.9290  -19.0160   18.7180 C.3   372  ARG372      0.0492
    120  CD       -14.3830  -19.3640   19.0020 C.3   372  ARG372      0.2205
    121  NE       -14.5580  -20.2750   20.1310 N.pl3 372  ARG372     -0.0865
    122  CZ       -14.7000  -21.5930   20.0180 C.cat 372  ARG372      0.5346
    123  NH1      -14.6820  -22.1670   18.8220 N.pl3 372  ARG372      0.1354
    124  NH2      -14.8620  -22.3410   21.1030 N.pl3 372  ARG372      0.1354
    125  N        -12.3220  -17.2720   22.8130 N.am  373  SER373     -0.1950
    126  CA       -11.6430  -16.7490   23.9950 C.3   373  SER373      0.1924
    127  C        -10.1560  -16.5400   23.7110 C.2   373  SER373      0.2314
    128  O         -9.5190  -15.6630   24.2930 O.2   373  SER373     -0.2863
    129  CB       -11.8340  -17.6810   25.1930 C.3   373  SER373      0.2116
    130  OG       -11.4610  -19.0100   24.8790 O.3   373  SER373     -0.2180
    131  N        -20.2300  -10.2120   19.3590 N.3   394  LYS394     -0.1245
    132  CA       -19.4110  -10.1220   20.5560 C.3   394  LYS394      0.1561
    133  C        -17.9780  -10.4940   20.1880 C.2   394  LYS394      0.2260
    134  O        -17.7080  -11.5750   19.6580 O.2   394  LYS394     -0.2867
    135  CB       -19.9500  -11.0060   21.6870 C.3   394  LYS394      0.0271
    136  CG       -19.9300  -12.4960   21.4240 C.3   394  LYS394      0.0035
    137  CD       -20.2050  -13.2760   22.6970 C.3   394  LYS394      0.0206
    138  CE       -19.8850  -14.7490   22.5080 C.3   394  LYS394      0.1093
    139  NZ       -20.0110  -15.5340   23.7670 N.3   394  LYS394     -0.1314
@<TRIPOS>BOND
     1    92    91    2
     2    91    90    1
     3    89    90    1
     4    90    93    1
     5    93    94    1
     6    98    99    1
     7    84    83    2
     8   101   100    2
     9    83    82    1
    10   100    99    1
    11   100   104   am
    12    81    82    1
    13    94    95    1
    14    82    85    1
    15    99   102    1
    16   104   105    1
    17   105   108    1
    18   105   106    1
    19   102   103    1
    20   119   120    1
    21   119   118    1
    22   123   122    1
    23    95    96    1
    24   120   121    1
    25    85    86    1
    26   108   109    1
    27   106   114   am
    28   106   107    2
    29   131   132    1
    30    86    87    1
    31    86    88    1
    32   114   115    1
    33   134   133    2
    34    68    67    2
    35   118   115    1
    36   122   121    2
    37   122   124    1
    38    96    97    1
    39   133   132    1
    40   115   116    1
    41   109   111   ar
    42   109   110   ar
    43   132   135    1
    44    71    70   ar
    45     1     2    1
    46    67    66    1
    47    67    73   am
    48    66    65    1
    49    66    69    1
    50    76    75    2
    51   111   113   ar
    52   110   112   ar
    53   136   135    1
    54   136   137    1
    55    75    74    1
    56   117   116    2
    57   116   125   am
    58    70    69    1
    59    70    72   ar
    60    73    74    1
    61     2     3    1
    62    74    77    1
    63   112   113   ar
    64   138   137    1
    65   138   139    1
    66   125   126    1
    67    79    78   ar
    68     4     3    2
    69     3     5   am
    70    77    78    1
    71    63    62   ar
    72    64    62   ar
    73   127   126    1
    74   127   128    2
    75    62    61    1
    76    78    80   ar
    77   126   129    1
    78    61    60    1
    79     5     6    1
    80    13    12    2
    81   130   129    1
    82    60    57    1
    83    12    11    1
    84    57    58    1
    85    57    56    1
    86     6     7    1
    87     6     9    1
    88    41    40   ar
    89    50    48   ar
    90    40    42   ar
    91    40    39    1
    92     7    10   am
    93     7     8    2
    94    32    31   ar
    95    10    11    1
    96    33    31   ar
    97    39    38    1
    98    58    59    2
    99    11    14    1
   100    15    14    1
   101    48    49   ar
   102    48    47    1
   103    31    30    1
   104    38    35    1
   105    37    36    2
   106    35    36    1
   107    35    34    1
   108    47    44    1
   109    24    22   am
   110    44    43    1
   111    44    45    1
   112    30    29    1
   113    22    23    2
   114    22    21    1
   115    29    26    1
   116    55    52    1
   117    52    51    1
   118    52    53    1
   119    45    46    2
   120    21    20    1
   121    53    54    2
   122    26    27    1
   123    26    25    1
   124    20    17    1
   125    28    27    2
   126    25    18   am
   127    18    19    2
   128    18    17    1
   129    17    16    1
