@<TRIPOS>MOLECULE
tmp/4za1A00.pdb
 123 120 0 0 0
SMALL
GASTEIGER

@<TRIPOS>ATOM
      1  N          9.3210   29.8020   34.5120 N.3    22  LEU22      -0.1245
      2  CA        10.1260   30.1960   33.3460 C.3    22  LEU22       0.1561
      3  C         10.7000   31.6020   33.5460 C.2    22  LEU22       0.2260
      4  O         11.8750   31.8510   33.2890 O.2    22  LEU22      -0.2867
      5  CB         9.3110   30.1100   32.0500 C.3    22  LEU22       0.0270
      6  CG         8.9710   28.6870   31.5850 C.3    22  LEU22       0.0019
      7  CD1        8.0510   28.6900   30.3740 C.3    22  LEU22       0.0001
      8  CD2       10.2290   27.8850   31.2790 C.3    22  LEU22       0.0001
      9  N         13.5750   31.5350   36.0320 N.3    25  TYR25      -0.1227
     10  CA        14.8000   31.0110   35.4340 C.3    25  TYR25       0.1736
     11  C         15.4530   32.0840   34.5720 C.2    25  TYR25       0.2595
     12  O         16.6740   32.2570   34.6100 O.2    25  TYR25      -0.2718
     13  CB        14.5420   29.7410   34.6000 C.3    25  TYR25       0.0548
     14  CG        15.8050   29.1740   33.9800 C.ar   25  TYR25      -0.0200
     15  CD1       16.2790   29.6370   32.7560 C.ar   25  TYR25      -0.0009
     16  CD2       16.5420   28.1930   34.6310 C.ar   25  TYR25      -0.0009
     17  CE1       17.4440   29.1360   32.1900 C.ar   25  TYR25       0.0417
     18  CE2       17.7080   27.6870   34.0730 C.ar   25  TYR25       0.0417
     19  CZ        18.1540   28.1600   32.8530 C.ar   25  TYR25       0.1957
     20  OH        19.3170   27.6580   32.3100 O.3    25  TYR25      -0.2866
     21  N         14.6280   32.7860   33.7970 N.am   26  LEU26      -0.1980
     22  CA        15.0740   33.8690   32.9230 C.3    26  LEU26       0.1596
     23  C         15.7450   34.9870   33.7100 C.2    26  LEU26       0.2287
     24  O         16.7680   35.5210   33.2970 O.2    26  LEU26      -0.2864
     25  CB        13.8880   34.4270   32.1270 C.3    26  LEU26       0.0297
     26  CG        14.1700   35.5230   31.0970 C.3    26  LEU26       0.0022
     27  CD1       15.2520   35.0670   30.1260 C.3    26  LEU26       0.0001
     28  CD2       12.8930   35.8960   30.3500 C.3    26  LEU26       0.0001
     29  N         19.0900   33.7610   34.6690 N.3    29  HIS29      -0.1241
     30  CA        19.9060   33.3960   33.5070 C.3    29  HIS29       0.1621
     31  C         19.5390   34.2730   32.3510 C.2    29  HIS29       0.2264
     32  O         18.7980   33.8600   31.4490 O.2    29  HIS29      -0.2867
     33  CB        19.7210   31.9200   33.1470 C.3    29  HIS29       0.0745
     34  CG        19.9280   30.9860   34.3110 C.ar   29  HIS29       0.0817
     35  ND1       18.9310   30.6500   35.1530 N.ar   29  HIS29      -0.2268
     36  CD2       21.0710   30.3450   34.7760 C.ar   29  HIS29       0.1154
     37  CE1       19.4070   29.8270   36.1060 C.ar   29  HIS29       0.1986
     38  NE2       20.7170   29.6380   35.8740 N.ar   29  HIS29      -0.2212
     39  N         19.0880   36.2300   29.0380 N.3    31  VAL31      -0.1245
     40  CA        19.3130   35.9700   27.6140 C.3    31  VAL31       0.1561
     41  C         20.1570   37.0750   26.9790 C.2    31  VAL31       0.2260
     42  O         20.3700   38.1320   27.5900 O.2    31  VAL31      -0.2867
     43  CB        17.9890   35.7900   26.8210 C.3    31  VAL31       0.0252
     44  CG1       17.2730   34.5240   27.2660 C.3    31  VAL31       0.0019
     45  CG2       17.0850   37.0160   26.9350 C.3    31  VAL31       0.0019
     46  N         14.4110   39.3960   18.5850 N.3    43  LYS43      -0.1245
     47  CA        13.8410   38.2290   19.2440 C.3    43  LYS43       0.1561
     48  C         13.2380   38.6530   20.5800 C.2    43  LYS43       0.2260
     49  O         13.9060   39.3000   21.3920 O.2    43  LYS43      -0.2867
     50  CB        14.9060   37.1550   19.4600 C.3    43  LYS43       0.0271
     51  CG        14.3680   35.8630   20.0520 C.3    43  LYS43       0.0035
     52  CD        15.4860   34.8570   20.2510 C.3    43  LYS43       0.0206
     53  CE        14.9650   33.5600   20.8410 C.3    43  LYS43       0.1093
     54  NZ        16.1160   32.6770   21.1830 N.3    43  LYS43      -0.1314
     55  N         10.8010   37.2960   23.9690 N.3    45  TRP45      -0.1241
     56  CA        10.0400   36.3210   24.7620 C.3    45  TRP45       0.1605
     57  C          8.7790   36.9330   25.3120 C.2    45  TRP45       0.2264
     58  O          8.7800   38.0600   25.8130 O.2    45  TRP45      -0.2867
     59  CB        10.8750   35.7550   25.9130 C.3    45  TRP45       0.0550
     60  CG        12.1190   35.0210   25.4640 C.ar   45  TRP45       0.0003
     61  CD1       13.4230   35.5000   25.4570 C.ar   45  TRP45       0.0946
     62  CD2       12.2120   33.6570   24.9130 C.ar   45  TRP45       0.0152
     63  NE1       14.2880   34.5540   24.9640 N.ar   45  TRP45      -0.2442
     64  CE2       13.6270   33.4280   24.6240 C.ar   45  TRP45       0.0810
     65  CE3       11.3030   32.6440   24.6600 C.ar   45  TRP45       0.0012
     66  CZ2       14.0880   32.2260   24.0980 C.ar   45  TRP45       0.0191
     67  CZ3       11.7730   31.4350   24.1280 C.ar   45  TRP45       0.0001
     68  CH2       13.1350   31.2320   23.8570 C.ar   45  TRP45       0.0015
     69  N          3.9290   30.3120   26.8390 N.3    56  TRP56      -0.1241
     70  CA         5.2260   30.9300   26.6880 C.3    56  TRP56       0.1605
     71  C          5.4660   30.9990   25.2250 C.2    56  TRP56       0.2264
     72  O          4.9500   30.1630   24.4690 O.2    56  TRP56      -0.2867
     73  CB         6.3090   30.0800   27.3340 C.3    56  TRP56       0.0550
     74  CG         7.5860   30.8470   27.5660 C.ar   56  TRP56       0.0003
     75  CD1        8.7290   30.8530   26.7750 C.ar   56  TRP56       0.0946
     76  CD2        7.8730   31.7840   28.6600 C.ar   56  TRP56       0.0152
     77  NE1        9.6840   31.6900   27.3000 N.ar   56  TRP56      -0.2442
     78  CE2        9.2340   32.2790   28.4300 C.ar   56  TRP56       0.0810
     79  CE3        7.1740   32.2300   29.7690 C.ar   56  TRP56       0.0012
     80  CZ2        9.8430   33.1900   29.2900 C.ar   56  TRP56       0.0191
     81  CZ3        7.8020   33.1430   30.6360 C.ar   56  TRP56       0.0001
     82  CH2        9.1060   33.6050   30.4020 C.ar   56  TRP56       0.0015
     83  N         17.7310   29.4170   19.1980 N.3    74  GLY74      -0.1210
     84  CA        17.8080   29.8100   20.5930 C.3    74  GLY74       0.1956
     85  C         16.6420   29.3910   21.4660 C.2    74  GLY74       0.2612
     86  O         16.2940   30.1150   22.3970 O.2    74  GLY74      -0.2717
     87  N         16.0420   28.2320   21.1870 N.am   75  VAL75      -0.1965
     88  CA        14.9490   27.7190   22.0340 C.3    75  VAL75       0.1727
     89  C         15.3020   26.4300   22.7910 C.2    75  VAL75       0.2617
     90  O         14.4410   25.8320   23.4350 O.2    75  VAL75      -0.2715
     91  CB        13.6290   27.5210   21.2470 C.3    75  VAL75       0.0290
     92  CG1       13.1690   28.8380   20.6230 C.3    75  VAL75       0.0023
     93  CG2       13.7640   26.4240   20.1900 C.3    75  VAL75       0.0023
     94  N         16.5640   26.0130   22.7380 N.am   76  SER76      -0.1936
     95  CA        16.9590   24.7200   23.3220 C.3    76  SER76       0.2055
     96  C         16.7450   24.6130   24.8150 C.2    76  SER76       0.2643
     97  O         16.2370   23.6070   25.2930 O.2    76  SER76      -0.2714
     98  CB        18.4050   24.3730   22.9970 C.3    76  SER76       0.2130
     99  OG        18.4340   23.7070   21.7630 O.3    76  SER76      -0.2179
    100  N         17.1510   25.6460   25.5440 N.am   77  LYS77      -0.1963
    101  CA        16.9820   25.6530   26.9850 C.3    77  LYS77       0.1728
    102  C         15.4950   25.6320   27.3480 C.2    77  LYS77       0.2616
    103  O         15.0800   24.8230   28.1810 O.2    77  LYS77      -0.2715
    104  CB        17.7040   26.8520   27.6080 C.3    77  LYS77       0.0311
    105  CG        17.5130   27.0050   29.1120 C.3    77  LYS77       0.0038
    106  CD        17.9120   25.7500   29.8830 C.3    77  LYS77       0.0206
    107  CE        19.4080   25.5160   29.8410 C.3    77  LYS77       0.1093
    108  NZ        19.7680   24.2980   30.6080 N.3    77  LYS77      -0.1314
    109  N         14.6990   26.4870   26.7020 N.am   78  VAL78      -0.1977
    110  CA        13.2570   26.5480   26.9700 C.3    78  VAL78       0.1596
    111  C         12.5730   25.2050   26.6790 C.2    78  VAL78       0.2287
    112  O         11.7260   24.7590   27.4490 O.2    78  VAL78      -0.2864
    113  CB        12.5690   27.7100   26.2130 C.3    78  VAL78       0.0276
    114  CG1       11.0670   27.5390   26.1840 C.3    78  VAL78       0.0022
    115  CG2       12.8690   29.0180   26.9010 C.3    78  VAL78       0.0022
    116  N         13.3340   23.1140   29.5460 N.3    81  LEU81      -0.1245
    117  CA        12.5950   23.5230   30.7460 C.3    81  LEU81       0.1561
    118  C         11.1290   23.1230   30.6670 C.2    81  LEU81       0.2260
    119  O         10.5420   22.7000   31.6580 O.2    81  LEU81      -0.2867
    120  CB        12.7190   25.0280   31.0030 C.3    81  LEU81       0.0270
    121  CG        14.1430   25.5500   31.2580 C.3    81  LEU81       0.0019
    122  CD1       14.1870   27.0670   31.1690 C.3    81  LEU81       0.0001
    123  CD2       14.7300   25.0620   32.5790 C.3    81  LEU81       0.0001
@<TRIPOS>BOND
     1    46    47    1
     2    83    84    1
     3    47    50    1
     4    47    48    1
     5    50    51    1
     6    51    52    1
     7    93    91    1
     8    52    53    1
     9    48    49    2
    10    84    85    1
    11    92    91    1
    12    53    54    1
    13    87    85   am
    14    87    88    1
    15    91    88    1
    16    85    86    2
    17    99    98    1
    18    88    89    1
    19    94    89   am
    20    94    95    1
    21    89    90    2
    22    98    95    1
    23    95    96    1
    24    68    66   ar
    25    68    67   ar
    26    55    56    1
    27    66    64   ar
    28    67    65   ar
    29    72    71    2
    30    64    62   ar
    31    64    63   ar
    32    65    62   ar
    33    56    57    1
    34    56    59    1
    35    96    97    2
    36    96   100   am
    37    62    60   ar
    38    63    61   ar
    39    71    70    1
    40    57    58    2
    41    61    60   ar
    42    60    59    1
    43   100   101    1
    44   114   113    1
    45   113   115    1
    46   113   110    1
    47   111   110    1
    48   111   112    2
    49    70    69    1
    50    70    73    1
    51   109   110    1
    52   109   102   am
    53    75    77   ar
    54    75    74   ar
    55    43    45    1
    56    43    44    1
    57    43    40    1
    58    41    42    2
    59    41    40    1
    60   101   102    1
    61   101   104    1
    62    77    78   ar
    63    73    74    1
    64   102   103    2
    65    74    76   ar
    66   104   105    1
    67    40    39    1
    68    78    76   ar
    69    78    80   ar
    70    76    79   ar
    71   105   106    1
    72    80    82   ar
    73   116   117    1
    74    79    81   ar
    75   107   106    1
    76   107   108    1
    77    27    26    1
    78    28    26    1
    79     7     6    1
    80    82    81   ar
    81   118   117    1
    82   118   119    2
    83   117   120    1
    84   120   121    1
    85    26    25    1
    86   122   121    1
    87   121   123    1
    88     8     6    1
    89    32    31    2
    90     6     5    1
    91     5     2    1
    92    25    22    1
    93    17    15   ar
    94    17    19   ar
    95    20    19    1
    96    31    30    1
    97    15    14   ar
    98    19    18   ar
    99    22    23    1
   100    22    21    1
   101    33    30    1
   102    33    34    1
   103     4     3    2
   104    24    23    2
   105     2     3    1
   106     2     1    1
   107    30    29    1
   108    21    11   am
   109    14    13    1
   110    14    16   ar
   111    18    16   ar
   112    34    36   ar
   113    34    35   ar
   114    11    12    2
   115    11    10    1
   116    13    10    1
   117    36    38   ar
   118    35    37   ar
   119    10     9    1
   120    38    37   ar
