@<TRIPOS>MOLECULE
tmp/4za6B00.pdb
 97 90 0 0 0
SMALL
GASTEIGER

@<TRIPOS>ATOM
      1  N        -29.5840  -12.9360    6.8690 N.3    17  TYR17      -0.1241
      2  CA       -29.5970  -11.9570    7.9650 C.3    17  TYR17       0.1605
      3  C        -28.2630  -12.0160    8.7060 C.2    17  TYR17       0.2264
      4  O        -27.6250  -10.9770    8.8710 O.2    17  TYR17      -0.2867
      5  CB       -30.7720  -12.2260    8.9180 C.3    17  TYR17       0.0534
      6  CG       -30.7450  -11.4320   10.2120 C.ar   17  TYR17      -0.0201
      7  CD1      -30.7350  -10.0360   10.2020 C.ar   17  TYR17      -0.0009
      8  CD2      -30.7590  -12.0750   11.4460 C.ar   17  TYR17      -0.0009
      9  CE1      -30.7010   -9.3000   11.3920 C.ar   17  TYR17       0.0417
     10  CE2      -30.6750  -11.3520   12.6390 C.ar   17  TYR17       0.0417
     11  CZ       -30.6530   -9.9640   12.6060 C.ar   17  TYR17       0.1957
     12  OH       -30.6320   -9.2550   13.7860 O.3    17  TYR17      -0.2866
     13  N        -36.5150  -12.5980   12.6710 N.3    54  LEU54      -0.1245
     14  CA       -36.1630  -11.8090   13.8650 C.3    54  LEU54       0.1561
     15  C        -36.8670  -12.3000   15.1180 C.2    54  LEU54       0.2260
     16  O        -36.2770  -12.2390   16.1840 O.2    54  LEU54      -0.2867
     17  CB       -36.4440  -10.3260   13.6180 C.3    54  LEU54       0.0270
     18  CG       -35.6330   -9.6710   12.4970 C.3    54  LEU54       0.0019
     19  CD1      -36.0680   -8.2160   12.2610 C.3    54  LEU54       0.0001
     20  CD2      -34.1570   -9.7880   12.7560 C.3    54  LEU54       0.0001
     21  N        -34.9280  -15.4330   16.2830 N.3    57  ALA57      -0.1231
     22  CA       -33.6690  -14.9370   16.8720 C.3    57  ALA57       0.1694
     23  C        -33.9650  -14.3270   18.2660 C.2    57  ALA57       0.2592
     24  O        -33.1670  -14.5040   19.1810 O.2    57  ALA57      -0.2718
     25  CB       -33.0470  -13.8770   15.9780 C.3    57  ALA57       0.0304
     26  N        -35.1200  -13.6320   18.4160 N.am   58  THR58      -0.1953
     27  CA       -35.5500  -13.0560   19.7060 C.3    58  THR58       0.1897
     28  C        -35.7560  -14.1800   20.7540 C.2    58  THR58       0.2313
     29  O        -35.2700  -14.0640   21.8800 O.2    58  THR58      -0.2863
     30  CB       -36.8340  -12.2270   19.5240 C.3    58  THR58       0.1794
     31  OG1      -36.5550  -11.0750   18.7170 O.3    58  THR58      -0.2208
     32  CG2      -37.4440  -11.7870   20.8650 C.3    58  THR58       0.0378
     33  N        -32.4990  -15.6400   22.0050 N.3    61  THR61      -0.1218
     34  CA       -31.8850  -14.6560   22.9120 C.3    61  THR61       0.1862
     35  C        -32.4960  -14.7650   24.3090 C.2    61  THR61       0.2287
     36  O        -31.7560  -14.8740   25.2810 O.2    61  THR61      -0.2866
     37  CB       -31.9730  -13.2480   22.2990 C.3    61  THR61       0.1770
     38  OG1      -31.2450  -13.2780   21.0800 O.3    61  THR61      -0.2211
     39  CG2      -31.3850  -12.1560   23.2040 C.3    61  THR61       0.0375
     40  N        -27.6000   -8.0080   24.7980 N.3    87  SER87      -0.1202
     41  CA       -27.2610   -8.9410   23.7120 C.3    87  SER87       0.2020
     42  C        -27.7380   -8.3700   22.3660 C.2    87  SER87       0.2618
     43  O        -27.0190   -8.4060   21.3700 O.2    87  SER87      -0.2717
     44  CB       -27.8730  -10.3110   23.9700 C.3    87  SER87       0.2103
     45  OG       -27.5400  -11.1900   22.9130 O.3    87  SER87      -0.2182
     46  N        -28.9260   -7.7920   22.3740 N.am   88  VAL88      -0.1979
     47  CA       -29.5230   -7.1380   21.1980 C.3    88  VAL88       0.1595
     48  C        -28.6830   -5.9000   20.8180 C.2    88  VAL88       0.2287
     49  O        -28.3610   -5.7290   19.6530 O.2    88  VAL88      -0.2864
     50  CB       -31.0080   -6.7990   21.4390 C.3    88  VAL88       0.0276
     51  CG1      -31.5690   -5.9070   20.3160 C.3    88  VAL88       0.0022
     52  CG2      -31.8420   -8.0760   21.5850 C.3    88  VAL88       0.0022
     53  N        -25.4890   -6.7430   18.8920 N.3    91  SER91      -0.1217
     54  CA       -25.6570   -7.5200   17.6580 C.3    91  SER91       0.1889
     55  C        -25.1610   -6.7690   16.4240 C.2    91  SER91       0.2288
     56  O        -25.7340   -5.7400   16.0700 O.2    91  SER91      -0.2866
     57  CB       -27.1170   -7.9050   17.4580 C.3    91  SER91       0.2089
     58  OG       -27.2710   -8.6490   16.2560 O.3    91  SER91      -0.2183
     59  N        -27.9180   -7.2280   13.5390 N.3    94  LEU94      -0.1245
     60  CA       -29.0160   -6.2780   13.7280 C.3    94  LEU94       0.1561
     61  C        -28.5800   -4.8880   13.3030 C.2    94  LEU94       0.2260
     62  O        -29.2880   -4.2400   12.5340 O.2    94  LEU94      -0.2867
     63  CB       -29.5490   -6.2420   15.1820 C.3    94  LEU94       0.0270
     64  CG       -30.7220   -5.2610   15.3860 C.3    94  LEU94       0.0019
     65  CD1      -31.9420   -5.6820   14.5490 C.3    94  LEU94       0.0001
     66  CD2      -31.0490   -5.0770   16.8550 C.3    94  LEU94       0.0001
     67  N        -37.5140   -1.9740   10.1680 N.3   105  PHE105     -0.1241
     68  CA       -37.2620   -2.4800   11.5140 C.3   105  PHE105      0.1605
     69  C        -38.1430   -1.8460   12.5940 C.2   105  PHE105      0.2264
     70  O        -38.6240   -2.5740   13.4760 O.2   105  PHE105     -0.2867
     71  CB       -35.7720   -2.4210   11.8840 C.3   105  PHE105      0.0534
     72  CG       -35.5280   -3.1160   13.2140 C.ar  105  PHE105     -0.0203
     73  CD1      -35.5290   -4.4990   13.3040 C.ar  105  PHE105     -0.0042
     74  CD2      -35.4260   -2.3850   14.3900 C.ar  105  PHE105     -0.0042
     75  CE1      -35.3760   -5.1340   14.5460 C.ar  105  PHE105     -0.0003
     76  CE2      -35.2430   -3.0200   15.6160 C.ar  105  PHE105     -0.0003
     77  CZ       -35.2230   -4.3880   15.6890 C.ar  105  PHE105     -0.0000
     78  N        -42.2160   -9.9820   16.4310 N.3   115  ILE115     -0.1245
     79  CA       -41.2380   -9.6900   17.5030 C.3   115  ILE115      0.1561
     80  C        -41.9240   -9.4330   18.8600 C.2   115  ILE115      0.2260
     81  O        -41.5890  -10.1190   19.8310 O.2   115  ILE115     -0.2867
     82  CB       -40.2470   -8.5660   17.0930 C.3   115  ILE115      0.0252
     83  CG1      -39.4090   -8.9970   15.8320 C.3   115  ILE115      0.0019
     84  CG2      -39.3240   -8.1780   18.2820 C.3   115  ILE115      0.0019
     85  CD1      -38.6760   -7.8700   15.1010 C.3   115  ILE115      0.0001
     86  N        -34.4920    0.4880   21.4710 N.3   158  TYR158     -0.1241
     87  CA       -34.2810    0.9950   20.1340 C.3   158  TYR158      0.1605
     88  C        -34.3400    2.5100   20.0120 C.2   158  TYR158      0.2264
     89  O        -34.5390    2.9950   18.8990 O.2   158  TYR158     -0.2867
     90  CB       -35.2710    0.3090   19.1440 C.3   158  TYR158      0.0534
     91  CG       -35.2230   -1.2030   19.2030 C.ar  158  TYR158     -0.0201
     92  CD1      -34.0830   -1.9010   18.8140 C.ar  158  TYR158     -0.0009
     93  CD2      -36.3120   -1.9360   19.6690 C.ar  158  TYR158     -0.0009
     94  CE1      -34.0200   -3.2870   18.9030 C.ar  158  TYR158      0.0417
     95  CE2      -36.2590   -3.3270   19.7670 C.ar  158  TYR158      0.0417
     96  CZ       -35.1180   -3.9950   19.3670 C.ar  158  TYR158      0.1957
     97  OH       -35.0570   -5.3520   19.4640 O.3   158  TYR158     -0.2866
@<TRIPOS>BOND
     1     1     2    1
     2     2     3    1
     3     2     5    1
     4     3     4    2
     5     5     6    1
     6    67    68    1
     7     7     6   ar
     8     7     9   ar
     9     6     8   ar
    10     9    11   ar
    11     8    10   ar
    12    68    71    1
    13    68    69    1
    14    71    72    1
    15    19    18    1
    16    18    20    1
    17    18    17    1
    18    62    61    2
    19    69    70    2
    20    11    10   ar
    21    11    12    1
    22    13    14    1
    23    72    73   ar
    24    72    74   ar
    25    61    60    1
    26    73    75   ar
    27    59    60    1
    28    17    14    1
    29    60    63    1
    30    14    15    1
    31    74    76   ar
    32    75    77   ar
    33    65    64    1
    34    85    83    1
    35    15    16    2
    36    63    64    1
    37    64    66    1
    38    76    77   ar
    39    83    82    1
    40    25    22    1
    41    56    55    2
    42    58    57    1
    43    21    22    1
    44    55    54    1
    45    78    79    1
    46    22    23    1
    47    82    79    1
    48    82    84    1
    49    57    54    1
    50    79    80    1
    51    54    53    1
    52    23    26   am
    53    23    24    2
    54    26    27    1
    55    31    30    1
    56    92    94   ar
    57    92    91   ar
    58    80    81    2
    59    89    88    2
    60    94    96   ar
    61    90    91    1
    62    90    87    1
    63    91    93   ar
    64    96    97    1
    65    96    95   ar
    66    30    27    1
    67    30    32    1
    68    49    48    2
    69    93    95   ar
    70    27    28    1
    71    88    87    1
    72    87    86    1
    73    51    50    1
    74    28    29    2
    75    48    47    1
    76    38    37    1
    77    47    50    1
    78    47    46    1
    79    43    42    2
    80    50    52    1
    81    33    34    1
    82    37    34    1
    83    37    39    1
    84    42    46   am
    85    42    41    1
    86    34    35    1
    87    45    44    1
    88    41    44    1
    89    41    40    1
    90    35    36    2
