@<TRIPOS>MOLECULE
tmp/4za7A02.pdb
 123 114 0 0 0
SMALL
GASTEIGER

@<TRIPOS>ATOM
      1  N         23.4860   15.5130   23.6160 N.3   170  ARG170     -0.1245
      2  CA        23.1420   16.6850   22.8320 C.3   170  ARG170      0.1563
      3  C         24.0150   17.8810   23.2630 C.2   170  ARG170      0.2260
      4  O         24.4190   18.0160   24.4180 O.2   170  ARG170     -0.2867
      5  CB        21.6640   17.0320   22.9800 C.3   170  ARG170      0.0307
      6  CG        21.2620   17.6130   24.3370 C.3   170  ARG170      0.0489
      7  CD        19.7650   17.8750   24.3630 C.3   170  ARG170      0.2205
      8  NE        19.4500   18.6530   25.5620 N.pl3 170  ARG170     -0.0865
      9  CZ        18.3030   18.5850   26.2260 C.cat 170  ARG170      0.5346
     10  NH1       17.4360   17.5860   25.9730 N.pl3 170  ARG170      0.1354
     11  NH2       18.0540   19.4780   27.1600 N.pl3 170  ARG170      0.1354
     12  N         23.8940   18.5400   27.7260 N.3   182  LEU182     -0.1245
     13  CA        23.5540   17.6250   28.8250 C.3   182  LEU182      0.1561
     14  C         24.6590   16.7330   29.1910 C.2   182  LEU182      0.2260
     15  O         25.1260   15.9250   28.3720 O.2   182  LEU182     -0.2867
     16  CB        22.3810   16.7260   28.5590 C.3   182  LEU182      0.0270
     17  CG        21.0210   17.4340   28.5550 C.3   182  LEU182      0.0019
     18  CD1       19.9060   16.4120   28.2160 C.3   182  LEU182      0.0001
     19  CD2       20.7020   18.2290   29.8200 C.3   182  LEU182      0.0001
     20  N         24.7460   14.2860   32.3920 N.3   184  ILE184     -0.1245
     21  CA        23.8920   13.8860   33.4860 C.3   184  ILE184      0.1561
     22  C         24.2010   12.4680   33.9510 C.2   184  ILE184      0.2260
     23  O         24.5430   11.6010   33.1500 O.2   184  ILE184     -0.2867
     24  CB        22.4150   14.0730   33.1650 C.3   184  ILE184      0.0252
     25  CG1       21.9260   13.1460   32.0280 C.3   184  ILE184      0.0019
     26  CG2       22.1100   15.5420   32.8860 C.3   184  ILE184      0.0019
     27  CD1       20.4410   13.2990   31.7190 C.3   184  ILE184      0.0001
     28  N         25.3980    8.7030   33.0330 N.3   187  GLN187     -0.1245
     29  CA        26.0330    8.5420   31.7210 C.3   187  GLN187      0.1566
     30  C         27.5590    8.5800   31.8330 C.2   187  GLN187      0.2260
     31  O         28.1160    9.2490   32.7340 O.2   187  GLN187     -0.2867
     32  CB        25.4830    9.6210   30.7990 C.3   187  GLN187      0.0367
     33  CG        23.9970    9.5670   30.6170 C.3   187  GLN187      0.0905
     34  CD        23.5570    8.3730   29.8690 C.2   187  GLN187      0.2608
     35  OE1       23.5780    7.2300   30.3730 O.2   187  GLN187     -0.2717
     36  NE2       23.1270    8.5820   28.5970 N.am  187  GLN187     -0.0878
     37  N         14.8190   21.5120   24.4260 N.3   277  PHE277     -0.1241
     38  CA        14.9940   20.8050   23.1620 C.3   277  PHE277      0.1605
     39  C         13.8520   19.8490   22.9170 C.2   277  PHE277      0.2264
     40  O         13.3790   19.2440   23.8570 O.2   277  PHE277     -0.2867
     41  CB        16.3150   20.0300   23.2630 C.3   277  PHE277      0.0534
     42  CG        16.6880   19.3460   21.9780 C.ar  277  PHE277     -0.0203
     43  CD1       16.8260   20.0580   20.7950 C.ar  277  PHE277     -0.0042
     44  CD2       16.9980   18.0050   22.0010 C.ar  277  PHE277     -0.0042
     45  CE1       17.2620   19.4130   19.6170 C.ar  277  PHE277     -0.0003
     46  CE2       17.4280   17.3590   20.8150 C.ar  277  PHE277     -0.0003
     47  CZ        17.5640   18.0950   19.6560 C.ar  277  PHE277     -0.0000
     48  N         12.4630   16.5730   22.2990 N.3   279  GLU279     -0.1231
     49  CA        13.1210   15.3830   22.7730 C.3   279  GLU279      0.1699
     50  C         12.4540   14.0820   22.3420 C.2   279  GLU279      0.2592
     51  O         11.3090   14.0640   21.7710 O.2   279  GLU279     -0.2718
     52  CB        13.3230   15.4400   24.3150 C.3   279  GLU279      0.0402
     53  CG        14.0580   16.5960   24.9450 C.3   279  GLU279      0.1161
     54  CD        14.0010   16.6320   26.4260 C.2   279  GLU279      0.3649
     55  OE1       13.0780   15.9970   27.1290 O.co2 279  GLU279     -0.2457
     56  OE2       14.8040   17.4730   27.0460 O.co2 279  GLU279     -0.2457
     57  N         13.1220   12.9390   22.6220 N.am  280  MET280     -0.1979
     58  CA        12.7840   11.6060   22.1870 C.3   280  MET280      0.1605
     59  C         11.3780   11.1630   22.5590 C.2   280  MET280      0.2287
     60  O         10.7970   10.2820   21.8920 O.2   280  MET280     -0.2864
     61  CB        13.7600   10.6320   22.7450 C.3   280  MET280      0.0413
     62  CG        13.7160   10.3880   24.2590 C.3   280  MET280      0.0598
     63  SD        14.9650    9.2480   24.8800 S.3   280  MET280     -0.1393
     64  CE        14.3390    7.6940   24.2910 C.3   280  MET280      0.0692
     65  N         14.7270   14.9450   16.0930 N.3   313  CYS313     -0.1235
     66  CA        14.1070   13.9930   16.9900 C.3   313  CYS313      0.1677
     67  C         12.7690   14.4650   17.5540 C.2   313  CYS313      0.2270
     68  O         12.5090   15.6380   17.6410 O.2   313  CYS313     -0.2867
     69  CB        15.0260   13.5820   18.1030 C.3   313  CYS313      0.0956
     70  SG        15.7700   14.9140   19.0190 S.3   313  CYS313     -0.0801
     71  N         16.4510    8.4020   18.0860 N.3   320  THR320     -0.1218
     72  CA        16.2690    8.2760   19.5310 C.3   320  THR320      0.1862
     73  C         15.4260    7.0800   19.8300 C.2   320  THR320      0.2287
     74  O         15.3730    6.6960   21.0290 O.2   320  THR320     -0.2866
     75  CB        15.6770    9.5630   20.1710 C.3   320  THR320      0.1770
     76  OG1       14.3580    9.7590   19.7840 O.3   320  THR320     -0.2211
     77  CG2       16.5680   10.7150   19.9500 C.3   320  THR320      0.0375
     78  N         18.4840    4.5070   20.6950 N.3   324  ILE324     -0.1245
     79  CA        18.5020    4.5300   22.1190 C.3   324  ILE324      0.1561
     80  C         17.7530    3.3440   22.6670 C.2   324  ILE324      0.2260
     81  O         18.2530    2.5870   23.5160 O.2   324  ILE324     -0.2867
     82  CB        17.9720    5.8690   22.7850 C.3   324  ILE324      0.0252
     83  CG1       18.7820    7.0470   22.2560 C.3   324  ILE324      0.0019
     84  CG2       18.0300    5.7660   24.2750 C.3   324  ILE324      0.0019
     85  CD1       18.3110    8.3980   22.7350 C.3   324  ILE324      0.0001
     86  N         18.4010    2.5930   32.7830 N.3   391  TYR391     -0.1227
     87  CA        18.1340    3.9650   33.0960 C.3   391  TYR391      0.1736
     88  C         16.9110    4.5440   32.3930 C.2   391  TYR391      0.2596
     89  O         16.0450    5.1500   33.0060 O.2   391  TYR391     -0.2718
     90  CB        19.3970    4.8070   32.8360 C.3   391  TYR391      0.0548
     91  CG        19.2390    6.2970   32.8840 C.ar  391  TYR391     -0.0200
     92  CD1       18.7180    6.9880   33.9680 C.ar  391  TYR391     -0.0009
     93  CD2       19.6720    7.0560   31.8040 C.ar  391  TYR391     -0.0009
     94  CE1       18.6770    8.3730   33.9570 C.ar  391  TYR391      0.0417
     95  CE2       19.6250    8.3980   31.8040 C.ar  391  TYR391      0.0417
     96  CZ        19.0970    9.0690   32.8860 C.ar  391  TYR391      0.1957
     97  OH        19.0000   10.4410   32.8170 O.3   391  TYR391     -0.2866
     98  N         16.8720    4.4140   31.0630 N.am  392  THR392     -0.1953
     99  CA        15.8600    5.0480   30.2760 C.3   392  THR392      0.1897
    100  C         14.4880    4.3410   30.3030 C.2   392  THR392      0.2313
    101  O         13.5090    4.8500   29.7380 O.2   392  THR392     -0.2863
    102  CB        16.2850    5.2390   28.8030 C.3   392  THR392      0.1794
    103  OG1       16.3550    3.9780   28.1370 O.3   392  THR392     -0.2208
    104  CG2       17.5850    6.0270   28.6780 C.3   392  THR392      0.0378
    105  N         14.2680    8.3970   34.9350 N.3   434  PHE434     -0.1241
    106  CA        14.7330    9.1110   33.7280 C.3   434  PHE434      0.1605
    107  C         13.9740   10.4280   33.6350 C.2   434  PHE434      0.2264
    108  O         12.7900   10.4390   33.2570 O.2   434  PHE434     -0.2867
    109  CB        14.4670    8.2370   32.5280 C.3   434  PHE434      0.0534
    110  CG        15.0170    8.7470   31.2170 C.ar  434  PHE434     -0.0203
    111  CD1       16.1350    9.5580   31.1150 C.ar  434  PHE434     -0.0042
    112  CD2       14.4470    8.3090   30.0320 C.ar  434  PHE434     -0.0042
    113  CE1       16.6440    9.9290   29.8990 C.ar  434  PHE434     -0.0003
    114  CE2       14.9730    8.6870   28.7950 C.ar  434  PHE434     -0.0003
    115  CZ        16.0750    9.5040   28.7340 C.ar  434  PHE434     -0.0000
    116  N         13.8250   12.9110   31.6700 N.3   436  LEU436     -0.1245
    117  CA        13.3660   13.4170   30.4210 C.3   436  LEU436      0.1561
    118  C         11.9830   12.9420   30.0470 C.2   436  LEU436      0.2260
    119  O         11.3320   13.5610   29.2070 O.2   436  LEU436     -0.2867
    120  CB        14.3280   13.0350   29.3180 C.3   436  LEU436      0.0270
    121  CG        15.6060   13.8600   29.1370 C.3   436  LEU436      0.0019
    122  CD1       16.5810   13.4840   30.2720 C.3   436  LEU436      0.0001
    123  CD2       16.3200   13.5320   27.8830 C.3   436  LEU436      0.0001
@<TRIPOS>BOND
     1    65    66    1
     2    66    67    1
     3    66    69    1
     4    67    68    2
     5    71    72    1
     6    69    70    1
     7    72    73    1
     8    72    75    1
     9    45    47   ar
    10    45    43   ar
    11    47    46   ar
    12    76    75    1
    13    73    74    2
    14    77    75    1
    15    78    79    1
    16    43    42   ar
    17    46    44   ar
    18    51    50    2
    19    60    59    2
    20    42    44   ar
    21    42    41    1
    22    79    80    1
    23    79    82    1
    24    58    59    1
    25    58    57    1
    26    58    61    1
    27    83    85    1
    28    83    82    1
    29    48    49    1
    30    50    57   am
    31    50    49    1
    32    80    81    2
    33    61    62    1
    34    49    52    1
    35    82    84    1
    36     2     5    1
    37     2     3    1
    38     2     1    1
    39    39    38    1
    40    39    40    2
    41     5     6    1
    42    38    41    1
    43    38    37    1
    44     3     4    2
    45    62    63    1
    46    64    63    1
    47    52    53    1
    48     6     7    1
    49     7     8    1
    50    53    54    1
    51     8     9    2
    52    10     9    1
    53     9    11    1
    54    54    56   ar
    55    54    55   ar
    56    12    13    1
    57   123   121    1
    58   103   102    1
    59    18    17    1
    60    15    14    2
    61    17    16    1
    62    17    19    1
    63    16    13    1
    64    36    34   am
    65   104   102    1
    66   115   114   ar
    67   115   113   ar
    68   114   112   ar
    69   102    99    1
    70    13    14    1
    71   121   120    1
    72   121   122    1
    73   119   118    2
    74   120   117    1
    75   101   100    2
    76    34    35    2
    77    34    33    1
    78   113   111   ar
    79   112   110   ar
    80   118   117    1
    81    99   100    1
    82    99    98    1
    83   117   116    1
    84    33    32    1
    85    32    29    1
    86    98    88   am
    87   111   110   ar
    88   110   109    1
    89    27    25    1
    90    29    30    1
    91    29    28    1
    92    95    93   ar
    93    95    96   ar
    94    93    91   ar
    95    30    31    2
    96    25    24    1
    97    20    21    1
    98    88    89    2
    99    88    87    1
   100   109   106    1
   101    86    87    1
   102    97    96    1
   103    90    91    1
   104    90    87    1
   105    91    92   ar
   106    26    24    1
   107    96    94   ar
   108    23    22    2
   109    24    21    1
   110   108   107    2
   111    21    22    1
   112   107   106    1
   113   106   105    1
   114    94    92   ar
