@<TRIPOS>MOLECULE
tmp/4za8A02.pdb
 123 114 0 0 0
SMALL
GASTEIGER

@<TRIPOS>ATOM
      1  N         23.5310   15.4550   23.6480 N.3   170  ARG170     -0.1245
      2  CA        23.2090   16.6330   22.8630 C.3   170  ARG170      0.1563
      3  C         24.0670   17.8250   23.2860 C.2   170  ARG170      0.2260
      4  O         24.4710   17.9610   24.4350 O.2   170  ARG170     -0.2867
      5  CB        21.7030   16.9700   22.9860 C.3   170  ARG170      0.0307
      6  CG        21.3270   17.5650   24.3690 C.3   170  ARG170      0.0489
      7  CD        19.8220   17.7370   24.4400 C.3   170  ARG170      0.2205
      8  NE        19.4840   18.5660   25.6120 N.pl3 170  ARG170     -0.0865
      9  CZ        18.3390   18.4690   26.2620 C.cat 170  ARG170      0.5346
     10  NH1       17.5040   17.4640   26.0400 N.pl3 170  ARG170      0.1354
     11  NH2       18.0920   19.3450   27.2440 N.pl3 170  ARG170      0.1354
     12  N         23.8990   18.5210   27.7210 N.3   182  LEU182     -0.1245
     13  CA        23.5790   17.6360   28.8460 C.3   182  LEU182      0.1561
     14  C         24.6350   16.7300   29.2010 C.2   182  LEU182      0.2260
     15  O         25.0990   15.9080   28.3830 O.2   182  LEU182     -0.2867
     16  CB        22.4180   16.7090   28.5580 C.3   182  LEU182      0.0270
     17  CG        21.1060   17.4300   28.6210 C.3   182  LEU182      0.0019
     18  CD1       19.9840   16.3680   28.4280 C.3   182  LEU182      0.0001
     19  CD2       20.7370   18.2500   29.8860 C.3   182  LEU182      0.0001
     20  N         24.7230   14.2700   32.4430 N.3   184  ILE184     -0.1245
     21  CA        23.9300   13.8660   33.5830 C.3   184  ILE184      0.1561
     22  C         24.2170   12.4530   33.9450 C.2   184  ILE184      0.2260
     23  O         24.5430   11.5970   33.1440 O.2   184  ILE184     -0.2867
     24  CB        22.3760   14.0830   33.2460 C.3   184  ILE184      0.0252
     25  CG1       21.8700   13.1870   32.1170 C.3   184  ILE184      0.0019
     26  CG2       22.1220   15.5260   33.0580 C.3   184  ILE184      0.0019
     27  CD1       20.3940   13.3500   31.8980 C.3   184  ILE184      0.0001
     28  N         25.3830    8.7060   32.9940 N.3   187  GLN187     -0.1245
     29  CA        26.0230    8.5640   31.6800 C.3   187  GLN187      0.1566
     30  C         27.5300    8.5760   31.8030 C.2   187  GLN187      0.2260
     31  O         28.1130    9.2420   32.7120 O.2   187  GLN187     -0.2867
     32  CB        25.5100    9.6420   30.7640 C.3   187  GLN187      0.0367
     33  CG        23.9820    9.5940   30.5820 C.3   187  GLN187      0.0905
     34  CD        23.5380    8.3600   29.8880 C.2   187  GLN187      0.2608
     35  OE1       23.5630    7.2270   30.3500 O.2   187  GLN187     -0.2717
     36  NE2       23.0930    8.5970   28.5600 N.am  187  GLN187     -0.0878
     37  N         14.8490   21.4460   24.4870 N.3   277  PHE277     -0.1241
     38  CA        15.0580   20.7550   23.2040 C.3   277  PHE277      0.1605
     39  C         13.8800   19.8040   22.9590 C.2   277  PHE277      0.2264
     40  O         13.3750   19.2160   23.8870 O.2   277  PHE277     -0.2867
     41  CB        16.3480   19.9690   23.3250 C.3   277  PHE277      0.0534
     42  CG        16.7510   19.2660   22.0070 C.ar  277  PHE277     -0.0203
     43  CD1       16.8850   19.9750   20.8180 C.ar  277  PHE277     -0.0042
     44  CD2       17.0230   17.9350   22.0170 C.ar  277  PHE277     -0.0042
     45  CE1       17.3080   19.3280   19.6130 C.ar  277  PHE277     -0.0003
     46  CE2       17.4600   17.2840   20.8110 C.ar  277  PHE277     -0.0003
     47  CZ        17.5780   18.0540   19.6610 C.ar  277  PHE277     -0.0000
     48  N         12.5600   16.5540   22.3570 N.3   279  GLU279     -0.1231
     49  CA        13.2240   15.3590   22.8120 C.3   279  GLU279      0.1699
     50  C         12.5560   14.0530   22.3570 C.2   279  GLU279      0.2592
     51  O         11.4350   14.0370   21.7620 O.2   279  GLU279     -0.2718
     52  CB        13.3910   15.4120   24.3620 C.3   279  GLU279      0.0402
     53  CG        14.2120   16.5310   25.0760 C.3   279  GLU279      0.1161
     54  CD        14.0760   16.5610   26.5780 C.2   279  GLU279      0.3649
     55  OE1       13.1060   15.9640   27.2330 O.co2 279  GLU279     -0.2457
     56  OE2       14.9260   17.3370   27.2300 O.co2 279  GLU279     -0.2457
     57  N         13.2060   12.9000   22.6670 N.am  280  MET280     -0.1979
     58  CA        12.8930   11.5970   22.2370 C.3   280  MET280      0.1605
     59  C         11.4800   11.1500   22.5490 C.2   280  MET280      0.2287
     60  O         10.9070   10.2620   21.9110 O.2   280  MET280     -0.2864
     61  CB        13.8630   10.6140   22.8230 C.3   280  MET280      0.0413
     62  CG        13.8060   10.4100   24.3350 C.3   280  MET280      0.0598
     63  SD        15.0540    9.2410   24.9790 S.3   280  MET280     -0.1393
     64  CE        14.4260    7.7000   24.3700 C.3   280  MET280      0.0692
     65  N         14.7430   14.8910   16.1050 N.3   313  CYS313     -0.1235
     66  CA        14.0810   13.9400   16.9810 C.3   313  CYS313      0.1677
     67  C         12.7680   14.4090   17.5720 C.2   313  CYS313      0.2270
     68  O         12.5140   15.6010   17.6700 O.2   313  CYS313     -0.2867
     69  CB        15.0230   13.4890   18.0790 C.3   313  CYS313      0.0956
     70  SG        15.7670   14.8220   19.0670 S.3   313  CYS313     -0.0801
     71  N         16.4390    8.3800   18.0870 N.3   320  THR320     -0.1218
     72  CA        16.2350    8.2550   19.5330 C.3   320  THR320      0.1862
     73  C         15.3870    7.0770   19.8870 C.2   320  THR320      0.2287
     74  O         15.2920    6.7130   21.1060 O.2   320  THR320     -0.2866
     75  CB        15.6950    9.5410   20.1520 C.3   320  THR320      0.1770
     76  OG1       14.3430    9.7580   19.8000 O.3   320  THR320     -0.2211
     77  CG2       16.5820   10.7260   19.9170 C.3   320  THR320      0.0375
     78  N         18.4620    4.4680   20.6500 N.3   324  ILE324     -0.1245
     79  CA        18.4830    4.5020   22.0860 C.3   324  ILE324      0.1561
     80  C         17.7390    3.3060   22.6560 C.2   324  ILE324      0.2260
     81  O         18.2390    2.5590   23.5150 O.2   324  ILE324     -0.2867
     82  CB        17.9550    5.8250   22.7250 C.3   324  ILE324      0.0252
     83  CG1       18.7740    7.0110   22.1940 C.3   324  ILE324      0.0019
     84  CG2       18.0020    5.7370   24.2260 C.3   324  ILE324      0.0019
     85  CD1       18.2860    8.3450   22.6180 C.3   324  ILE324      0.0001
     86  N         18.4140    2.5960   32.8170 N.3   391  TYR391     -0.1227
     87  CA        18.1280    3.9620   33.1200 C.3   391  TYR391      0.1736
     88  C         16.9170    4.5430   32.4350 C.2   391  TYR391      0.2596
     89  O         16.0230    5.1290   33.0530 O.2   391  TYR391     -0.2718
     90  CB        19.3930    4.8060   32.8560 C.3   391  TYR391      0.0548
     91  CG        19.2360    6.2710   32.8770 C.ar  391  TYR391     -0.0200
     92  CD1       18.7170    6.9600   33.9680 C.ar  391  TYR391     -0.0009
     93  CD2       19.6760    7.0430   31.8110 C.ar  391  TYR391     -0.0009
     94  CE1       18.6670    8.3410   33.9590 C.ar  391  TYR391      0.0417
     95  CE2       19.6110    8.3650   31.7880 C.ar  391  TYR391      0.0417
     96  CZ        19.0940    9.0690   32.8830 C.ar  391  TYR391      0.1957
     97  OH        19.0280   10.4150   32.8270 O.3   391  TYR391     -0.2866
     98  N         16.8480    4.4180   31.0810 N.am  392  THR392     -0.1953
     99  CA        15.8330    5.0230   30.3110 C.3   392  THR392      0.1897
    100  C         14.4740    4.3300   30.3430 C.2   392  THR392      0.2313
    101  O         13.4830    4.8420   29.7960 O.2   392  THR392     -0.2863
    102  CB        16.2680    5.2180   28.8200 C.3   392  THR392      0.1794
    103  OG1       16.3070    3.9610   28.1850 O.3   392  THR392     -0.2208
    104  CG2       17.5730    6.0320   28.7360 C.3   392  THR392      0.0378
    105  N         14.2730    8.3990   34.9260 N.3   434  PHE434     -0.1241
    106  CA        14.7510    9.1090   33.7340 C.3   434  PHE434      0.1605
    107  C         14.0210   10.4250   33.6420 C.2   434  PHE434      0.2264
    108  O         12.8110   10.4390   33.2570 O.2   434  PHE434     -0.2867
    109  CB        14.5080    8.2360   32.5130 C.3   434  PHE434      0.0534
    110  CG        15.0660    8.7470   31.2320 C.ar  434  PHE434     -0.0203
    111  CD1       16.1430    9.5990   31.1510 C.ar  434  PHE434     -0.0042
    112  CD2       14.5150    8.3220   30.0280 C.ar  434  PHE434     -0.0042
    113  CE1       16.6740    9.9960   29.9320 C.ar  434  PHE434     -0.0003
    114  CE2       15.0180    8.6850   28.8060 C.ar  434  PHE434     -0.0003
    115  CZ        16.1200    9.5550   28.7280 C.ar  434  PHE434     -0.0000
    116  N         13.8250   12.9550   31.7280 N.3   436  LEU436     -0.1245
    117  CA        13.3560   13.4860   30.4590 C.3   436  LEU436      0.1561
    118  C         11.9520   12.9830   30.1230 C.2   436  LEU436      0.2260
    119  O         11.2770   13.5930   29.2880 O.2   436  LEU436     -0.2867
    120  CB        14.3120   13.1570   29.2960 C.3   436  LEU436      0.0270
    121  CG        15.5650   14.0300   29.0520 C.3   436  LEU436      0.0019
    122  CD1       16.4740   13.7710   30.2920 C.3   436  LEU436      0.0001
    123  CD2       16.3930   13.6190   27.7790 C.3   436  LEU436      0.0001
@<TRIPOS>BOND
     1    65    66    1
     2    66    67    1
     3    66    69    1
     4    67    68    2
     5    69    70    1
     6    71    72    1
     7    72    73    1
     8    72    75    1
     9    45    47   ar
    10    45    43   ar
    11    47    46   ar
    12    76    75    1
    13    73    74    2
    14    77    75    1
    15    78    79    1
    16    46    44   ar
    17    43    42   ar
    18    51    50    2
    19    60    59    2
    20    42    44   ar
    21    42    41    1
    22    79    80    1
    23    79    82    1
    24    83    85    1
    25    83    82    1
    26    58    59    1
    27    58    57    1
    28    58    61    1
    29    48    49    1
    30    50    57   am
    31    50    49    1
    32    80    81    2
    33    82    84    1
    34    49    52    1
    35    61    62    1
    36     2     5    1
    37     2     3    1
    38     2     1    1
    39    39    38    1
    40    39    40    2
    41     5     6    1
    42    38    41    1
    43    38    37    1
    44     3     4    2
    45    62    63    1
    46    52    53    1
    47     6     7    1
    48    64    63    1
    49     7     8    1
    50    53    54    1
    51     8     9    2
    52    10     9    1
    53     9    11    1
    54    54    56   ar
    55    54    55   ar
    56    12    13    1
    57   123   121    1
    58   103   102    1
    59    15    14    2
    60    18    17    1
    61    16    17    1
    62    16    13    1
    63    36    34   am
    64    17    19    1
    65   115   114   ar
    66   115   113   ar
    67   104   102    1
    68   114   112   ar
    69   102    99    1
    70    13    14    1
    71   121   120    1
    72   121   122    1
    73   119   118    2
    74   120   117    1
    75   101   100    2
    76    34    35    2
    77    34    33    1
    78   113   111   ar
    79   112   110   ar
    80   118   117    1
    81    99   100    1
    82    99    98    1
    83   117   116    1
    84    33    32    1
    85    32    29    1
    86    98    88   am
    87   111   110   ar
    88   110   109    1
    89    29    30    1
    90    29    28    1
    91    95    93   ar
    92    95    96   ar
    93    30    31    2
    94    93    91   ar
    95    27    25    1
    96    25    24    1
    97    88    89    2
    98    88    87    1
    99    20    21    1
   100   109   106    1
   101    86    87    1
   102    97    96    1
   103    90    91    1
   104    90    87    1
   105    91    92   ar
   106    96    94   ar
   107    26    24    1
   108    23    22    2
   109    24    21    1
   110   108   107    2
   111    21    22    1
   112   107   106    1
   113   106   105    1
   114    94    92   ar
