@<TRIPOS>MOLECULE
tmp/4zaaA02.pdb
 97 91 0 0 0
SMALL
GASTEIGER

@<TRIPOS>ATOM
      1  N         23.6550   15.5820   23.7270 N.3   170  ARG170     -0.1245
      2  CA        23.3070   16.7550   22.9290 C.3   170  ARG170      0.1563
      3  C         24.2080   17.9390   23.3310 C.2   170  ARG170      0.2260
      4  O         24.5940   18.0970   24.5070 O.2   170  ARG170     -0.2867
      5  CB        21.8600   17.1090   23.1030 C.3   170  ARG170      0.0307
      6  CG        21.4570   17.7000   24.4550 C.3   170  ARG170      0.0489
      7  CD        19.9320   17.8650   24.5350 C.3   170  ARG170      0.2205
      8  NE        19.6040   18.7220   25.6690 N.pl3 170  ARG170     -0.0865
      9  CZ        18.4440   18.6750   26.3170 C.cat 170  ARG170      0.5346
     10  NH1       17.5560   17.6920   26.0870 N.pl3 170  ARG170      0.1354
     11  NH2       18.1560   19.5960   27.2420 N.pl3 170  ARG170      0.1354
     12  N         24.1250   18.6400   27.7810 N.3   182  LEU182     -0.1245
     13  CA        23.8470   17.7380   28.8890 C.3   182  LEU182      0.1561
     14  C         24.9480   16.8230   29.2130 C.2   182  LEU182      0.2260
     15  O         25.4480   16.0220   28.3930 O.2   182  LEU182     -0.2867
     16  CB        22.5890   16.8850   28.7050 C.3   182  LEU182      0.0270
     17  CG        21.3140   17.7240   28.6210 C.3   182  LEU182      0.0019
     18  CD1       20.2310   16.7060   28.3340 C.3   182  LEU182      0.0001
     19  CD2       21.0810   18.5580   29.9450 C.3   182  LEU182      0.0001
     20  N         25.0340   14.3830   32.4150 N.3   184  ILE184     -0.1231
     21  CA        24.1820   14.0230   33.5570 C.3   184  ILE184      0.1678
     22  C         24.4470   12.5870   33.9770 C.2   184  ILE184      0.2434
     23  O         24.7510   11.7280   33.1530 O.2   184  ILE184     -0.2733
     24  CB        22.6460   14.2420   33.2780 C.3   184  ILE184      0.0265
     25  CG1       22.1990   13.4430   32.0530 C.3   184  ILE184      0.0019
     26  CG2       22.4610   15.7930   33.2010 C.3   184  ILE184      0.0020
     27  CD1       20.6730   13.6780   31.6880 C.3   184  ILE184      0.0001
     28  N         24.2330   12.2750   35.2700 N.am  185  PRO185     -0.2729
     29  CA        24.4180   10.8930   35.7170 C.3   185  PRO185      0.1401
     30  C         23.2850   10.0160   35.1080 C.2   185  PRO185      0.2269
     31  O         22.1550   10.5250   34.9630 O.2   185  PRO185     -0.2865
     32  CB        24.3500   11.0110   37.2350 C.3   185  PRO185      0.0296
     33  CG        23.4770   12.2460   37.5170 C.3   185  PRO185      0.0237
     34  CD        23.9000   13.1730   36.4080 C.3   185  PRO185      0.0939
     35  N         25.5770    8.7880   33.0370 N.3   187  GLN187     -0.1245
     36  CA        26.2380    8.6310   31.7110 C.3   187  GLN187      0.1566
     37  C         27.7420    8.6590   31.8570 C.2   187  GLN187      0.2260
     38  O         28.3090    9.2980   32.7730 O.2   187  GLN187     -0.2867
     39  CB        25.7250    9.7300   30.7960 C.3   187  GLN187      0.0367
     40  CG        24.2270    9.6530   30.6010 C.3   187  GLN187      0.0905
     41  CD        23.7660    8.4170   29.8630 C.2   187  GLN187      0.2608
     42  OE1       23.7910    7.2790   30.3950 O.2   187  GLN187     -0.2717
     43  NE2       23.3150    8.6250   28.6100 N.am  187  GLN187     -0.0878
     44  N         13.2740   12.9650   22.7480 N.3   280  MET280     -0.1196
     45  CA        12.9170   11.6370   22.2690 C.3   280  MET280      0.1786
     46  C         11.4920   11.1920   22.5850 C.2   280  MET280      0.2306
     47  O         10.9570   10.2860   21.9380 O.2   280  MET280     -0.2863
     48  CB        13.8690   10.5770   22.8180 C.2   280  MET280      0.0070
     49  CG        13.8370   10.3940   24.3040 C.2   280  MET280      0.0282
     50  SD        15.0890    9.2510   24.9810 S.3   280  MET280     -0.1125
     51  CE        14.4760    7.6950   24.3910 C.3   280  MET280      0.0742
     52  N         18.6230    4.5250   20.7700 N.3   324  ILE324     -0.1245
     53  CA        18.6320    4.5750   22.2020 C.3   324  ILE324      0.1561
     54  C         17.8520    3.3600   22.7530 C.2   324  ILE324      0.2260
     55  O         18.3600    2.5950   23.6040 O.2   324  ILE324     -0.2867
     56  CB        18.1300    5.8870   22.8410 C.3   324  ILE324      0.0252
     57  CG1       18.9040    7.0800   22.3410 C.3   324  ILE324      0.0019
     58  CG2       18.1330    5.7910   24.3630 C.3   324  ILE324      0.0019
     59  CD1       18.4130    8.4570   22.7740 C.3   324  ILE324      0.0001
     60  N         18.4380    2.6210   32.8450 N.3   391  TYR391     -0.1227
     61  CA        18.1320    3.9540   33.1870 C.3   391  TYR391      0.1736
     62  C         16.9450    4.5320   32.4390 C.2   391  TYR391      0.2596
     63  O         16.0630    5.1560   33.0990 O.2   391  TYR391     -0.2718
     64  CB        19.3830    4.8050   32.9110 C.3   391  TYR391      0.0548
     65  CG        19.2730    6.3060   32.8340 C.ar  391  TYR391     -0.0200
     66  CD1       18.8600    6.9280   33.8760 C.ar  391  TYR391     -0.0009
     67  CD2       19.7490    7.0420   31.7180 C.ar  391  TYR391     -0.0009
     68  CE1       18.7990    8.4350   33.9400 C.ar  391  TYR391      0.0417
     69  CE2       19.6420    8.3860   31.7000 C.ar  391  TYR391      0.0417
     70  CZ        19.0990    9.1080   32.7890 C.ar  391  TYR391      0.1957
     71  OH        19.0860   10.5240   32.6570 O.3   391  TYR391     -0.2866
     72  N         16.8840    4.4440   31.1420 N.am  392  THR392     -0.1953
     73  CA        15.8770    5.0460   30.3480 C.3   392  THR392      0.1897
     74  C         14.5170    4.3320   30.3900 C.2   392  THR392      0.2313
     75  O         13.4910    4.8620   29.8700 O.2   392  THR392     -0.2863
     76  CB        16.2690    5.2340   28.8960 C.3   392  THR392      0.1794
     77  OG1       16.3730    3.9830   28.2200 O.3   392  THR392     -0.2208
     78  CG2       17.5600    6.0840   28.7310 C.3   392  THR392      0.0378
     79  N         14.2860    8.4620   34.9220 N.3   434  PHE434     -0.1241
     80  CA        14.7440    9.1610   33.7650 C.3   434  PHE434      0.1605
     81  C         14.0010   10.4940   33.6390 C.2   434  PHE434      0.2264
     82  O         12.7980   10.5150   33.2640 O.2   434  PHE434     -0.2867
     83  CB        14.5480    8.2820   32.5280 C.3   434  PHE434      0.0534
     84  CG        15.0880    8.8230   31.2200 C.ar  434  PHE434     -0.0203
     85  CD1       16.1760    9.6920   31.1140 C.ar  434  PHE434     -0.0042
     86  CD2       14.5340    8.3820   30.0650 C.ar  434  PHE434     -0.0042
     87  CE1       16.7020   10.0790   29.8500 C.ar  434  PHE434     -0.0003
     88  CE2       15.0400    8.7420   28.8050 C.ar  434  PHE434     -0.0003
     89  CZ        16.1530    9.6050   28.7090 C.ar  434  PHE434     -0.0000
     90  N         13.8110   13.0040   31.6610 N.3   436  LEU436     -0.1245
     91  CA        13.3370   13.5460   30.3730 C.3   436  LEU436      0.1561
     92  C         11.9310   13.0220   30.0530 C.2   436  LEU436      0.2260
     93  O         11.2490   13.5930   29.2140 O.2   436  LEU436     -0.2867
     94  CB        14.2730   13.2140   29.1860 C.3   436  LEU436      0.0270
     95  CG        15.5110   14.0700   28.9800 C.3   436  LEU436      0.0019
     96  CD1       16.4210   13.8510   30.1190 C.3   436  LEU436      0.0001
     97  CD2       16.1880   13.4540   27.7650 C.3   436  LEU436      0.0001
@<TRIPOS>BOND
     1    52    53    1
     2    47    46    2
     3    53    54    1
     4    53    56    1
     5    45    46    1
     6    45    44    1
     7    45    48    1
     8    57    59    1
     9    57    56    1
    10    54    55    2
    11    48    49    2
    12    56    58    1
    13     2     5    1
    14     2     3    1
    15     2     1    1
    16     5     6    1
    17     3     4    2
    18    49    50    1
    19    51    50    1
    20     6     7    1
    21     7     8    1
    22     8     9    2
    23    10     9    1
    24     9    11    1
    25    97    95    1
    26    12    13    1
    27    77    76    1
    28    18    17    1
    29    15    14    2
    30    43    41   am
    31    17    16    1
    32    17    19    1
    33    16    13    1
    34    89    88   ar
    35    89    87   ar
    36    78    76    1
    37    88    86   ar
    38    13    14    1
    39    76    73    1
    40    95    94    1
    41    95    96    1
    42    94    91    1
    43    93    92    2
    44    87    85   ar
    45    41    42    2
    46    41    40    1
    47    75    74    2
    48    92    91    1
    49    86    84   ar
    50    73    74    1
    51    73    72    1
    52    91    90    1
    53    40    39    1
    54    39    36    1
    55    85    84   ar
    56    72    62   am
    57    84    83    1
    58    27    25    1
    59    69    67   ar
    60    69    70   ar
    61    36    37    1
    62    36    35    1
    63    67    65   ar
    64    37    38    2
    65    25    24    1
    66    20    21    1
    67    62    63    2
    68    62    61    1
    69    83    80    1
    70    71    70    1
    71    70    68   ar
    72    65    64    1
    73    65    66   ar
    74    60    61    1
    75    64    61    1
    76    23    22    2
    77    26    24    1
    78    82    81    2
    79    24    21    1
    80    21    22    1
    81    81    80    1
    82    80    79    1
    83    66    68   ar
    84    22    28   am
    85    31    30    2
    86    30    29    1
    87    28    29    1
    88    28    34    1
    89    29    32    1
    90    34    33    1
    91    32    33    1
