@<TRIPOS>MOLECULE
tmp/4zabA02.pdb
 123 114 0 0 0
SMALL
GASTEIGER

@<TRIPOS>ATOM
      1  N         23.4430   15.5060   23.6170 N.3   170  ARG170     -0.1245
      2  CA        23.1290   16.6930   22.8490 C.3   170  ARG170      0.1563
      3  C         23.9850   17.8690   23.2460 C.2   170  ARG170      0.2260
      4  O         24.3790   18.0210   24.4100 O.2   170  ARG170     -0.2867
      5  CB        21.6370   17.0310   23.0010 C.3   170  ARG170      0.0307
      6  CG        21.2360   17.6180   24.3520 C.3   170  ARG170      0.0489
      7  CD        19.7580   17.8400   24.4030 C.3   170  ARG170      0.2205
      8  NE        19.4280   18.6190   25.6070 N.pl3 170  ARG170     -0.0865
      9  CZ        18.3130   18.5400   26.2980 C.cat 170  ARG170      0.5346
     10  NH1       17.4730   17.5220   26.0860 N.pl3 170  ARG170      0.1354
     11  NH2       18.0830   19.4230   27.2450 N.pl3 170  ARG170      0.1354
     12  N         23.8780   18.5530   27.6990 N.3   182  LEU182     -0.1245
     13  CA        23.4880   17.6540   28.7970 C.3   182  LEU182      0.1561
     14  C         24.5490   16.7290   29.1550 C.2   182  LEU182      0.2260
     15  O         25.0050   15.9130   28.3360 O.2   182  LEU182     -0.2867
     16  CB        22.3190   16.7710   28.4480 C.3   182  LEU182      0.0270
     17  CG        21.0550   17.4750   28.6260 C.3   182  LEU182      0.0019
     18  CD1       19.9260   16.3650   28.3330 C.3   182  LEU182      0.0001
     19  CD2       20.7100   18.2210   29.8970 C.3   182  LEU182      0.0001
     20  N         24.6820   14.2990   32.4000 N.3   184  ILE184     -0.1245
     21  CA        23.8320   13.8950   33.5240 C.3   184  ILE184      0.1561
     22  C         24.1660   12.4900   33.9570 C.2   184  ILE184      0.2260
     23  O         24.5050   11.6030   33.1510 O.2   184  ILE184     -0.2867
     24  CB        22.3160   14.0770   33.1890 C.3   184  ILE184      0.0252
     25  CG1       21.8650   13.1840   32.0140 C.3   184  ILE184      0.0019
     26  CG2       22.0280   15.5540   32.9640 C.3   184  ILE184      0.0019
     27  CD1       20.3370   13.3370   31.7380 C.3   184  ILE184      0.0001
     28  N         25.3620    8.7210   33.0190 N.3   187  GLN187     -0.1245
     29  CA        25.9980    8.5630   31.7000 C.3   187  GLN187      0.1566
     30  C         27.5300    8.5960   31.8170 C.2   187  GLN187      0.2260
     31  O         28.0940    9.2710   32.7200 O.2   187  GLN187     -0.2867
     32  CB        25.4470    9.6460   30.8030 C.3   187  GLN187      0.0367
     33  CG        23.9430    9.5870   30.5890 C.3   187  GLN187      0.0905
     34  CD        23.5240    8.3710   29.8780 C.2   187  GLN187      0.2608
     35  OE1       23.5510    7.2380   30.3440 O.2   187  GLN187     -0.2717
     36  NE2       23.0900    8.5990   28.5670 N.am  187  GLN187     -0.0878
     37  N         14.8360   21.5180   24.4750 N.3   277  PHE277     -0.1241
     38  CA        15.0060   20.8060   23.2140 C.3   277  PHE277      0.1605
     39  C         13.8670   19.8550   22.9480 C.2   277  PHE277      0.2264
     40  O         13.3600   19.2390   23.8920 O.2   277  PHE277     -0.2867
     41  CB        16.3160   20.0240   23.3320 C.3   277  PHE277      0.0534
     42  CG        16.6760   19.3090   22.0290 C.ar  277  PHE277     -0.0203
     43  CD1       16.8570   20.0270   20.8430 C.ar  277  PHE277     -0.0042
     44  CD2       16.9320   17.9840   22.0880 C.ar  277  PHE277     -0.0042
     45  CE1       17.2530   19.4020   19.6510 C.ar  277  PHE277     -0.0003
     46  CE2       17.3880   17.3290   20.8440 C.ar  277  PHE277     -0.0003
     47  CZ        17.5500   18.0850   19.6690 C.ar  277  PHE277     -0.0000
     48  N         12.5410   16.5900   22.3710 N.3   279  GLU279     -0.1231
     49  CA        13.1750   15.4020   22.8810 C.3   279  GLU279      0.1699
     50  C         12.4910   14.0920   22.3960 C.2   279  GLU279      0.2595
     51  O         11.4280   14.0560   21.8020 O.2   279  GLU279     -0.2718
     52  CB        13.3180   15.4490   24.4380 C.3   279  GLU279      0.0402
     53  CG        14.1480   16.5920   25.1040 C.3   279  GLU279      0.1161
     54  CD        14.0280   16.6260   26.5680 C.2   279  GLU279      0.3649
     55  OE1       13.1070   15.9930   27.2790 O.co2 279  GLU279     -0.2457
     56  OE2       14.8380   17.4290   27.2620 O.co2 279  GLU279     -0.2457
     57  N         13.2040   12.9400   22.7130 N.am  280  MET280     -0.1934
     58  CA        12.9100   11.6020   22.2470 C.3   280  MET280      0.1821
     59  C         11.4680   11.1650   22.5600 C.2   280  MET280      0.2332
     60  O         10.8930   10.2800   21.9400 O.2   280  MET280     -0.2860
     61  CB        13.8540   10.6130   22.8380 C.2   280  MET280      0.0096
     62  CG        13.8290   10.3860   24.3710 C.2   280  MET280      0.0285
     63  SD        15.0130    9.2230   24.9860 S.3   280  MET280     -0.1125
     64  CE        14.3130    7.6810   24.3220 C.3   280  MET280      0.0742
     65  N         14.7080   14.9380   16.0770 N.3   313  CYS313     -0.1235
     66  CA        14.0580   13.9900   16.9760 C.3   313  CYS313      0.1677
     67  C         12.7540   14.4520   17.5710 C.2   313  CYS313      0.2270
     68  O         12.4870   15.6450   17.6800 O.2   313  CYS313     -0.2867
     69  CB        14.9740   13.5280   18.0420 C.3   313  CYS313      0.0956
     70  SG        15.7360   14.8730   19.0210 S.3   313  CYS313     -0.0801
     71  N         16.4370    8.4120   18.0910 N.3   320  THR320     -0.1274
     72  CA        16.2300    8.2830   19.5480 C.3   320  THR320      0.1548
     73  C         15.4240    7.0870   19.8440 C.3   320  THR320      0.2036
     74  O         15.3320    6.7050   21.0900 O.3   320  THR320     -0.2187
     75  CB        15.6890    9.5670   20.1670 C.3   320  THR320      0.1721
     76  OG1       14.3400    9.7770   19.8300 O.3   320  THR320     -0.2215
     77  CG2       16.5580   10.7360   19.9570 C.3   320  THR320      0.0371
     78  N         18.4600    4.5040   20.6710 N.3   324  ILE324     -0.1245
     79  CA        18.4910    4.5350   22.1210 C.3   324  ILE324      0.1561
     80  C         17.7410    3.3370   22.6690 C.2   324  ILE324      0.2260
     81  O         18.2440    2.5730   23.5330 O.2   324  ILE324     -0.2867
     82  CB        17.9540    5.8700   22.7630 C.3   324  ILE324      0.0252
     83  CG1       18.7680    7.0510   22.2700 C.3   324  ILE324      0.0019
     84  CG2       18.0050    5.7710   24.2510 C.3   324  ILE324      0.0019
     85  CD1       18.2950    8.3940   22.6980 C.3   324  ILE324      0.0001
     86  N         18.3910    2.5910   32.8170 N.3   391  TYR391     -0.1227
     87  CA        18.1300    3.9630   33.1460 C.3   391  TYR391      0.1736
     88  C         16.9060    4.5380   32.4280 C.2   391  TYR391      0.2596
     89  O         16.0430    5.1430   33.0260 O.2   391  TYR391     -0.2718
     90  CB        19.3920    4.8270   32.8660 C.3   391  TYR391      0.0548
     91  CG        19.2200    6.2990   32.8980 C.ar  391  TYR391     -0.0200
     92  CD1       18.7360    7.0020   33.9740 C.ar  391  TYR391     -0.0009
     93  CD2       19.6720    7.0610   31.7810 C.ar  391  TYR391     -0.0009
     94  CE1       18.6520    8.3560   33.9710 C.ar  391  TYR391      0.0417
     95  CE2       19.5970    8.3940   31.8050 C.ar  391  TYR391      0.0417
     96  CZ        19.0770    9.0890   32.8980 C.ar  391  TYR391      0.1957
     97  OH        19.0110   10.4420   32.8440 O.3   391  TYR391     -0.2866
     98  N         16.8750    4.4280   31.0980 N.am  392  THR392     -0.1953
     99  CA        15.8300    5.0360   30.2860 C.3   392  THR392      0.1897
    100  C         14.4820    4.3280   30.3370 C.2   392  THR392      0.2313
    101  O         13.5020    4.8410   29.7820 O.2   392  THR392     -0.2863
    102  CB        16.2640    5.2320   28.8080 C.3   392  THR392      0.1794
    103  OG1       16.3330    3.9810   28.1770 O.3   392  THR392     -0.2208
    104  CG2       17.5920    6.0430   28.6990 C.3   392  THR392      0.0378
    105  N         14.2570    8.3960   34.9840 N.3   434  PHE434     -0.1241
    106  CA        14.7180    9.1200   33.7790 C.3   434  PHE434      0.1605
    107  C         13.9820   10.4380   33.7100 C.2   434  PHE434      0.2264
    108  O         12.7860   10.4550   33.3140 O.2   434  PHE434     -0.2867
    109  CB        14.4410    8.2400   32.5710 C.3   434  PHE434      0.0534
    110  CG        15.0100    8.7490   31.2510 C.ar  434  PHE434     -0.0203
    111  CD1       16.1130    9.5710   31.1370 C.ar  434  PHE434     -0.0042
    112  CD2       14.4550    8.3160   30.0560 C.ar  434  PHE434     -0.0042
    113  CE1       16.6390    9.9690   29.9610 C.ar  434  PHE434     -0.0003
    114  CE2       14.9800    8.6790   28.8480 C.ar  434  PHE434     -0.0003
    115  CZ        16.0790    9.5230   28.7750 C.ar  434  PHE434     -0.0000
    116  N         13.8100   12.9310   31.7260 N.3   436  LEU436     -0.1245
    117  CA        13.3730   13.4500   30.4270 C.3   436  LEU436      0.1561
    118  C         11.9460   12.9790   30.0850 C.2   436  LEU436      0.2260
    119  O         11.2940   13.5900   29.2670 O.2   436  LEU436     -0.2867
    120  CB        14.3630   13.0880   29.3410 C.3   436  LEU436      0.0270
    121  CG        15.6050   13.9540   29.2260 C.3   436  LEU436      0.0019
    122  CD1       16.5940   13.5380   30.3230 C.3   436  LEU436      0.0001
    123  CD2       16.2010   13.5370   28.0320 C.3   436  LEU436      0.0001
@<TRIPOS>BOND
     1    65    66    1
     2    66    67    1
     3    66    69    1
     4    67    68    2
     5    69    70    1
     6    71    72    1
     7    72    73    1
     8    72    75    1
     9    45    47   ar
    10    45    43   ar
    11    47    46   ar
    12    76    75    1
    13    73    74    1
    14    77    75    1
    15    78    79    1
    16    43    42   ar
    17    46    44   ar
    18    51    50    2
    19    60    59    2
    20    42    44   ar
    21    42    41    1
    22    79    80    1
    23    79    82    1
    24    58    59    1
    25    58    57    1
    26    58    61    1
    27    83    85    1
    28    83    82    1
    29    48    49    1
    30    50    57   am
    31    50    49    1
    32    80    81    2
    33    82    84    1
    34    61    62    2
    35     2     5    1
    36     2     3    1
    37     2     1    1
    38    49    52    1
    39    39    38    1
    40    39    40    2
    41     5     6    1
    42    38    41    1
    43    38    37    1
    44     3     4    2
    45    64    63    1
    46     6     7    1
    47    62    63    1
    48     7     8    1
    49    52    53    1
    50    53    54    1
    51     8     9    2
    52    10     9    1
    53     9    11    1
    54    54    56   ar
    55    54    55   ar
    56    12    13    1
    57   123   121    1
    58   103   102    1
    59    18    17    1
    60    15    14    2
    61    16    17    1
    62    16    13    1
    63    36    34   am
    64    17    19    1
    65   104   102    1
    66   115   114   ar
    67   115   113   ar
    68    13    14    1
    69   102    99    1
    70   114   112   ar
    71   121   120    1
    72   121   122    1
    73   119   118    2
    74   120   117    1
    75   101   100    2
    76    34    35    2
    77    34    33    1
    78   113   111   ar
    79   112   110   ar
    80   118   117    1
    81    99   100    1
    82    99    98    1
    83   117   116    1
    84    33    32    1
    85    32    29    1
    86    98    88   am
    87   111   110   ar
    88   110   109    1
    89    29    30    1
    90    29    28    1
    91    27    25    1
    92    93    95   ar
    93    93    91   ar
    94    95    96   ar
    95    30    31    2
    96    25    24    1
    97    20    21    1
    98    88    89    2
    99    88    87    1
   100   109   106    1
   101    86    87    1
   102    97    96    1
   103    90    91    1
   104    90    87    1
   105    96    94   ar
   106    91    92   ar
   107    26    24    1
   108    23    22    2
   109    24    21    1
   110   108   107    2
   111    21    22    1
   112   107   106    1
   113   106   105    1
   114    94    92   ar
