@<TRIPOS>MOLECULE
tmp/4zaeA00.pdb
 184 181 0 0 0
SMALL
GASTEIGER

@<TRIPOS>ATOM
      1  N         -3.6910  -42.7920   -9.4940 N.3    41  HIS41      -0.1241
      2  CA        -4.3800  -42.7180  -10.7890 C.3    41  HIS41       0.1621
      3  C         -3.7990  -41.6230  -11.7230 C.2    41  HIS41       0.2264
      4  O         -4.0210  -41.6830  -12.9250 O.2    41  HIS41      -0.2867
      5  CB        -5.8950  -42.5730  -10.6040 C.3    41  HIS41       0.0745
      6  CG        -6.3970  -41.1950  -10.3610 C.ar   41  HIS41       0.0817
      7  ND1       -6.7630  -40.7890   -9.1010 N.ar   41  HIS41      -0.2268
      8  CD2       -6.7180  -40.2180  -11.2400 C.ar   41  HIS41       0.1154
      9  CE1       -7.1580  -39.5370   -9.2200 C.ar   41  HIS41       0.1986
     10  NE2       -7.2150  -39.1760  -10.5050 N.ar   41  HIS41      -0.2212
     11  N         -9.5820  -51.3720   -8.9630 N.3    84  ASN84      -0.1240
     12  CA       -10.2070  -50.1100   -8.6370 C.3    84  ASN84       0.1653
     13  C         -9.1670  -48.9900   -8.7880 C.2    84  ASN84       0.2266
     14  O         -8.1890  -48.9500   -8.0460 O.2    84  ASN84      -0.2867
     15  CB       -10.7860  -50.1290   -7.2080 C.3    84  ASN84       0.1155
     16  CG       -11.5980  -48.8930   -6.8420 C.2    84  ASN84       0.2627
     17  OD1      -11.5190  -47.8220   -7.4680 O.2    84  ASN84      -0.2716
     18  ND2      -12.3910  -49.0060   -5.7970 N.am   84  ASN84      -0.0877
     19  N         -9.3900  -45.9200   -7.9570 N.3    86  TYR86      -0.1241
     20  CA        -9.4480  -44.9480   -6.8670 C.3    86  TYR86       0.1605
     21  C         -9.3190  -45.5340   -5.4240 C.2    86  TYR86       0.2264
     22  O         -9.5330  -44.7790   -4.4690 O.2    86  TYR86      -0.2867
     23  CB       -10.7460  -44.1590   -7.0410 C.3    86  TYR86       0.0534
     24  CG       -10.8640  -43.5500   -8.4240 C.ar   86  TYR86      -0.0201
     25  CD1      -10.1280  -42.4150   -8.7760 C.ar   86  TYR86      -0.0009
     26  CD2      -11.6330  -44.1580   -9.4120 C.ar   86  TYR86      -0.0009
     27  CE1      -10.1830  -41.8890  -10.0650 C.ar   86  TYR86       0.0417
     28  CE2      -11.7080  -43.6280  -10.7000 C.ar   86  TYR86       0.0417
     29  CZ       -10.9810  -42.4920  -11.0230 C.ar   86  TYR86       0.1957
     30  OH       -11.0670  -41.9800  -12.2950 O.3    86  TYR86      -0.2866
     31  N         -9.8220  -27.5060  -12.3940 N.3   132  ARG132     -0.1245
     32  CA       -10.8960  -26.7170  -13.0250 C.3   132  ARG132      0.1563
     33  C        -11.5420  -25.7500  -11.9940 C.2   132  ARG132      0.2260
     34  O        -11.7070  -26.1210  -10.8400 O.2   132  ARG132     -0.2867
     35  CB       -11.9490  -27.6240  -13.6480 C.3   132  ARG132      0.0307
     36  CG       -11.4550  -28.4650  -14.8280 C.3   132  ARG132      0.0489
     37  CD       -12.6250  -29.2500  -15.3680 C.3   132  ARG132      0.2205
     38  NE       -12.2330  -30.2460  -16.3630 N.pl3 132  ARG132     -0.0865
     39  CZ       -12.3260  -30.1240  -17.6820 C.cat 132  ARG132      0.5346
     40  NH1      -12.7770  -28.9930  -18.2290 N.pl3 132  ARG132      0.1354
     41  NH2      -11.9710  -31.1310  -18.4700 N.pl3 132  ARG132      0.1354
     42  N        -17.2090  -26.6810  -12.8190 N.3   135  HIS135     -0.1226
     43  CA       -17.4450  -28.0450  -13.3020 C.3   135  HIS135      0.1752
     44  C        -17.4750  -27.9990  -14.8150 C.2   135  HIS135      0.2595
     45  O        -18.2290  -27.2240  -15.4010 O.2   135  HIS135     -0.2718
     46  CB       -18.7610  -28.6280  -12.7780 C.3   135  HIS135      0.0759
     47  CG       -19.0340  -30.0200  -13.2820 C.ar  135  HIS135      0.0818
     48  ND1      -20.1980  -30.3240  -13.9770 N.ar  135  HIS135     -0.2268
     49  CD2      -18.2360  -31.1200  -13.2750 C.ar  135  HIS135      0.1154
     50  CE1      -20.0940  -31.6010  -14.3170 C.ar  135  HIS135      0.1986
     51  NE2      -18.9280  -32.1160  -13.9280 N.ar  135  HIS135     -0.2212
     52  N        -16.5830  -28.7560  -15.4470 N.am  136  LYS136     -0.1980
     53  CA       -16.4230  -28.7950  -16.9110 C.3   136  LYS136      0.1596
     54  C        -15.9010  -27.4750  -17.4930 C.2   136  LYS136      0.2287
     55  O        -15.9730  -27.2800  -18.6950 O.2   136  LYS136     -0.2864
     56  CB       -17.7100  -29.2470  -17.6480 C.3   136  LYS136      0.0298
     57  CG       -18.1170  -30.6810  -17.3520 C.3   136  LYS136      0.0038
     58  CD       -19.3360  -31.0900  -18.1740 C.3   136  LYS136      0.0206
     59  CE       -19.5390  -32.5880  -18.1910 C.3   136  LYS136      0.1093
     60  NZ       -20.6910  -32.9820  -19.0450 N.3   136  LYS136     -0.1314
     61  N        -20.9870  -44.8840   -6.0140 N.3   162  PHE162     -0.1227
     62  CA       -19.7040  -45.5870   -5.9320 C.3   162  PHE162      0.1736
     63  C        -19.3220  -45.8900   -4.4900 C.2   162  PHE162      0.2596
     64  O        -19.8250  -45.2540   -3.5700 O.2   162  PHE162     -0.2718
     65  CB       -18.6040  -44.7900   -6.6280 C.3   162  PHE162      0.0547
     66  CG       -18.9230  -44.5300   -8.0740 C.ar  162  PHE162     -0.0202
     67  CD1      -18.8590  -45.5530   -9.0100 C.ar  162  PHE162     -0.0042
     68  CD2      -19.3410  -43.2750   -8.4970 C.ar  162  PHE162     -0.0042
     69  CE1      -19.1860  -45.3230  -10.3380 C.ar  162  PHE162     -0.0003
     70  CE2      -19.6810  -43.0520   -9.8290 C.ar  162  PHE162     -0.0003
     71  CZ       -19.6010  -44.0780  -10.7390 C.ar  162  PHE162     -0.0000
     72  N        -18.4470  -46.8850   -4.2940 N.am  163  THR163     -0.1953
     73  CA       -18.0430  -47.3060   -2.9580 C.3   163  THR163      0.1897
     74  C        -17.0140  -46.3670   -2.3560 C.2   163  THR163      0.2313
     75  O        -16.1060  -45.8950   -3.0540 O.2   163  THR163     -0.2863
     76  CB       -17.4880  -48.7380   -2.9790 C.3   163  THR163      0.1794
     77  OG1      -18.3330  -49.5630   -3.7730 O.3   163  THR163     -0.2208
     78  CG2      -17.3670  -49.3380   -1.5860 C.3   163  THR163      0.0378
     79  N        -15.4470  -26.7910   -3.9110 N.3   179  ASP179     -0.1225
     80  CA       -14.9240  -28.1550   -3.9460 C.3   179  ASP179      0.1805
     81  C        -13.6370  -28.2210   -4.7500 C.2   179  ASP179      0.2598
     82  O        -13.3240  -27.3140   -5.5030 O.2   179  ASP179     -0.2718
     83  CB       -15.9880  -29.0290   -4.6630 C.3   179  ASP179      0.1424
     84  CG       -15.8950  -30.5370   -4.5960 C.2   179  ASP179      0.3668
     85  OD1      -15.0530  -31.0520   -3.8420 O.co2 179  ASP179     -0.2456
     86  OD2      -16.6570  -31.2000   -5.3170 O.co2 179  ASP179     -0.2456
     87  N        -12.9200  -29.3290   -4.6130 N.am  180  SER180     -0.1938
     88  CA       -11.8080  -29.6870   -5.4950 C.3   180  SER180      0.2055
     89  C        -12.4650  -30.1500   -6.8070 C.2   180  SER180      0.2643
     90  O        -13.6800  -30.3300   -6.8400 O.2   180  SER180     -0.2714
     91  CB       -10.9850  -30.8270   -4.8910 C.3   180  SER180      0.2130
     92  OG       -10.2400  -30.3460   -3.7960 O.3   180  SER180     -0.2179
     93  N        -11.6930  -30.2800   -7.8940 N.am  181  CYS181     -0.1953
     94  CA       -12.2180  -30.6860   -9.1970 C.3   181  CYS181      0.1843
     95  C        -11.1170  -31.3680  -10.0070 C.2   181  CYS181      0.2625
     96  O         -9.9810  -31.4510   -9.5410 O.2   181  CYS181     -0.2714
     97  CB       -12.7910  -29.4790   -9.9560 C.3   181  CYS181      0.0997
     98  SG       -13.9610  -29.9100  -11.2930 S.3   181  CYS181     -0.0797
     99  N        -11.4570  -31.8550  -11.2100 N.am  182  GLN182     -0.1977
    100  CA       -10.4790  -32.4920  -12.1140 C.3   182  GLN182      0.1601
    101  C         -9.2770  -31.5670  -12.2850 C.2   182  GLN182      0.2287
    102  O         -9.4320  -30.3530  -12.4360 O.2   182  GLN182     -0.2864
    103  CB       -11.1080  -32.8260  -13.4720 C.3   182  GLN182      0.0394
    104  CG       -10.2330  -33.7040  -14.3920 C.3   182  GLN182      0.0908
    105  CD       -10.8390  -33.8950  -15.7570 C.2   182  GLN182      0.2608
    106  OE1      -11.1830  -32.9270  -16.4290 O.2   182  GLN182     -0.2717
    107  NE2      -10.9170  -35.1390  -16.2460 N.am  182  GLN182     -0.0878
    108  N         -6.6000  -33.4940   -8.4430 N.3   185  SER185     -0.1217
    109  CA        -6.2530  -34.8310   -7.9460 C.3   185  SER185      0.1889
    110  C         -4.7650  -34.9700   -7.7080 C.2   185  SER185      0.2288
    111  O         -3.9720  -34.4910   -8.5060 O.2   185  SER185     -0.2866
    112  CB        -6.6820  -35.8850   -8.9530 C.3   185  SER185      0.2089
    113  OG        -8.0970  -35.9020   -9.0640 O.3   185  SER185     -0.2183
    114  N         -5.9390  -35.3870   -2.4780 N.3   203  ILE203     -0.1231
    115  CA        -7.1300  -35.0870   -3.3080 C.3   203  ILE203      0.1692
    116  C         -7.2880  -36.2740   -4.2630 C.2   203  ILE203      0.2593
    117  O         -6.3400  -36.6460   -4.9240 O.2   203  ILE203     -0.2718
    118  CB        -6.9980  -33.7320   -4.0550 C.3   203  ILE203      0.0266
    119  CG1       -6.7050  -32.5390   -3.0850 C.3   203  ILE203      0.0019
    120  CG2       -8.2990  -33.4920   -4.8980 C.3   203  ILE203      0.0020
    121  CD1       -6.4010  -31.2080   -3.7250 C.3   203  ILE203      0.0001
    122  N         -8.4500  -36.9390   -4.2570 N.am  204  SER204     -0.1938
    123  CA        -8.6090  -38.1450   -5.0490 C.3   204  SER204      0.2055
    124  C         -9.6110  -38.0140   -6.1700 C.2   204  SER204      0.2643
    125  O         -9.1830  -37.9660   -7.3140 O.2   204  SER204     -0.2714
    126  CB        -8.9390  -39.3370   -4.1640 C.3   204  SER204      0.2130
    127  OG        -8.8750  -40.5290   -4.9280 O.3   204  SER204     -0.2179
    128  N        -10.9240  -37.9790   -5.8780 N.am  205  TRP205     -0.1959
    129  CA       -11.9080  -37.9440   -6.9610 C.3   205  TRP205      0.1771
    130  C        -13.2300  -37.3820   -6.5430 C.2   205  TRP205      0.2620
    131  O        -13.4390  -37.0360   -5.3920 O.2   205  TRP205     -0.2715
    132  CB       -12.1140  -39.3710   -7.5140 C.3   205  TRP205      0.0590
    133  CG       -12.6830  -40.3200   -6.4980 C.ar  205  TRP205      0.0006
    134  CD1      -11.9820  -41.0450   -5.5880 C.ar  205  TRP205      0.0946
    135  CD2      -14.0620  -40.6680   -6.3110 C.ar  205  TRP205      0.0152
    136  NE1      -12.8280  -41.8420   -4.8630 N.ar  205  TRP205     -0.2442
    137  CE2      -14.1120  -41.6340   -5.2850 C.ar  205  TRP205      0.0810
    138  CE3      -15.2570  -40.3150   -6.9580 C.ar  205  TRP205      0.0012
    139  CZ2      -15.3100  -42.2220   -4.8670 C.ar  205  TRP205      0.0191
    140  CZ3      -16.4460  -40.8640   -6.5090 C.ar  205  TRP205      0.0001
    141  CH2      -16.4640  -41.8000   -5.4690 C.ar  205  TRP205      0.0015
    142  N        -14.1030  -37.2380   -7.5320 N.am  206  GLY206     -0.1940
    143  CA       -15.4840  -36.8280   -7.3470 C.3   206  GLY206      0.2014
    144  C        -16.2450  -36.9720   -8.6470 C.2   206  GLY206      0.2638
    145  O        -15.7360  -37.5490   -9.6170 O.2   206  GLY206     -0.2714
    146  N        -17.4610  -36.4570   -8.6720 N.am  207  GLU207     -0.1977
    147  CA       -18.3440  -36.5310   -9.8430 C.3   207  GLU207      0.1602
    148  C        -18.6030  -35.0990  -10.2950 C.2   207  GLU207      0.2287
    149  O        -17.6390  -34.4770  -10.7310 O.2   207  GLU207     -0.2864
    150  CB       -19.5910  -37.3300   -9.5030 C.3   207  GLU207      0.0415
    151  CG       -19.2660  -38.7960   -9.2670 C.3   207  GLU207      0.1163
    152  CD       -20.3530  -39.5600   -8.5450 C.2   207  GLU207      0.3649
    153  OE1      -20.2820  -39.6470   -7.2990 O.co2 207  GLU207     -0.2457
    154  OE2      -21.2970  -40.0340   -9.2150 O.co2 207  GLU207     -0.2457
    155  N        -18.3180  -31.6400   -9.8590 N.3   209  CYS209     -0.1235
    156  CA       -17.5960  -30.7210   -8.9660 C.3   209  CYS209      0.1677
    157  C        -18.5100  -29.6510   -8.4250 C.2   209  CYS209      0.2270
    158  O        -19.1690  -28.9650   -9.1960 O.2   209  CYS209     -0.2867
    159  CB       -16.4170  -30.0660   -9.6750 C.3   209  CYS209      0.0956
    160  SG       -15.2820  -31.2190  -10.4670 S.3   209  CYS209     -0.0801
    161  N        -16.2720  -33.9180   -2.3550 N.3   216  GLY216     -0.1210
    162  CA       -14.9740  -34.3380   -2.8310 C.3   216  GLY216      0.1956
    163  C        -14.5360  -35.5330   -2.0090 C.2   216  GLY216      0.2612
    164  O        -14.8450  -35.5980   -0.8150 O.2   216  GLY216     -0.2717
    165  N        -13.8870  -36.5200   -2.6520 N.am  217  ILE217     -0.1965
    166  CA       -13.3950  -37.7350   -2.0000 C.3   217  ILE217      0.1727
    167  C        -11.8670  -37.6760   -1.9570 C.2   217  ILE217      0.2616
    168  O        -11.2180  -37.3100   -2.9560 O.2   217  ILE217     -0.2715
    169  CB       -13.8900  -39.0160   -2.7040 C.3   217  ILE217      0.0290
    170  CG1      -15.3690  -38.8790   -3.1580 C.3   217  ILE217      0.0022
    171  CG2      -13.6990  -40.2220   -1.8040 C.3   217  ILE217      0.0023
    172  CD1      -16.3890  -38.7200   -2.0870 C.3   217  ILE217      0.0001
    173  N        -11.3160  -38.0080   -0.7860 N.am  218  TYR218     -0.1974
    174  CA        -9.9160  -37.8480   -0.4510 C.3   218  TYR218      0.1639
    175  C         -9.3430  -39.1000    0.1570 C.2   218  TYR218      0.2290
    176  O        -10.0450  -39.8040    0.8640 O.2   218  TYR218     -0.2864
    177  CB        -9.7740  -36.7020    0.5910 C.3   218  TYR218      0.0560
    178  CG       -10.2570  -35.3610    0.1110 C.ar  218  TYR218     -0.0198
    179  CD1      -11.6000  -35.0120    0.1860 C.ar  218  TYR218     -0.0009
    180  CD2       -9.3720  -34.4340   -0.4260 C.ar  218  TYR218     -0.0009
    181  CE1      -12.0590  -33.8060   -0.3360 C.ar  218  TYR218      0.0417
    182  CE2       -9.8160  -33.2210   -0.9350 C.ar  218  TYR218      0.0417
    183  CZ       -11.1610  -32.9160   -0.9080 C.ar  218  TYR218      0.1957
    184  OH       -11.5570  -31.6960   -1.3860 O.3   218  TYR218     -0.2866
@<TRIPOS>BOND
     1    60    59    1
     2    55    54    2
     3    41    39    1
     4    40    39    1
     5    59    58    1
     6    58    57    1
     7    39    38    2
     8    56    57    1
     9    56    53    1
    10    54    53    1
    11    53    52    1
    12   106   105    2
    13    38    37    1
    14   107   105   am
    15   105   104    1
    16    52    44   am
    17    45    44    2
    18    37    36    1
    19    36    35    1
    20    44    43    1
    21   104   103    1
    22    50    48   ar
    23    50    51   ar
    24    48    47   ar
    25    51    49   ar
    26    35    32    1
    27   103   100    1
    28    43    42    1
    29    43    46    1
    30    47    49   ar
    31    47    46    1
    32    32    31    1
    33    32    33    1
    34     4     3    2
    35   102   101    2
    36    30    29    1
    37   101   100    1
    38   100    99    1
    39    33    34    2
    40     3     2    1
    41    98   160    1
    42    98    97    1
    43     8    10   ar
    44     8     6   ar
    45    99    95   am
    46    29    28   ar
    47    29    27   ar
    48     2     5    1
    49     2     1    1
    50    71    69   ar
    51    71    70   ar
    52   149   148    2
    53    28    26   ar
    54     5     6    1
    55    10     9   ar
    56   160   159    1
    57     6     7   ar
    58    69    67   ar
    59   148   147    1
    60    27    25   ar
    61    95    96    2
    62    95    94    1
    63    97    94    1
    64   155   156    1
    65   147   150    1
    66   147   146    1
    67    70    68   ar
    68   159   156    1
    69   145   144    2
    70   150   151    1
    71    26    24   ar
    72   151   152    1
    73     9     7   ar
    74   154   152   ar
    75    94    93    1
    76   158   157    2
    77   113   112    1
    78    67    66   ar
    79   156   157    1
    80    11    12    1
    81   112   109    1
    82    13    12    1
    83    13    14    2
    84    25    24   ar
    85   146   144   am
    86   144   143    1
    87    12    15    1
    88   152   153   ar
    89   111   110    2
    90    68    66   ar
    91   108   109    1
    92    24    23    1
    93    66    65    1
    94    19    20    1
    95   109   110    1
    96    93    89   am
    97   142   143    1
    98   142   130   am
    99   132   129    1
   100   132   133    1
   101    17    16    2
   102   125   124    2
   103    15    16    1
   104    23    20    1
   105   129   130    1
   106   129   128    1
   107   138   140   ar
   108   138   135   ar
   109    20    21    1
   110    16    18   am
   111    90    89    2
   112    89    88    1
   113    65    62    1
   114   130   131    2
   115   140   141   ar
   116   133   135   ar
   117   133   134   ar
   118   135   137   ar
   119   124   128   am
   120   124   123    1
   121    61    62    1
   122    62    63    1
   123   134   136   ar
   124    82    81    2
   125    88    91    1
   126    88    87    1
   127   141   139   ar
   128    21    22    2
   129    86    84   ar
   130   137   139   ar
   131   137   136   ar
   132   123   122    1
   133   123   126    1
   134   127   126    1
   135   117   116    2
   136   120   118    1
   137    91    92    1
   138    81    87   am
   139    81    80    1
   140    83    84    1
   141    83    80    1
   142    84    85   ar
   143    63    72   am
   144    63    64    2
   145    72    73    1
   146   116   122   am
   147   116   115    1
   148   118   115    1
   149   118   119    1
   150    80    79    1
   151    77    76    1
   152   121   119    1
   153   115   114    1
   154   170   169    1
   155   170   172    1
   156    75    74    2
   157    76    73    1
   158    76    78    1
   159    73    74    1
   160   168   167    2
   161   162   161    1
   162   162   163    1
   163   169   166    1
   164   169   171    1
   165   165   163   am
   166   165   166    1
   167   163   164    2
   168   166   167    1
   169   167   173   am
   170   184   183    1
   171   182   183   ar
   172   182   180   ar
   173   183   181   ar
   174   173   174    1
   175   174   175    1
   176   174   177    1
   177   180   178   ar
   178   181   179   ar
   179   178   179   ar
   180   178   177    1
   181   175   176    2
