@<TRIPOS>MOLECULE
tmp/4zahG00.pdb
 236 229 0 0 0
SMALL
GASTEIGER

@<TRIPOS>ATOM
      1  N       -175.3810  369.2150   38.1400 N.3     5  PHE5       -0.1241
      2  CA      -174.7420  369.0660   36.8410 C.3     5  PHE5        0.1605
      3  C       -175.1780  370.1570   35.8850 C.2     5  PHE5        0.2264
      4  O       -174.3910  370.6300   35.0600 O.2     5  PHE5       -0.2867
      5  CB      -175.0610  367.7140   36.2150 C.3     5  PHE5        0.0534
      6  CG      -174.7410  367.6460   34.7440 C.ar    5  PHE5       -0.0203
      7  CD1     -173.4290  367.6950   34.2940 C.ar    5  PHE5       -0.0042
      8  CD2     -175.7640  367.5410   33.8030 C.ar    5  PHE5       -0.0042
      9  CE1     -173.1570  367.6380   32.9450 C.ar    5  PHE5       -0.0003
     10  CE2     -175.4900  367.4890   32.4690 C.ar    5  PHE5       -0.0003
     11  CZ      -174.1900  367.5340   32.0350 C.ar    5  PHE5       -0.0000
     12  N       -190.2380  370.3380   20.6620 N.3    55  SER55      -0.1202
     13  CA      -189.0350  369.6480   21.1140 C.3    55  SER55       0.2020
     14  C       -188.1440  369.3770   19.9240 C.2    55  SER55       0.2619
     15  O       -188.6130  369.4320   18.7920 O.2    55  SER55      -0.2717
     16  CB      -189.4050  368.3440   21.8430 C.3    55  SER55       0.2103
     17  OG      -190.0490  367.4000   20.9930 O.3    55  SER55      -0.2182
     18  N       -186.8560  369.1310   20.1660 N.am   56  CYS56      -0.1955
     19  CA      -185.9690  368.7620   19.0710 C.3    56  CYS56       0.1843
     20  C       -186.4230  367.4440   18.4920 C.2    56  CYS56       0.2626
     21  O       -186.3380  367.2350   17.2910 O.2    56  CYS56      -0.2714
     22  CB      -184.5070  368.6510   19.5040 C.3    56  CYS56       0.0997
     23  SG      -183.3620  368.4350   18.0680 S.3    56  CYS56      -0.0797
     24  N       -186.9120  366.5660   19.3610 N.am   57  THR57      -0.1950
     25  CA      -187.4850  365.3040   18.9360 C.3    57  THR57       0.1897
     26  C       -188.5680  365.5170   17.8860 C.2    57  THR57       0.2313
     27  O       -188.5770  364.8580   16.8540 O.2    57  THR57      -0.2863
     28  CB      -188.0740  364.5300   20.1280 C.3    57  THR57       0.1794
     29  OG1     -187.0160  364.1790   21.0160 O.3    57  THR57      -0.2208
     30  CG2     -188.7110  363.2490   19.6700 C.3    57  THR57       0.0378
     31  N       -187.0900  366.5110   14.6010 N.3    60  LEU60      -0.1245
     32  CA      -186.5330  365.3420   13.9250 C.3    60  LEU60       0.1561
     33  C       -187.6320  364.5020   13.2780 C.2    60  LEU60       0.2260
     34  O       -187.4640  364.0130   12.1660 O.2    60  LEU60      -0.2867
     35  CB      -185.7030  364.4900   14.8700 C.3    60  LEU60       0.0270
     36  CG      -184.3230  365.0370   15.2160 C.3    60  LEU60       0.0019
     37  CD1     -183.8440  364.4290   16.5420 C.3    60  LEU60       0.0001
     38  CD2     -183.3490  364.7370   14.0910 C.3    60  LEU60       0.0001
     39  N       -175.7200  358.6410   20.2380 N.3    81  THR81      -0.1203
     40  CA      -176.6210  359.7830   20.1830 C.3    81  THR81       0.1994
     41  C       -177.8620  359.4970   21.0350 C.2    81  THR81       0.2618
     42  O       -178.0570  358.3830   21.5130 O.2    81  THR81      -0.2717
     43  CB      -177.0190  360.1230   18.7070 C.3    81  THR81       0.1784
     44  OG1     -177.8380  361.3010   18.6770 O.3    81  THR81      -0.2211
     45  CG2     -177.7760  358.9780   18.0600 C.3    81  THR81       0.0376
     46  N       -178.7310  360.4910   21.1640 N.am   82  PHE82      -0.1961
     47  CA      -179.9460  360.3720   21.9570 C.3    82  PHE82       0.1771
     48  C       -180.9970  359.5410   21.2110 C.2    82  PHE82       0.2619
     49  O       -181.0210  359.5440   19.9730 O.2    82  PHE82      -0.2715
     50  CB      -180.4770  361.7630   22.2610 C.3    82  PHE82       0.0574
     51  CG      -181.5530  361.7870   23.2810 C.ar   82  PHE82      -0.0200
     52  CD1     -181.2850  361.4010   24.5820 C.ar   82  PHE82      -0.0042
     53  CD2     -182.8160  362.2270   22.9650 C.ar   82  PHE82      -0.0042
     54  CE1     -182.2650  361.4370   25.5460 C.ar   82  PHE82      -0.0003
     55  CE2     -183.8030  362.2630   23.9210 C.ar   82  PHE82      -0.0003
     56  CZ      -183.5240  361.8680   25.2190 C.ar   82  PHE82      -0.0000
     57  N       -181.8610  358.8400   21.9490 N.am   83  VAL83      -0.1963
     58  CA      -182.8410  357.9290   21.3420 C.3    83  VAL83       0.1727
     59  C       -183.6630  358.5980   20.2460 C.2    83  VAL83       0.2617
     60  O       -184.0490  357.9410   19.2700 O.2    83  VAL83      -0.2715
     61  CB      -183.7840  357.3330   22.3940 C.3    83  VAL83       0.0290
     62  CG1     -183.0570  356.3110   23.2250 C.3    83  VAL83       0.0023
     63  CG2     -184.3660  358.4290   23.2690 C.3    83  VAL83       0.0023
     64  N       -183.9260  359.8950   20.4150 N.am   84  SER84      -0.1936
     65  CA      -184.7990  360.6310   19.5110 C.3    84  SER84       0.2055
     66  C       -184.2150  360.6870   18.1130 C.2    84  SER84       0.2643
     67  O       -184.9550  360.7800   17.1430 O.2    84  SER84      -0.2714
     68  CB      -185.0580  362.0420   20.0340 C.3    84  SER84       0.2130
     69  OG      -185.9250  361.9990   21.1490 O.3    84  SER84      -0.2179
     70  N       -182.8900  360.6950   18.0100 N.am   85  THR85      -0.1950
     71  CA      -182.2520  360.7390   16.7010 C.3    85  THR85       0.1897
     72  C       -182.7110  359.5450   15.8720 C.2    85  THR85       0.2313
     73  O       -182.9250  359.6460   14.6610 O.2    85  THR85      -0.2863
     74  CB      -180.7110  360.7130   16.7890 C.3    85  THR85       0.1794
     75  OG1     -180.2560  361.5970   17.8210 O.3    85  THR85      -0.2208
     76  CG2     -180.0890  361.1200   15.4480 C.3    85  THR85       0.0378
     77  N       -174.5640  364.0400   13.9190 N.3   127  VAL127     -0.1245
     78  CA      -174.8900  364.6210   15.2090 C.3   127  VAL127      0.1561
     79  C       -173.7170  365.4410   15.7140 C.2   127  VAL127      0.2260
     80  O       -172.5990  364.9280   15.7940 O.2   127  VAL127     -0.2867
     81  CB      -175.2840  363.5380   16.2090 C.3   127  VAL127      0.0252
     82  CG1     -175.6050  364.1640   17.5460 C.3   127  VAL127      0.0019
     83  CG2     -176.4680  362.7590   15.6780 C.3   127  VAL127      0.0019
     84  N       -178.7910  366.8360   13.1800 N.3   153  ASP153     -0.1239
     85  CA      -179.2390  366.8720   14.5610 C.3   153  ASP153      0.1674
     86  C       -178.3130  367.8180   15.3120 C.2   153  ASP153      0.2266
     87  O       -177.2670  367.4100   15.8210 O.2   153  ASP153     -0.2867
     88  CB      -179.2400  365.4940   15.2040 C.3   153  ASP153      0.1410
     89  CG      -179.8980  365.4960   16.5770 C.2   153  ASP153      0.3668
     90  OD1     -180.0750  366.5840   17.1800 O.co2 153  ASP153     -0.2456
     91  OD2     -180.2700  364.3960   17.0340 O.co2 153  ASP153     -0.2456
     92  N       -179.1060  369.5770   18.0100 N.3   155  ALA155     -0.1231
     93  CA      -179.7570  369.8320   19.2920 C.3   155  ALA155      0.1694
     94  C       -178.8520  370.6340   20.2230 C.2   155  ALA155      0.2591
     95  O       -179.3140  371.5300   20.9100 O.2   155  ALA155     -0.2718
     96  CB      -180.1590  368.5190   19.9460 C.3   155  ALA155      0.0304
     97  N       -177.5620  370.3260   20.1900 N.am  156  GLN156     -0.1979
     98  CA      -176.5680  370.9120   21.0730 C.3   156  GLN156      0.1601
     99  C       -175.7690  372.0460   20.4250 C.2   156  GLN156      0.2287
    100  O       -174.8650  372.6090   21.0480 O.2   156  GLN156     -0.2864
    101  CB      -175.6080  369.8240   21.5480 C.3   156  GLN156      0.0394
    102  CG      -176.2860  368.6940   22.3130 C.3   156  GLN156      0.0908
    103  CD      -175.3580  367.5280   22.5650 C.2   156  GLN156      0.2608
    104  OE1     -174.1360  367.6700   22.4980 O.2   156  GLN156     -0.2717
    105  NE2     -175.9330  366.3700   22.8930 N.am  156  GLN156     -0.0878
    106  N       -182.5720  371.9620   19.7480 N.3   177  SER177     -0.1217
    107  CA      -183.2390  371.7400   21.0240 C.3   177  SER177      0.1889
    108  C       -183.2160  372.9930   21.8930 C.2   177  SER177      0.2288
    109  O       -182.2080  373.6750   21.9690 O.2   177  SER177     -0.2866
    110  CB      -182.5780  370.5970   21.7920 C.3   177  SER177      0.2089
    111  OG      -183.3150  370.3080   22.9640 O.3   177  SER177     -0.2183
    112  N       -184.4000  372.4410   25.1410 N.3   179  HIS179     -0.1226
    113  CA      -184.5880  371.7280   26.3860 C.3   179  HIS179      0.1752
    114  C       -183.8160  372.4240   27.5160 C.2   179  HIS179      0.2596
    115  O       -182.8400  373.1300   27.2650 O.2   179  HIS179     -0.2718
    116  CB      -184.1330  370.2770   26.2280 C.3   179  HIS179      0.0759
    117  CG      -184.5120  369.3980   27.3760 C.ar  179  HIS179      0.0818
    118  ND1     -183.6400  369.0700   28.3930 N.ar  179  HIS179     -0.2268
    119  CD2     -185.6720  368.7580   27.6530 C.ar  179  HIS179      0.1154
    120  CE1     -184.2540  368.2790   29.2540 C.ar  179  HIS179      0.1986
    121  NE2     -185.4860  368.0710   28.8250 N.ar  179  HIS179     -0.2212
    122  N       -184.2350  372.2100   28.7600 N.am  180  GLU180     -0.1965
    123  CA      -183.6250  372.9000   29.8930 C.3   180  GLU180      0.1733
    124  C       -182.1290  372.5920   29.9990 C.2   180  GLU180      0.2617
    125  O       -181.3910  373.3260   30.6260 O.2   180  GLU180     -0.2715
    126  CB      -184.3350  372.5360   31.2130 C.3   180  GLU180      0.0429
    127  CG      -183.8570  371.2410   31.8550 C.3   180  GLU180      0.1163
    128  CD      -184.4590  371.0030   33.2460 C.2   180  GLU180      0.3649
    129  OE1     -185.2700  371.8380   33.7110 O.co2 180  GLU180     -0.2457
    130  OE2     -184.1060  369.9840   33.8770 O.co2 180  GLU180     -0.2457
    131  N       -181.6880  371.4870   29.4190 N.am  181  THR181     -0.1937
    132  CA      -180.2880  371.1180   29.5180 C.3   181  THR181      0.2028
    133  C       -179.4340  371.8130   28.4640 C.2   181  THR181      0.2642
    134  O       -178.2090  371.6890   28.4880 O.2   181  THR181     -0.2714
    135  CB      -180.1190  369.6300   29.3620 C.3   181  THR181      0.1808
    136  OG1     -180.7360  369.2450   28.1350 O.3   181  THR181     -0.2208
    137  CG2     -180.7950  368.8790   30.5140 C.3   181  THR181      0.0379
    138  N       -180.0770  372.5080   27.5210 N.am  182  LYS182     -0.1977
    139  CA      -179.3550  373.1660   26.4250 C.3   182  LYS182      0.1596
    140  C       -178.9040  374.5620   26.8240 C.2   182  LYS182      0.2287
    141  O       -179.2550  375.0520   27.8900 O.2   182  LYS182     -0.2864
    142  CB      -180.2290  373.2380   25.1690 C.3   182  LYS182      0.0298
    143  CG      -180.0110  372.0840   24.2180 C.3   182  LYS182      0.0038
    144  CD      -180.0690  370.7660   24.9390 C.3   182  LYS182      0.0206
    145  CE      -179.4920  369.6640   24.1050 C.3   182  LYS182      0.1093
    146  NZ      -179.4230  368.4450   24.9260 N.3   182  LYS182     -0.1314
    147  N       -188.8560  373.1340   27.5680 N.3   189  GLU189     -0.1230
    148  CA      -188.9240  372.2150   26.4420 C.3   189  GLU189      0.1702
    149  C       -189.0720  373.0430   25.1680 C.2   189  GLU189      0.2631
    150  O       -189.7110  374.0900   25.1860 O.2   189  GLU189     -0.2714
    151  CB      -190.1000  371.2340   26.5690 C.3   189  GLU189      0.0402
    152  CG      -190.0420  370.3260   27.7680 C.3   189  GLU189      0.1161
    153  CD      -189.1450  369.1440   27.5390 C.2   189  GLU189      0.3649
    154  OE1     -188.7920  368.9040   26.3700 O.co2 189  GLU189     -0.2457
    155  OE2     -188.7990  368.4450   28.5180 O.co2 189  GLU189     -0.2457
    156  N       -188.5560  372.5410   24.0550 N.am  190  GLY190     -0.1732
    157  CA      -188.7100  373.2370   22.7840 C.2   190  GLY190      0.1340
    158  C       -187.7470  372.8100   21.6980 C.2   190  GLY190      0.2521
    159  O       -186.7410  372.1530   21.9600 O.2   190  GLY190     -0.2816
    160  N       -171.3170  373.8810   25.0930 N.3   282  HIS282     -0.1241
    161  CA      -172.4820  373.1630   25.5750 C.3   282  HIS282      0.1621
    162  C       -172.0890  372.1850   26.6740 C.2   282  HIS282      0.2264
    163  O       -172.8550  371.9370   27.6060 O.2   282  HIS282     -0.2867
    164  CB      -173.1890  372.3940   24.4650 C.3   282  HIS282      0.0745
    165  CG      -174.1750  371.4020   24.9940 C.ar  282  HIS282      0.0817
    166  ND1     -175.3100  371.7760   25.6810 N.ar  282  HIS282     -0.2268
    167  CD2     -174.1550  370.0470   25.0110 C.ar  282  HIS282      0.1154
    168  CE1     -175.9650  370.6940   26.0670 C.ar  282  HIS282      0.1986
    169  NE2     -175.2840  369.6330   25.6740 N.ar  282  HIS282     -0.2212
    170  N       -172.4690  366.8590   41.4880 N.3   307  MET307     -0.1245
    171  CA      -173.0990  365.9690   40.5440 C.3   307  MET307      0.1570
    172  C       -172.3970  365.9550   39.1770 C.2   307  MET307      0.2261
    173  O       -172.4390  366.9420   38.4190 O.2   307  MET307     -0.2867
    174  CB      -174.5600  366.3710   40.4130 C.3   307  MET307      0.0387
    175  CG      -175.3730  365.4950   39.5120 C.3   307  MET307      0.0595
    176  SD      -177.1010  365.9950   39.5710 S.3   307  MET307     -0.1393
    177  CE      -177.8360  364.6230   38.6550 C.3   307  MET307      0.0692
    178  N       -171.8270  363.3930   35.6230 N.3   309  VAL309     -0.1231
    179  CA      -172.7500  362.4990   34.9870 C.3   309  VAL309      0.1692
    180  C       -172.2130  361.9550   33.6580 C.2   309  VAL309      0.2592
    181  O       -171.5020  362.6540   32.9220 O.2   309  VAL309     -0.2718
    182  CB      -174.0910  363.2210   34.8170 C.3   309  VAL309      0.0266
    183  CG1     -174.0010  364.2570   33.7030 C.3   309  VAL309      0.0020
    184  CG2     -175.1500  362.2490   34.5080 C.3   309  VAL309      0.0020
    185  N       -172.5300  360.7020   33.3580 N.am  310  PHE310     -0.1962
    186  CA      -172.2120  360.1680   32.0380 C.3   310  PHE310      0.1771
    187  C       -173.3310  360.5790   31.0840 C.2   310  PHE310      0.2620
    188  O       -174.1980  361.3750   31.4470 O.2   310  PHE310     -0.2715
    189  CB      -171.9860  358.6470   32.0680 C.3   310  PHE310      0.0574
    190  CG      -173.1280  357.8450   32.6280 C.ar  310  PHE310     -0.0200
    191  CD1     -174.2410  357.5430   31.8550 C.ar  310  PHE310     -0.0042
    192  CD2     -173.0490  357.3220   33.9160 C.ar  310  PHE310     -0.0042
    193  CE1     -175.2790  356.7620   32.3670 C.ar  310  PHE310     -0.0003
    194  CE2     -174.0790  356.5400   34.4370 C.ar  310  PHE310     -0.0003
    195  CZ      -175.1960  356.2640   33.6600 C.ar  310  PHE310     -0.0000
    196  N       -173.3240  360.0620   29.8690 N.am  311  HIS311     -0.1959
    197  CA      -174.2760  360.5510   28.8700 C.3   311  HIS311      0.1787
    198  C       -174.9720  359.4070   28.1480 C.2   311  HIS311      0.2620
    199  O       -175.5720  358.5460   28.8000 O.2   311  HIS311     -0.2715
    200  CB      -173.5520  361.4500   27.8590 C.3   311  HIS311      0.0785
    201  CG      -174.4310  362.4740   27.2110 C.ar  311  HIS311      0.0821
    202  ND1     -173.9860  363.3020   26.2050 N.ar  311  HIS311     -0.2267
    203  CD2     -175.7290  362.8030   27.4220 C.ar  311  HIS311      0.1154
    204  CE1     -174.9730  364.0910   25.8200 C.ar  311  HIS311      0.1986
    205  NE2     -176.0410  363.8120   26.5450 N.ar  311  HIS311     -0.2212
    206  N       -174.9260  359.4050   26.8400 N.am  312  TYR312     -0.1960
    207  CA      -175.6180  358.3960   26.0720 C.3   312  TYR312      0.1771
    208  C       -175.1600  356.9510   26.1520 C.2   312  TYR312      0.2619
    209  O       -173.9900  356.6590   26.0490 O.2   312  TYR312     -0.2715
    210  CB      -175.5190  358.7550   24.5780 C.3   312  TYR312      0.0574
    211  CG      -175.9510  360.1370   24.1430 C.ar  312  TYR312     -0.0198
    212  CD1     -177.2210  360.5750   24.3550 C.ar  312  TYR312     -0.0009
    213  CD2     -175.0890  360.9670   23.4640 C.ar  312  TYR312     -0.0009
    214  CE1     -177.6180  361.8130   23.9410 C.ar  312  TYR312      0.0417
    215  CE2     -175.4810  362.2120   23.0390 C.ar  312  TYR312      0.0417
    216  CZ      -176.7490  362.6230   23.2830 C.ar  312  TYR312      0.1957
    217  OH      -177.1770  363.8550   22.8890 O.3   312  TYR312     -0.2866
    218  N       -176.1080  356.0490   26.3170 N.am  313  ILE313     -0.1977
    219  CA      -175.8500  354.6110   26.1440 C.3   313  ILE313      0.1596
    220  C       -176.0280  354.2650   24.6830 C.2   313  ILE313      0.2287
    221  O       -177.0970  354.5140   24.1300 O.2   313  ILE313     -0.2864
    222  CB      -176.7940  353.7350   27.0200 C.3   313  ILE313      0.0276
    223  CG1     -176.6240  354.0510   28.5030 C.3   313  ILE313      0.0022
    224  CG2     -176.4490  352.2690   26.8730 C.3   313  ILE313      0.0022
    225  CD1     -175.2010  353.9170   28.9860 C.3   313  ILE313      0.0001
    226  N       -169.2900  363.9990   32.0190 N.3   343  ARG343     -0.1245
    227  CA      -169.5790  365.4170   31.7740 C.3   343  ARG343      0.1563
    228  C       -169.5390  366.1950   33.0920 C.2   343  ARG343      0.2260
    229  O       -170.1330  365.7430   34.0750 O.2   343  ARG343     -0.2867
    230  CB      -170.9390  365.5790   31.0890 C.3   343  ARG343      0.0307
    231  CG      -171.0730  364.8060   29.7760 C.3   343  ARG343      0.0489
    232  CD      -172.4370  365.0160   29.1630 C.3   343  ARG343      0.2205
    233  NE      -173.4950  364.2990   29.8710 N.pl3 343  ARG343     -0.0865
    234  CZ      -174.7750  364.6620   29.8550 C.cat 343  ARG343      0.5346
    235  NH1     -175.1500  365.7520   29.1920 N.pl3 343  ARG343      0.1354
    236  NH2     -175.6800  363.9510   30.5100 N.pl3 343  ARG343      0.1354
@<TRIPOS>BOND
     1    34    33    2
     2    84    85    1
     3    33    32    1
     4    77    78    1
     5    32    31    1
     6    32    35    1
     7    38    36    1
     8    85    88    1
     9    85    86    1
    10    73    72    2
    11    35    36    1
    12    88    89    1
    13    78    79    1
    14    78    81    1
    15    36    37    1
    16    86    87    2
    17    76    74    1
    18    83    81    1
    19    79    80    2
    20    72    71    1
    21    81    82    1
    22    89    91   ar
    23    89    90   ar
    24    71    74    1
    25    71    70    1
    26    74    75    1
    27    27    26    2
    28    67    66    2
    29    21    20    2
    30    26    25    1
    31    70    66   am
    32    92    93    1
    33    45    43    1
    34    23    22    1
    35    66    65    1
    36    20    19    1
    37    20    24   am
    38    44    43    1
    39    43    40    1
    40    15    14    2
    41    25    24    1
    42    25    28    1
    43    19    22    1
    44    19    18    1
    45    60    59    2
    46    93    96    1
    47    93    94    1
    48    65    68    1
    49    65    64    1
    50    30    28    1
    51   106   107    1
    52    14    18   am
    53    14    13    1
    54    49    48    2
    55    68    69    1
    56    28    29    1
    57    40    39    1
    58    40    41    1
    59    97    94   am
    60    97    98    1
    61    94    95    2
    62    59    64   am
    63    59    58    1
    64    99   100    2
    65    99    98    1
    66    12    13    1
    67    17    16    1
    68   107   110    1
    69   107   108    1
    70    41    46   am
    71    41    42    2
    72    98   101    1
    73    13    16    1
    74    46    47    1
    75    48    57   am
    76    48    47    1
    77    58    57    1
    78    58    61    1
    79   101   102    1
    80   158   159    2
    81   158   157    1
    82   110   111    1
    83   108   109    2
    84    47    50    1
    85    50    51    1
    86   102   103    1
    87    61    62    1
    88    61    63    1
    89   104   103    2
    90   103   105   am
    91   157   156    2
    92   217   216    1
    93    53    51   ar
    94    53    55   ar
    95   215   216   ar
    96   215   213   ar
    97    51    52   ar
    98   216   214   ar
    99   213   211   ar
   100    55    56   ar
   101   214   212   ar
   102   156   149    1
   103   145   146    1
   104   145   144    1
   105   221   220    2
   106   211   212   ar
   107   211   210    1
   108   143   144    1
   109   143   142    1
   110   164   165    1
   111   164   161    1
   112   210   207    1
   113    52    54   ar
   114   220   219    1
   115   165   167   ar
   116   165   166   ar
   117   167   169   ar
   118   160   161    1
   119   112   113    1
   120   149   150    2
   121   149   148    1
   122   142   139    1
   123    56    54   ar
   124   161   162    1
   125   169   168   ar
   126   166   168   ar
   127   204   202   ar
   128   204   205   ar
   129   209   208    2
   130   207   208    1
   131   207   206    1
   132   219   218    1
   133   219   222    1
   134   208   218   am
   135   202   201   ar
   136   116   113    1
   137   116   117    1
   138   154   153   ar
   139   113   114    1
   140   139   140    1
   141   139   138    1
   142   148   151    1
   143   148   147    1
   144   205   203   ar
   145   151   152    1
   146   162   163    2
   147   140   141    2
   148   206   198   am
   149   224   222    1
   150   222   223    1
   151   201   203   ar
   152   201   200    1
   153   115   114    2
   154   117   119   ar
   155   117   118   ar
   156   114   122   am
   157   138   133   am
   158   153   152    1
   159   153   155   ar
   160   119   121   ar
   161   200   197    1
   162   136   135    1
   163   198   199    2
   164   198   197    1
   165   118   120   ar
   166   133   134    2
   167   133   132    1
   168   223   225    1
   169   122   123    1
   170   121   120   ar
   171   197   196    1
   172   232   231    1
   173   232   233    1
   174   235   234    1
   175   135   132    1
   176   135   137    1
   177   131   132    1
   178   131   124   am
   179   231   230    1
   180   234   233    2
   181   234   236    1
   182   196   187   am
   183   123   124    1
   184   123   126    1
   185   124   125    2
   186   187   188    2
   187   187   186    1
   188   230   227    1
   189   126   127    1
   190   227   226    1
   191   227   228    1
   192   191   193   ar
   193   191   190   ar
   194   127   128    1
   195    11    10   ar
   196    11     9   ar
   197   186   189    1
   198   186   185    1
   199   189   190    1
   200   193   195   ar
   201    10     8   ar
   202   190   192   ar
   203   181   180    2
   204     9     7   ar
   205   228   229    2
   206   128   129   ar
   207   128   130   ar
   208   185   180   am
   209   180   179    1
   210   195   194   ar
   211   183   182    1
   212     8     6   ar
   213   192   194   ar
   214     7     6   ar
   215   184   182    1
   216     6     5    1
   217   182   179    1
   218   179   178    1
   219     4     3    2
   220     3     2    1
   221     5     2    1
   222     2     1    1
   223   173   172    2
   224   177   176    1
   225   172   171    1
   226   175   176    1
   227   175   174    1
   228   174   171    1
   229   171   170    1
