@<TRIPOS>MOLECULE
tmp/4zamA02.pdb
 111 103 0 0 0
SMALL
GASTEIGER

@<TRIPOS>ATOM
      1  N        -16.2810   -6.2060  -11.7280 N.3    44  MET44      -0.1230
      2  CA       -16.5110   -6.4660  -10.3160 C.3    44  MET44       0.1702
      3  C        -16.9040   -5.1810   -9.6180 C.2    44  MET44       0.2593
      4  O        -17.6300   -4.3370  -10.1870 O.2    44  MET44      -0.2718
      5  CB       -15.3000   -7.1390   -9.6760 C.3    44  MET44       0.0401
      6  CG       -14.7140   -8.2880  -10.4970 C.3    44  MET44       0.0596
      7  SD       -12.9550   -8.5250  -10.2750 S.3    44  MET44      -0.1393
      8  CE       -12.3260   -6.9940  -10.9410 C.3    44  MET44       0.0692
      9  N        -16.4370   -4.9850   -8.3810 N.am   45  SER45      -0.1952
     10  CA       -16.8480   -3.8250   -7.6120 C.3    45  SER45       0.1924
     11  C        -16.3380   -2.5100   -8.1720 C.2    45  SER45       0.2314
     12  O        -16.8140   -1.4590   -7.7180 O.2    45  SER45      -0.2863
     13  CB       -16.3840   -3.8830   -6.1470 C.3    45  SER45       0.2116
     14  OG       -17.0930   -4.8740   -5.3660 O.3    45  SER45      -0.2180
     15  N        -22.3930   -9.3350    1.2770 N.3    80  TYR80      -0.1241
     16  CA       -21.5730   -8.1680    1.5530 C.3    80  TYR80       0.1605
     17  C        -22.3840   -6.8770    1.5620 C.2    80  TYR80       0.2264
     18  O        -22.6060   -6.1680    0.5780 O.2    80  TYR80      -0.2867
     19  CB       -20.3400   -8.0590    0.6760 C.3    80  TYR80       0.0534
     20  CG       -19.2770   -7.3230    1.4270 C.ar   80  TYR80      -0.0201
     21  CD1      -18.7680   -7.8430    2.6100 C.ar   80  TYR80      -0.0009
     22  CD2      -18.8300   -6.0910    1.0060 C.ar   80  TYR80      -0.0009
     23  CE1      -17.8110   -7.1680    3.3260 C.ar   80  TYR80       0.0417
     24  CE2      -17.8690   -5.4070    1.7110 C.ar   80  TYR80       0.0417
     25  CZ       -17.3670   -5.9610    2.8720 C.ar   80  TYR80       0.1957
     26  OH       -16.4160   -5.3040    3.6010 O.3    80  TYR80      -0.2866
     27  N        -17.4330   -0.9060   -0.1930 N.3   105  SER105     -0.1217
     28  CA       -17.8390   -1.9080   -1.1750 C.3   105  SER105      0.1889
     29  C        -19.1230   -2.6790   -0.8140 C.2   105  SER105      0.2288
     30  O        -19.2650   -3.8600   -1.0950 O.2   105  SER105     -0.2866
     31  CB       -16.6930   -2.8620   -1.4540 C.3   105  SER105      0.2089
     32  OG       -16.6970   -3.1870   -2.8640 O.3   105  SER105     -0.2183
     33  N        -22.4880   -4.1430   -1.3050 N.3   107  ASN107     -0.1240
     34  CA       -23.1570   -4.5900   -2.5130 C.3   107  ASN107      0.1653
     35  C        -24.6380   -4.2140   -2.5720 C.2   107  ASN107      0.2266
     36  O        -25.1940   -3.9530   -3.6410 O.2   107  ASN107     -0.2867
     37  CB       -23.0200   -6.0990   -2.6980 C.3   107  ASN107      0.1155
     38  CG       -21.6560   -6.5160   -3.2300 C.2   107  ASN107      0.2627
     39  OD1      -20.9060   -5.7340   -3.8270 O.2   107  ASN107     -0.2716
     40  ND2      -21.3290   -7.7810   -3.0310 N.am  107  ASN107     -0.0877
     41  N        -25.6750   -6.9300   -8.3080 N.3   141  GLU141     -0.1231
     42  CA       -24.8970   -7.6320   -7.2990 C.3   141  GLU141      0.1699
     43  C        -25.7390   -8.7910   -6.7770 C.2   141  GLU141      0.2592
     44  O        -26.9360   -8.5890   -6.5680 O.2   141  GLU141     -0.2718
     45  CB       -24.5110   -6.7280   -6.1390 C.3   141  GLU141      0.0402
     46  CG       -23.4910   -5.6620   -6.4610 C.3   141  GLU141      0.1161
     47  CD       -22.1090   -6.2300   -6.6950 C.2   141  GLU141      0.3649
     48  OE1      -21.1800   -5.4240   -6.9840 O.co2 141  GLU141     -0.2457
     49  OE2      -21.8930   -7.4670   -6.5970 O.co2 141  GLU141     -0.2457
     50  N        -25.1560   -9.9720   -6.5770 N.am  142  THR142     -0.1953
     51  CA       -23.7240  -10.2850   -6.7220 C.3   142  THR142      0.1897
     52  C        -23.3830  -11.0990   -7.9910 C.2   142  THR142      0.2313
     53  O        -22.2180  -11.4660   -8.1950 O.2   142  THR142     -0.2863
     54  CB       -23.2210  -11.0550   -5.5140 C.3   142  THR142      0.1794
     55  OG1      -23.9770  -12.2770   -5.4310 O.3   142  THR142     -0.2208
     56  CG2      -23.3830  -10.2540   -4.2290 C.3   142  THR142      0.0378
     57  N        -20.3220  -10.5900  -10.6270 N.3   145  ASN145     -0.1240
     58  CA       -18.9320  -11.0400  -10.3540 C.3   145  ASN145      0.1653
     59  C        -18.5700  -12.4570  -10.8090 C.2   145  ASN145      0.2266
     60  O        -17.4840  -12.9390  -10.5150 O.2   145  ASN145     -0.2867
     61  CB       -18.6770  -10.9790   -8.8530 C.3   145  ASN145      0.1155
     62  CG       -18.9920   -9.6230   -8.2780 C.2   145  ASN145      0.2627
     63  OD1      -18.2520   -8.6630   -8.4890 O.2   145  ASN145     -0.2716
     64  ND2      -20.1070   -9.5190   -7.5590 N.am  145  ASN145     -0.0877
     65  N        -11.3950    0.0560    2.1460 N.3   191  VAL191     -0.1245
     66  CA       -11.0630   -1.3190    1.8670 C.3   191  VAL191      0.1561
     67  C         -9.5830   -1.4770    1.5300 C.2   191  VAL191      0.2260
     68  O         -8.9210   -2.3560    2.0950 O.2   191  VAL191     -0.2867
     69  CB       -11.9340   -1.8810    0.7270 C.3   191  VAL191      0.0252
     70  CG1      -11.4840   -3.2830    0.3460 C.3   191  VAL191      0.0019
     71  CG2      -13.3860   -1.9110    1.1760 C.3   191  VAL191      0.0019
     72  N        -10.6370    2.4070   -6.1730 N.3   209  LYS209     -0.1231
     73  CA       -11.6350    1.4080   -5.9100 C.3   209  LYS209      0.1693
     74  C        -11.1560    0.0690   -6.3970 C.2   209  LYS209      0.2593
     75  O        -10.7040   -0.0410   -7.5600 O.2   209  LYS209     -0.2718
     76  CB       -12.9720    1.7650   -6.5540 C.3   209  LYS209      0.0285
     77  CG       -14.1010    0.7490   -6.3520 C.3   209  LYS209      0.0035
     78  CD       -14.6730    0.9050   -4.9710 C.3   209  LYS209      0.0206
     79  CE       -15.5590   -0.2650   -4.5900 C.3   209  LYS209      0.1093
     80  NZ       -14.7710   -1.3870   -4.0010 N.3   209  LYS209     -0.1314
     81  N        -11.3360   -0.9720   -5.5850 N.am  210  THR210     -0.1939
     82  CA       -10.9220   -2.3210   -5.9330 C.3   210  THR210      0.2028
     83  C        -12.1010   -3.2220   -6.1690 C.2   210  THR210      0.2643
     84  O        -13.2510   -2.8410   -5.9470 O.2   210  THR210     -0.2714
     85  CB       -10.0020   -2.9450   -4.8980 C.3   210  THR210      0.1808
     86  OG1      -10.6810   -3.0330   -3.6230 O.3   210  THR210     -0.2208
     87  CG2       -8.7550   -2.1240   -4.7470 C.3   210  THR210      0.0379
     88  N        -11.8290   -4.4080   -6.7240 N.am  211  GLY211     -0.1939
     89  CA       -12.8730   -5.4060   -6.8680 C.3   211  GLY211      0.2014
     90  C        -12.2510   -6.7790   -6.9480 C.2   211  GLY211      0.2639
     91  O        -11.0700   -6.9420   -7.1920 O.2   211  GLY211     -0.2714
     92  N        -13.1090   -7.7550   -6.7360 N.am  212  ALA212     -0.1963
     93  CA       -12.7410   -9.1860   -6.8110 C.3   212  ALA212      0.1728
     94  C        -13.9110  -10.0150   -7.2860 C.2   212  ALA212      0.2616
     95  O        -15.0540   -9.6420   -7.0580 O.2   212  ALA212     -0.2715
     96  CB       -12.2760   -9.6920   -5.4430 C.3   212  ALA212      0.0334
     97  N        -13.5940  -11.1010   -7.9850 N.am  213  GLY213     -0.1955
     98  CA       -14.6220  -11.9960   -8.4910 C.3   213  GLY213      0.1869
     99  C        -14.1380  -13.4090   -8.5780 C.2   213  GLY213      0.2309
    100  O        -13.1370  -13.7870   -7.9810 O.2   213  GLY213     -0.2863
    101  N         -9.6520   -9.9430  -10.3110 N.3   218  ARG218     -0.1245
    102  CA        -9.2340   -8.9390   -9.3320 C.3   218  ARG218      0.1563
    103  C         -9.0200   -7.6420  -10.1070 C.2   218  ARG218      0.2260
    104  O         -8.6320   -7.6750  -11.2750 O.2   218  ARG218     -0.2867
    105  CB        -7.9460   -9.4110   -8.6720 C.3   218  ARG218      0.0307
    106  CG        -7.4410   -8.5910   -7.4780 C.3   218  ARG218      0.0489
    107  CD        -8.2890   -8.8380   -6.2710 C.3   218  ARG218      0.2205
    108  NE        -7.7490   -8.1600   -5.0840 N.pl3 218  ARG218     -0.0865
    109  CZ        -8.3940   -7.2810   -4.3230 C.cat 218  ARG218      0.5346
    110  NH1       -7.7710   -6.8470   -3.2400 N.pl3 218  ARG218      0.1354
    111  NH2       -9.6270   -6.8000   -4.5860 N.pl3 218  ARG218      0.1354
@<TRIPOS>BOND
     1     1     2    1
     2   104   103    2
     3     8     7    1
     4    59    60    2
     5    59    58    1
     6    57    58    1
     7     6     7    1
     8     6     5    1
     9    58    61    1
    10     2     5    1
    11     2     3    1
    12   101   102    1
    13     4     3    2
    14   103   102    1
    15     3     9   am
    16   102   105    1
    17    61    62    1
    18   105   106    1
    19    99    98    1
    20    99   100    2
    21    98    97    1
    22    63    62    2
    23     9    10    1
    24    41    42    1
    25    62    64   am
    26    53    52    2
    27    11    12    2
    28    11    10    1
    29    52    51    1
    30    97    94   am
    31    10    13    1
    32    75    74    2
    33   106   107    1
    34    42    43    1
    35    42    45    1
    36    94    95    2
    37    94    93    1
    38    91    90    2
    39    48    47   ar
    40    90    89    1
    41    90    92   am
    42    89    88    1
    43    93    92    1
    44    93    96    1
    45    43    50   am
    46    43    44    2
    47    88    83   am
    48    51    50    1
    49    51    54    1
    50    47    49   ar
    51    47    46    1
    52    76    77    1
    53    76    73    1
    54    46    45    1
    55    74    73    1
    56    74    81   am
    57    77    78    1
    58   107   108    1
    59    72    73    1
    60    83    84    2
    61    83    82    1
    62    13    14    1
    63    82    81    1
    64    82    85    1
    65    54    55    1
    66    54    56    1
    67   108   109    2
    68    78    79    1
    69    85    87    1
    70    85    86    1
    71    79    80    1
    72   111   109    1
    73   109   110    1
    74    39    38    2
    75    36    35    2
    76    38    40   am
    77    38    37    1
    78    32    31    1
    79    37    34    1
    80    35    34    1
    81    34    33    1
    82    31    28    1
    83    28    29    1
    84    28    27    1
    85    30    29    2
    86    70    69    1
    87    18    17    2
    88    19    20    1
    89    19    16    1
    90    69    71    1
    91    69    66    1
    92    22    20   ar
    93    22    24   ar
    94    15    16    1
    95    20    21   ar
    96    67    66    1
    97    67    68    2
    98    16    17    1
    99    24    25   ar
   100    66    65    1
   101    21    23   ar
   102    25    23   ar
   103    25    26    1
