@<TRIPOS>MOLECULE
tmp/4zarA00.pdb
 198 190 0 0 0
SMALL
GASTEIGER

@<TRIPOS>ATOM
      1  N        -17.8330   26.3480    8.5310 N.3    40  THR40      -0.1218
      2  CA       -16.9780   27.1900    9.3320 C.3    40  THR40       0.1862
      3  C        -16.1740   28.1950    8.5180 C.2    40  THR40       0.2287
      4  O        -15.3260   28.9090    9.0700 O.2    40  THR40      -0.2866
      5  CB       -16.0180   26.3290   10.1670 C.3    40  THR40       0.1770
      6  OG1      -15.1330   25.5940    9.2800 O.3    40  THR40      -0.2211
      7  CG2      -16.6950   25.4110   11.0920 C.3    40  THR40       0.0375
      8  N        -11.4240   26.7260   12.1200 N.3    67  ASN67      -0.1240
      9  CA       -11.7300   25.3900   12.5450 C.3    67  ASN67       0.1653
     10  C        -11.0710   24.3290   11.6440 C.2    67  ASN67       0.2266
     11  O        -10.3330   23.4600   12.1280 O.2    67  ASN67      -0.2867
     12  CB       -13.2580   25.2150   12.5460 C.3    67  ASN67       0.1155
     13  CG       -13.7060   23.8430   13.0130 C.2    67  ASN67       0.2627
     14  OD1      -13.6400   22.8580   12.2540 O.2    67  ASN67      -0.2716
     15  ND2      -14.1650   23.7700   14.2460 N.am   67  ASN67      -0.0877
     16  N        -13.0530   22.4610    9.3130 N.3    69  HIS69      -0.1241
     17  CA       -14.1010   21.6160    8.7550 C.3    69  HIS69       0.1621
     18  C        -14.5540   22.1200    7.4090 C.2    69  HIS69       0.2264
     19  O        -14.6640   21.3820    6.4450 O.2    69  HIS69      -0.2867
     20  CB       -15.2490   21.5080    9.7530 C.3    69  HIS69       0.0745
     21  CG       -16.2850   20.4140    9.5030 C.ar   69  HIS69       0.0817
     22  ND1      -17.4490   20.5890    8.7690 N.ar   69  HIS69      -0.2268
     23  CD2      -16.4060   19.1620   10.0560 C.ar   69  HIS69       0.1154
     24  CE1      -18.1900   19.4770    8.8430 C.ar   69  HIS69       0.1986
     25  NE2      -17.6060   18.5890    9.6480 N.ar   69  HIS69      -0.2212
     26  N        -20.9750   28.7230   11.0070 N.3    96  LEU96      -0.1245
     27  CA       -20.4850   28.0900   12.2130 C.3    96  LEU96       0.1561
     28  C        -19.2700   28.8330   12.6990 C.2    96  LEU96       0.2260
     29  O        -18.3970   29.1990   11.8920 O.2    96  LEU96      -0.2867
     30  CB       -20.0840   26.6250   11.9180 C.3    96  LEU96       0.0270
     31  CG       -21.2010   25.7350   11.3610 C.3    96  LEU96       0.0019
     32  CD1      -20.6420   24.3270   11.1440 C.3    96  LEU96       0.0001
     33  CD2      -22.4340   25.6890   12.2290 C.3    96  LEU96       0.0001
     34  N        -15.4290   27.3220   16.9210 N.3    99  ASN99      -0.1225
     35  CA       -15.7000   26.1640   17.7670 C.3    99  ASN99       0.1785
     36  C        -16.6520   25.1610   17.1110 C.2    99  ASN99       0.2598
     37  O        -16.9240   24.1080   17.6620 O.2    99  ASN99      -0.2718
     38  CB       -16.2910   26.6070   19.1170 C.3    99  ASN99       0.1169
     39  CG       -15.3720   27.4690   19.8970 C.2    99  ASN99       0.2627
     40  OD1      -15.7860   28.4570   20.5350 O.2    99  ASN99      -0.2716
     41  ND2      -14.0940   27.1140   19.8620 N.am   99  ASN99      -0.0877
     42  N        -17.1280   25.4810   15.9150 N.am  100  GLY100     -0.1942
     43  CA       -18.0490   24.6130   15.1630 C.3   100  GLY100      0.2014
     44  C        -19.5280   24.8790   15.4490 C.2   100  GLY100      0.2640
     45  O        -20.3920   24.2820   14.7840 O.2   100  GLY100     -0.2714
     46  N        -19.8470   25.7770   16.3680 N.am  101  SER101     -0.1935
     47  CA       -21.2310   25.9820   16.7680 C.3   101  SER101      0.2055
     48  C        -21.8910   27.0230   15.9160 C.2   101  SER101      0.2644
     49  O        -21.2840   28.0190   15.5550 O.2   101  SER101     -0.2714
     50  CB       -21.2620   26.5010   18.2260 C.3   101  SER101      0.2130
     51  OG       -22.5600   26.5320   18.7710 O.3   101  SER101     -0.2179
     52  N        -23.1710   26.8190   15.6570 N.am  102  GLY102     -0.1939
     53  CA       -23.9780   27.8640   15.0580 C.3   102  GLY102      0.2014
     54  C        -25.4090   27.7860   15.5350 C.2   102  GLY102      0.2639
     55  O        -26.0490   26.7490   15.4740 O.2   102  GLY102     -0.2714
     56  N        -25.9720   28.9060   15.9330 N.am  103  GLN103     -0.1963
     57  CA       -27.3630   28.9530   16.2980 C.3   103  GLN103      0.1733
     58  C        -28.2110   28.7430   15.0780 C.2   103  GLN103      0.2616
     59  O        -27.8620   29.1510   13.9520 O.2   103  GLN103     -0.2715
     60  CB       -27.6940   30.3250   16.8740 C.3   103  GLN103      0.0408
     61  CG       -27.0060   30.6190   18.1720 C.3   103  GLN103      0.0908
     62  CD       -27.5610   29.7660   19.3090 C.2   103  GLN103      0.2608
     63  OE1      -28.5750   30.1210   19.9180 O.2   103  GLN103     -0.2717
     64  NE2      -26.9020   28.6310   19.5970 N.am  103  GLN103     -0.0878
     65  N        -29.3590   28.0910   15.2600 N.am  104  TYR104     -0.1974
     66  CA       -30.2050   27.8200   14.1360 C.3   104  TYR104      0.1639
     67  C        -30.6610   29.0810   13.3980 C.2   104  TYR104      0.2290
     68  O        -30.7950   29.0750   12.1690 O.2   104  TYR104     -0.2864
     69  CB       -31.3810   26.9610   14.5500 C.3   104  TYR104      0.0560
     70  CG       -31.1260   25.4810   14.6230 C.ar  104  TYR104     -0.0198
     71  CD1      -30.0730   24.8800   13.9610 C.ar  104  TYR104     -0.0009
     72  CD2      -32.0450   24.6420   15.2610 C.ar  104  TYR104     -0.0009
     73  CE1      -29.9410   23.4870   13.8880 C.ar  104  TYR104      0.0417
     74  CE2      -31.9100   23.2660   15.2310 C.ar  104  TYR104      0.0417
     75  CZ       -30.8760   22.7030   14.5110 C.ar  104  TYR104      0.1957
     76  OH       -30.7180   21.3430   14.4090 O.3   104  TYR104     -0.2866
     77  N        -27.8890   29.7300   10.9340 N.3   107  ILE107     -0.1245
     78  CA       -27.9110   28.7680    9.8270 C.3   107  ILE107      0.1561
     79  C        -29.0310   29.0890    8.8260 C.2   107  ILE107      0.2260
     80  O        -28.8290   29.0330    7.6150 O.2   107  ILE107     -0.2867
     81  CB       -28.1620   27.2970   10.3450 C.3   107  ILE107      0.0252
     82  CG1      -27.3150   26.8500   11.4710 C.3   107  ILE107      0.0019
     83  CG2      -28.2900   26.3040    9.2350 C.3   107  ILE107      0.0019
     84  CD1      -25.9370   27.0550   11.2000 C.3   107  ILE107      0.0001
     85  N        -22.6670   20.4930    5.4970 N.3   132  SER132     -0.1202
     86  CA       -22.1210   19.4240    6.3140 C.3   132  SER132      0.2020
     87  C        -22.2720   19.7850    7.7920 C.2   132  SER132      0.2619
     88  O        -21.2930   19.9800    8.5190 O.2   132  SER132     -0.2717
     89  CB       -20.6570   19.1720    5.9580 C.3   132  SER132      0.2103
     90  OG       -20.5860   18.5830    4.6890 O.3   132  SER132     -0.2182
     91  N        -23.5210   19.9180    8.2400 N.am  133  LEU133     -0.1965
     92  CA       -23.8150   20.4030    9.5630 C.3   133  LEU133      0.1728
     93  C        -25.2410   20.0170    9.9210 C.2   133  LEU133      0.2617
     94  O        -26.0530   19.6980    9.0360 O.2   133  LEU133     -0.2715
     95  CB       -23.6140   21.9170    9.6760 C.3   133  LEU133      0.0311
     96  CG       -24.5070   22.8150    8.8270 C.3   133  LEU133      0.0022
     97  CD1      -25.8880   22.9890    9.3730 C.3   133  LEU133      0.0001
     98  CD2      -23.8360   24.1680    8.6310 C.3   133  LEU133      0.0001
     99  N        -25.5470   20.0950   11.2130 N.am  134  GLY134     -0.1940
    100  CA       -26.9210   19.9480   11.6450 C.3   134  GLY134      0.2014
    101  C        -27.0490   19.8310   13.1340 C.2   134  GLY134      0.2639
    102  O        -26.0670   19.9660   13.8640 O.2   134  GLY134     -0.2714
    103  N        -28.2720   19.5500   13.5650 N.am  135  GLY135     -0.1954
    104  CA       -28.6040   19.4150   14.9810 C.3   135  GLY135      0.1869
    105  C        -29.9270   18.6870   15.0850 C.2   135  GLY135      0.2309
    106  O        -30.3520   18.0100   14.1410 O.2   135  GLY135     -0.2863
    107  N        -25.6900   16.6770    5.0870 N.3   158  ALA158     -0.1231
    108  CA       -25.1660   15.5020    5.7750 C.3   158  ALA158      0.1694
    109  C        -26.2520   14.8510    6.6060 C.2   158  ALA158      0.2592
    110  O        -27.0160   15.5160    7.3150 O.2   158  ALA158     -0.2718
    111  CB       -24.0160   15.9260    6.6590 C.3   158  ALA158      0.0304
    112  N        -26.2610   13.5180    6.6050 N.am  159  ALA159     -0.1966
    113  CA       -27.2950   12.8090    7.3680 C.3   159  ALA159      0.1728
    114  C        -27.0760   12.9170    8.8670 C.2   159  ALA159      0.2617
    115  O        -28.0420   12.7320    9.6190 O.2   159  ALA159     -0.2715
    116  CB       -27.3290   11.3420    6.9440 C.3   159  ALA159      0.0334
    117  N        -25.8240   13.1230    9.2950 N.am  160  GLY160     -0.1940
    118  CA       -25.4510   13.1280   10.6880 C.3   160  GLY160      0.2014
    119  C        -24.7050   11.8680   11.0930 C.2   160  GLY160      0.2639
    120  O        -24.7430   10.8580   10.4150 O.2   160  GLY160     -0.2714
    121  N        -24.0590   11.9510   12.2630 N.am  161  ASN161     -0.1958
    122  CA       -23.0390   10.9940   12.6600 C.3   161  ASN161      0.1819
    123  C        -23.3640   10.2760   13.9600 C.2   161  ASN161      0.2621
    124  O        -22.4680    9.9920   14.7520 O.2   161  ASN161     -0.2715
    125  CB       -21.6880   11.6660   12.7830 C.3   161  ASN161      0.1195
    126  CG       -21.2820   12.4000   11.5500 C.2   161  ASN161      0.2630
    127  OD1      -21.4930   11.9440   10.4370 O.2   161  ASN161     -0.2716
    128  ND2      -20.6960   13.6000   11.7300 N.am  161  ASN161     -0.0877
    129  N        -24.6200    9.9260   14.1550 N.am  162  ASN162     -0.1972
    130  CA       -25.1230    9.3590   15.4080 C.3   162  ASN162      0.1688
    131  C        -25.4610    7.8730   15.3060 C.2   162  ASN162      0.2292
    132  O        -26.0020    7.3130   16.2520 O.2   162  ASN162     -0.2864
    133  CB       -26.3930   10.1240   15.8460 C.3   162  ASN162      0.1181
    134  CG       -26.2980   11.6330   15.6260 C.2   162  ASN162      0.2629
    135  OD1      -26.7780   12.2400   14.5620 O.2   162  ASN162     -0.2716
    136  ND2      -25.6810   12.2570   16.5900 N.am  162  ASN162     -0.0877
    137  N        -33.0760   14.6780   12.8780 N.3   169  TYR169     -0.1227
    138  CA       -32.0320   15.6950   12.7510 C.3   169  TYR169      0.1736
    139  C        -32.4030   16.6370   11.6110 C.2   169  TYR169      0.2596
    140  O        -33.1030   16.2630   10.6750 O.2   169  TYR169     -0.2718
    141  CB       -30.6540   15.0080   12.5070 C.3   169  TYR169      0.0548
    142  CG       -30.2610   14.1310   13.6400 C.ar  169  TYR169     -0.0200
    143  CD1      -29.6560   14.6560   14.7930 C.ar  169  TYR169     -0.0009
    144  CD2      -30.6760   12.7990   13.6680 C.ar  169  TYR169     -0.0009
    145  CE1      -29.3510   13.8420   15.8710 C.ar  169  TYR169      0.0417
    146  CE2      -30.3590   11.9830   14.7570 C.ar  169  TYR169      0.0417
    147  CZ       -29.7240   12.5150   15.8700 C.ar  169  TYR169      0.1957
    148  OH       -29.4210   11.6910   16.9160 O.3   169  TYR169     -0.2866
    149  N        -31.8780   17.8640   11.7010 N.am  170  SER170     -0.1952
    150  CA       -32.1240   18.8790   10.7000 C.3   170  SER170      0.1924
    151  C        -30.8270   19.5790   10.2900 C.2   170  SER170      0.2314
    152  O        -29.9940   19.8090   11.1340 O.2   170  SER170     -0.2863
    153  CB       -33.1200   19.9410   11.2140 C.3   170  SER170      0.2116
    154  OG       -34.4090   19.4130   11.3400 O.3   170  SER170     -0.2180
    155  N        -31.0400   17.3980    7.8340 N.3   172  ALA172     -0.1245
    156  CA       -31.0630   16.0480    7.2740 C.3   172  ALA172      0.1562
    157  C        -32.4830   15.5330    6.9590 C.2   172  ALA172      0.2260
    158  O        -32.7030   14.8420    5.9490 O.2   172  ALA172     -0.2867
    159  CB       -30.3830   15.0590    8.2250 C.3   172  ALA172      0.0290
    160  N        -10.0220   13.0450    7.6020 N.3   220  ILE220     -0.1231
    161  CA       -11.0240   12.9950    8.6730 C.3   220  ILE220      0.1692
    162  C        -12.2520   12.2050    8.1340 C.2   220  ILE220      0.2593
    163  O        -12.3160   11.9070    6.9460 O.2   220  ILE220     -0.2718
    164  CB       -11.4170   14.3880    9.2680 C.3   220  ILE220      0.0266
    165  CG1      -11.9650   15.3200    8.2140 C.3   220  ILE220      0.0019
    166  CG2      -10.2430   15.0230   10.0170 C.3   220  ILE220      0.0020
    167  CD1      -12.6780   16.5360    8.8000 C.3   220  ILE220      0.0001
    168  N        -13.1930   11.9400    9.0330 N.am  221  SER221     -0.1938
    169  CA       -14.3380   11.1230    8.7150 C.3   221  SER221      0.2055
    170  C        -15.6340   11.7740    9.1320 C.2   221  SER221      0.2644
    171  O        -15.6830   12.4670   10.1630 O.2   221  SER221     -0.2714
    172  CB       -14.2570    9.7720    9.4300 C.3   221  SER221      0.2130
    173  OG       -13.1050    9.0560    9.0530 O.3   221  SER221     -0.2179
    174  N        -16.7040   11.5350    8.3790 N.am  222  GLY222     -0.1939
    175  CA       -18.0110   12.0330    8.7510 C.3   222  GLY222      0.2014
    176  C        -18.9380   11.9650    7.5790 C.2   222  GLY222      0.2640
    177  O        -18.5550   11.9480    6.4270 O.2   222  GLY222     -0.2714
    178  N        -20.2550   12.0560    7.8820 N.am  223  THR223     -0.1936
    179  CA       -21.2080   12.3850    6.8330 C.3   223  THR223      0.2028
    180  C        -20.9160   13.7550    6.2360 C.2   223  THR223      0.2643
    181  O        -21.2720   14.0130    5.0780 O.2   223  THR223     -0.2714
    182  CB       -22.6680   12.2540    7.2780 C.3   223  THR223      0.1808
    183  OG1      -22.9530   13.1240    8.3750 O.3   223  THR223     -0.2208
    184  CG2      -23.0230   10.8180    7.6100 C.3   223  THR223      0.0379
    185  N        -20.1980   14.5950    6.9780 N.am  224  SER224     -0.1935
    186  CA       -19.6990   15.8520    6.4550 C.3   224  SER224      0.2055
    187  C        -18.7740   15.7050    5.2590 C.2   224  SER224      0.2642
    188  O        -18.6420   16.6670    4.4990 O.2   224  SER224     -0.2714
    189  CB       -18.8900   16.6190    7.5080 C.3   224  SER224      0.2130
    190  OG       -19.7420   17.0330    8.5080 O.3   224  SER224     -0.2179
    191  N        -18.0680   14.5730    5.1830 N.am  225  MET225     -0.1976
    192  CA       -17.1160   14.3070    4.1190 C.3   225  MET225      0.1605
    193  C        -17.7940   13.6830    2.9280 C.2   225  MET225      0.2287
    194  O        -17.3960   13.8640    1.7740 O.2   225  MET225     -0.2864
    195  CB       -15.9920   13.4030    4.6240 C.3   225  MET225      0.0413
    196  CG       -14.9730   14.0100    5.5600 C.3   225  MET225      0.0598
    197  SD       -15.5290   14.6910    7.1210 S.3   225  MET225     -0.1393
    198  CE       -15.5450   16.4340    6.6720 C.3   225  MET225      0.0692
@<TRIPOS>BOND
     1   194   193    2
     2   193   192    1
     3   192   195    1
     4   192   191    1
     5   188   187    2
     6   195   196    1
     7    90    89    1
     8   181   180    2
     9   107   108    1
    10   191   187   am
    11   187   186    1
    12    85    86    1
    13   196   197    1
    14   108   109    1
    15   108   111    1
    16   158   157    2
    17    89    86    1
    18   180   179    1
    19   180   185   am
    20    86    87    1
    21   177   176    2
    22    19    18    2
    23   186   185    1
    24   186   189    1
    25   112   109   am
    26   112   113    1
    27   109   110    2
    28   198   197    1
    29   179   182    1
    30   179   178    1
    31   116   113    1
    32   163   162    2
    33   157   156    1
    34   156   155    1
    35   156   159    1
    36   182   184    1
    37   182   183    1
    38   113   114    1
    39    18    17    1
    40   189   190    1
    41   176   178   am
    42   176   175    1
    43   160   161    1
    44    80    79    2
    45    87    91   am
    46    87    88    2
    47   162   161    1
    48   162   168   am
    49   165   167    1
    50   165   164    1
    51    91    92    1
    52   174   175    1
    53   174   170   am
    54     3     4    2
    55     3     2    1
    56     1     2    1
    57    98    96    1
    58   161   164    1
    59   169   168    1
    60   169   170    1
    61   169   172    1
    62    17    16    1
    63    17    20    1
    64    22    24   ar
    65    22    21   ar
    66    79    78    1
    67    96    97    1
    68    96    95    1
    69    24    25   ar
    70   114   117   am
    71   114   115    2
    72    94    93    2
    73   173   172    1
    74   170   171    2
    75    83    81    1
    76   164   166    1
    77     6     5    1
    78   117   118    1
    79     2     5    1
    80    21    20    1
    81    21    23   ar
    82    92    95    1
    83    92    93    1
    84    25    23   ar
    85    78    81    1
    86    78    77    1
    87    93    99   am
    88     5     7    1
    89   151   150    1
    90   151   152    2
    91    81    82    1
    92   120   119    2
    93   127   126    2
    94   140   139    2
    95   118   119    1
    96   150   153    1
    97   150   149    1
    98    26    27    1
    99   119   121   am
   100    32    31    1
   101    84    82    1
   102    99   100    1
   103   153   154    1
   104    31    30    1
   105    31    33    1
   106   126   128   am
   107   126   125    1
   108   139   149   am
   109   139   138    1
   110    10    11    2
   111    10     9    1
   112   100   101    1
   113    29    28    2
   114    30    27    1
   115     8     9    1
   116    68    67    2
   117    27    28    1
   118    14    13    2
   119   121   122    1
   120   141   138    1
   121   141   142    1
   122     9    12    1
   123    12    13    1
   124   122   125    1
   125   122   123    1
   126   138   137    1
   127    13    15   am
   128   101   103   am
   129   101   102    2
   130    67    66    1
   131   103   104    1
   132   142   144   ar
   133   142   143   ar
   134   144   146   ar
   135    73    71   ar
   136    73    75   ar
   137    59    58    2
   138   123   129   am
   139   123   124    2
   140    71    70   ar
   141    66    69    1
   142    66    65    1
   143   106   105    2
   144   129   130    1
   145    76    75    1
   146    75    74   ar
   147    69    70    1
   148   135   134    2
   149    70    72   ar
   150   146   147   ar
   151    45    44    2
   152   143   145   ar
   153   104   105    1
   154    53    54    1
   155    53    52    1
   156    58    65   am
   157    58    57    1
   158    43    44    1
   159    43    42    1
   160    74    72   ar
   161   131   130    1
   162   131   132    2
   163   130   133    1
   164    44    46   am
   165    55    54    2
   166    54    56   am
   167    49    48    2
   168   134   133    1
   169   134   136   am
   170    52    48   am
   171   147   145   ar
   172   147   148    1
   173    42    36   am
   174    48    47    1
   175    56    57    1
   176    57    60    1
   177    46    47    1
   178    47    50    1
   179    60    61    1
   180    34    35    1
   181    36    37    2
   182    36    35    1
   183    35    38    1
   184    61    62    1
   185    50    51    1
   186    38    39    1
   187    62    64   am
   188    62    63    2
   189    41    39   am
   190    39    40    2
