@<TRIPOS>MOLECULE
tmp/4zasA00.pdb
 91 89 0 0 0
SMALL
GASTEIGER

@<TRIPOS>ATOM
      1  N          8.8870   27.3930  100.2960 N.3     3  PRO3       -0.2102
      2  CA         8.8920   26.5110   99.1220 C.3     3  PRO3        0.1504
      3  C          8.8500   25.0310   99.4860 C.2     3  PRO3        0.2576
      4  O          9.2910   24.6510  100.5710 O.2     3  PRO3       -0.2718
      5  CB        10.2030   26.8790   98.4260 C.3     3  PRO3        0.0282
      6  CG        11.1050   27.2700   99.5610 C.3     3  PRO3        0.0208
      7  CD        10.2260   27.9390  100.5860 C.3     3  PRO3        0.0893
      8  N          8.3290   24.2180   98.5740 N.am    4  LEU4       -0.1966
      9  CA         8.2670   22.7690   98.7370 C.3     4  LEU4        0.1728
     10  C          9.6150   22.0730   98.4260 C.2     4  LEU4        0.2617
     11  O          9.9380   21.0040   98.9710 O.2     4  LEU4       -0.2715
     12  CB         7.1480   22.2140   97.8460 C.3     4  LEU4        0.0311
     13  CG         6.8530   20.7090   97.8640 C.3     4  LEU4        0.0022
     14  CD1        6.4590   20.2770   99.2650 C.3     4  LEU4        0.0001
     15  CD2        5.7180   20.4370   96.9050 C.3     4  LEU4        0.0001
     16  N         10.4040   22.6830   97.5510 N.am    5  SER5       -0.1936
     17  CA        11.6990   22.1230   97.1730 C.3     5  SER5        0.2055
     18  C         12.7260   23.2320   97.0520 C.2     5  SER5        0.2643
     19  O         12.3830   24.3780   96.7520 O.2     5  SER5       -0.2714
     20  CB        11.6020   21.3620   95.8490 C.3     5  SER5        0.2130
     21  OG        10.8320   20.1820   95.9820 O.3     5  SER5       -0.2179
     22  N         13.9920   22.8870   97.2440 N.am    6  LYS6       -0.1963
     23  CA        15.0340   23.8990   97.1750 C.3     6  LYS6        0.1728
     24  C         16.3610   23.2670   96.7720 C.2     6  LYS6        0.2616
     25  O         16.6440   22.1220   97.1300 O.2     6  LYS6       -0.2715
     26  CB        15.1600   24.6220   98.5120 C.3     6  LYS6        0.0311
     27  CG        16.0360   25.8560   98.4670 C.3     6  LYS6        0.0038
     28  CD        16.0530   26.5870   99.8080 C.3     6  LYS6        0.0206
     29  CE        15.3540   27.9080   99.7130 C.3     6  LYS6        0.1093
     30  NZ        16.1550   28.8380   98.9000 N.3     6  LYS6       -0.1314
     31  N         17.1450   23.9950   95.9810 N.am    7  VAL7       -0.1977
     32  CA        18.4610   23.5270   95.5630 C.3     7  VAL7        0.1596
     33  C         19.4430   23.5600   96.7300 C.2     7  VAL7        0.2287
     34  O         19.5940   24.5800   97.3890 O.2     7  VAL7       -0.2864
     35  CB        19.0050   24.3720   94.3910 C.3     7  VAL7        0.0276
     36  CG1       20.4550   24.0220   94.1070 C.3     7  VAL7        0.0022
     37  CG2       18.1480   24.1860   93.1590 C.3     7  VAL7        0.0022
     38  N          6.8980    9.8620   89.5750 N.3    81  PHE81      -0.1241
     39  CA         7.2940   10.7350   88.4700 C.3    81  PHE81       0.1605
     40  C          7.3090    9.9320   87.1760 C.2    81  PHE81       0.2264
     41  O          7.7000    8.7540   87.1880 O.2    81  PHE81      -0.2867
     42  CB         8.6740   11.3430   88.7350 C.3    81  PHE81       0.0534
     43  CG         9.1390   12.2900   87.6710 C.ar   81  PHE81      -0.0203
     44  CD1        8.4240   13.4380   87.3850 C.ar   81  PHE81      -0.0042
     45  CD2       10.3210   12.0440   86.9710 C.ar   81  PHE81      -0.0042
     46  CE1        8.8730   14.3260   86.4180 C.ar   81  PHE81      -0.0003
     47  CE2       10.7660   12.9180   86.0020 C.ar   81  PHE81      -0.0003
     48  CZ        10.0490   14.0660   85.7370 C.ar   81  PHE81      -0.0000
     49  N         14.2130    9.7430   95.2200 N.3   161  GLN161     -0.1245
     50  CA        13.9700   10.6880   96.2990 C.3   161  GLN161      0.1566
     51  C         14.4850   10.1540   97.6170 C.2   161  GLN161      0.2260
     52  O         14.1800   10.7000   98.6740 O.2   161  GLN161     -0.2867
     53  CB        12.4860   11.0020   96.4110 C.3   161  GLN161      0.0367
     54  CG        11.8570   11.3500   95.1070 C.3   161  GLN161      0.0905
     55  CD        10.3580   11.4430   95.1930 C.2   161  GLN161      0.2608
     56  OE1        9.7740   11.0780   96.1950 O.2   161  GLN161     -0.2717
     57  NE2        9.7280   11.9850   94.1560 N.am  161  GLN161     -0.0878
     58  N         18.4260   18.5800   90.3370 N.3   185  ALA185     -0.1231
     59  CA        18.4960   19.8960   90.9980 C.3   185  ALA185      0.1694
     60  C         17.9470   19.9880   92.4390 C.2   185  ALA185      0.2591
     61  O         18.6010   20.5450   93.3310 O.2   185  ALA185     -0.2718
     62  CB        17.7750   20.9170   90.1270 C.3   185  ALA185      0.0304
     63  N         16.7580   19.4420   92.6720 N.am  186  ILE186     -0.1980
     64  CA        16.1160   19.5990   93.9790 C.3   186  ILE186      0.1595
     65  C         16.0920   18.3120   94.8120 C.2   186  ILE186      0.2287
     66  O         15.4400   18.2740   95.8570 O.2   186  ILE186     -0.2864
     67  CB        14.6900   20.1520   93.8190 C.3   186  ILE186      0.0276
     68  CG1       13.8720   19.2420   92.9120 C.3   186  ILE186      0.0022
     69  CG2       14.7270   21.5730   93.2520 C.3   186  ILE186      0.0022
     70  CD1       12.4520   19.6990   92.6910 C.3   186  ILE186      0.0001
     71  N         11.6490   13.4640  101.7610 N.3   290  TRP290     -0.1241
     72  CA        12.0060   14.4890  100.7790 C.3   290  TRP290      0.1605
     73  C         10.9450   15.5820  100.7380 C.2   290  TRP290      0.2264
     74  O         11.2500   16.7720  100.5640 O.2   290  TRP290     -0.2867
     75  CB        12.1690   13.8710   99.3910 C.3   290  TRP290      0.0550
     76  CG        12.6780   14.8360   98.3770 C.ar  290  TRP290      0.0003
     77  CD1       13.7880   15.6290   98.4840 C.ar  290  TRP290      0.0946
     78  CD2       12.1080   15.1140   97.0950 C.ar  290  TRP290      0.0152
     79  NE1       13.9460   16.3720   97.3420 N.ar  290  TRP290     -0.2442
     80  CE2       12.9280   16.0740   96.4720 C.ar  290  TRP290      0.0810
     81  CE3       10.9930   14.6370   96.4080 C.ar  290  TRP290      0.0012
     82  CZ2       12.6590   16.5730   95.2020 C.ar  290  TRP290      0.0191
     83  CZ3       10.7300   15.1350   95.1340 C.ar  290  TRP290      0.0001
     84  CH2       11.5560   16.0900   94.5520 C.ar  290  TRP290      0.0015
     85  N          2.5270   16.9530   93.0440 N.3   316  VAL316     -0.1245
     86  CA         3.8220   16.5160   92.4920 C.3   316  VAL316      0.1561
     87  C          3.7590   15.8980   91.0850 C.2   316  VAL316      0.2260
     88  O          4.4050   16.4060   90.1560 O.2   316  VAL316     -0.2867
     89  CB         4.5170   15.5590   93.4500 C.3   316  VAL316      0.0252
     90  CG1        5.8070   15.0160   92.8160 C.3   316  VAL316      0.0019
     91  CG2        4.7910   16.2780   94.7540 C.3   316  VAL316      0.0019
@<TRIPOS>BOND
     1    48    47   ar
     2    48    46   ar
     3    47    45   ar
     4    46    44   ar
     5    45    43   ar
     6    40    41    2
     7    40    39    1
     8    44    43   ar
     9    43    42    1
    10    39    42    1
    11    39    38    1
    12    62    59    1
    13    88    87    2
    14    58    59    1
    15    59    60    1
    16    87    86    1
    17    60    63   am
    18    60    61    2
    19    86    85    1
    20    86    89    1
    21    63    64    1
    22    70    68    1
    23    90    89    1
    24    68    67    1
    25    37    35    1
    26    69    67    1
    27    89    91    1
    28    67    64    1
    29    64    65    1
    30    36    35    1
    31    57    55   am
    32    35    32    1
    33    84    83   ar
    34    84    82   ar
    35    65    66    2
    36    54    55    1
    37    54    53    1
    38    83    81   ar
    39    55    56    2
    40    82    80   ar
    41    49    50    1
    42    32    31    1
    43    32    33    1
    44    20    21    1
    45    20    17    1
    46    31    24   am
    47    50    53    1
    48    50    51    1
    49    81    78   ar
    50    80    78   ar
    51    80    79   ar
    52    33    34    2
    53    19    18    2
    54    24    25    2
    55    24    23    1
    56    15    13    1
    57    18    17    1
    58    18    22   am
    59    78    76   ar
    60    17    16    1
    61    23    22    1
    62    23    26    1
    63    79    77   ar
    64    16    10   am
    65    51    52    2
    66    12    13    1
    67    12     9    1
    68    13    14    1
    69    76    77   ar
    70    76    75    1
    71    10     9    1
    72    10    11    2
    73     5     2    1
    74     5     6    1
    75    27    26    1
    76    27    28    1
    77     8     9    1
    78     8     3   am
    79    30    29    1
    80     2     3    1
    81     2     1    1
    82    75    72    1
    83     3     4    2
    84     6     7    1
    85    29    28    1
    86     1     7    1
    87    74    73    2
    88    73    72    1
    89    72    71    1
