@<TRIPOS>MOLECULE
tmp/4zauA00.pdb
 171 164 0 0 0
SMALL
GASTEIGER

@<TRIPOS>ATOM
      1  N         10.5400  -45.6460   17.7430 N.3    19  LYS19      -0.1245
      2  CA         9.5290  -44.8390   17.0830 C.3    19  LYS19       0.1561
      3  C          8.2570  -44.8590   17.9280 C.2    19  LYS19       0.2260
      4  O          7.9950  -45.8290   18.6360 O.2    19  LYS19      -0.2867
      5  CB         9.2290  -45.3970   15.6830 C.3    19  LYS19       0.0271
      6  CG         8.5100  -44.4510   14.7470 C.3    19  LYS19       0.0035
      7  CD         8.6590  -44.8270   13.2830 C.3    19  LYS19       0.0206
      8  CE         7.4850  -44.2540   12.4900 C.3    19  LYS19       0.1093
      9  NZ         6.1630  -44.5210   13.1280 N.3    19  LYS19      -0.1314
     10  N          4.1470  -45.0800   18.4840 N.3    21  LEU21      -0.1231
     11  CA         3.0280  -45.8200   17.8910 C.3    21  LEU21       0.1693
     12  C          1.6870  -45.1100   18.1390 C.2    21  LEU21       0.2593
     13  O          0.7880  -45.1460   17.2980 O.2    21  LEU21      -0.2718
     14  CB         2.9770  -47.2550   18.4350 C.3    21  LEU21       0.0284
     15  CG         4.1420  -48.2130   18.0980 C.3    21  LEU21       0.0019
     16  CD1        4.1060  -49.4990   18.9240 C.3    21  LEU21       0.0001
     17  CD2        4.1290  -48.5510   16.6150 C.3    21  LEU21       0.0001
     18  N          1.5450  -44.4620   19.2890 N.am   22  GLY22      -0.1942
     19  CA         0.3250  -43.7080   19.5820 C.3    22  GLY22       0.2014
     20  C          0.4730  -42.9350   20.8730 C.2    22  GLY22       0.2639
     21  O          1.3410  -43.2550   21.6880 O.2    22  GLY22      -0.2714
     22  N         -0.3690  -41.9180   21.0550 N.am   23  SER23      -0.1949
     23  CA        -0.2470  -41.0020   22.1920 C.3    23  SER23       0.1924
     24  C         -1.6170  -40.5860   22.7440 C.2    23  SER23       0.2314
     25  O         -2.6490  -40.8060   22.0990 O.2    23  SER23      -0.2863
     26  CB         0.5680  -39.7640   21.7810 C.3    23  SER23       0.2116
     27  OG         1.0400  -39.0400   22.9120 O.3    23  SER23      -0.2180
     28  N         -3.1740  -42.0940   28.2620 N.3    26  PHE26      -0.1241
     29  CA        -2.4740  -43.3900   28.1330 C.3    26  PHE26       0.1605
     30  C         -0.9800  -43.1340   28.3230 C.2    26  PHE26       0.2264
     31  O         -0.2570  -43.9930   28.8220 O.2    26  PHE26      -0.2867
     32  CB        -2.7410  -44.1160   26.7730 C.3    26  PHE26       0.0534
     33  CG        -2.5700  -45.6460   26.9170 C.ar   26  PHE26      -0.0203
     34  CD1       -3.2920  -46.3140   27.8750 C.ar   26  PHE26      -0.0042
     35  CD2       -1.7540  -46.3340   26.0820 C.ar   26  PHE26      -0.0042
     36  CE1       -3.2140  -47.6810   27.9340 C.ar   26  PHE26      -0.0003
     37  CE2       -1.6240  -47.7020   26.1240 C.ar   26  PHE26      -0.0003
     38  CZ        -2.3630  -48.3540   27.0990 C.ar   26  PHE26      -0.0000
     39  N          2.8290  -44.8800   23.8220 N.3    29  VAL29      -0.1245
     40  CA         3.4520  -46.1690   23.5090 C.3    29  VAL29       0.1561
     41  C          4.4770  -46.0690   22.3760 C.2    29  VAL29       0.2260
     42  O          4.1180  -45.7360   21.2580 O.2    29  VAL29      -0.2867
     43  CB         2.4030  -47.2120   23.1040 C.3    29  VAL29       0.0252
     44  CG1        3.0790  -48.4780   22.5880 C.3    29  VAL29       0.0019
     45  CG2        1.5170  -47.5440   24.2880 C.3    29  VAL29       0.0019
     46  N          7.4750  -48.2700   20.1360 N.3    31  LYS31      -0.1245
     47  CA         7.9520  -49.6030   19.8270 C.3    31  LYS31       0.1561
     48  C          9.4710  -49.5920   19.9510 C.2    31  LYS31       0.2260
     49  O         10.1170  -48.5840   19.6350 O.2    31  LYS31      -0.2867
     50  CB         7.5370  -49.9840   18.4140 C.3    31  LYS31       0.0271
     51  CG         8.5890  -49.6960   17.3550 C.3    31  LYS31       0.0035
     52  CD         8.1110  -50.0830   15.9690 C.3    31  LYS31       0.0206
     53  CE         9.2620  -50.0550   14.9820 C.3    31  LYS31       0.1093
     54  NZ         8.8190  -49.5870   13.6390 N.3    31  LYS31      -0.1314
     55  N          6.7950  -53.3320   23.0510 N.3    46  ALA46      -0.1245
     56  CA         6.0520  -52.1040   23.2480 C.3    46  ALA46       0.1562
     57  C          6.3980  -51.5860   24.6450 C.2    46  ALA46       0.2260
     58  O          6.4110  -52.3440   25.6200 O.2    46  ALA46      -0.2867
     59  CB         4.5540  -52.3540   23.1110 C.3    46  ALA46       0.0290
     60  N          6.1640  -54.5100   27.2040 N.3    84  THR84      -0.1203
     61  CA         5.4690  -55.7420   26.8310 C.3    84  THR84       0.1994
     62  C          5.8540  -56.2040   25.4700 C.2    84  THR84       0.2618
     63  O          6.5230  -55.5040   24.7420 O.2    84  THR84      -0.2717
     64  CB         3.9510  -55.5710   26.7730 C.3    84  THR84       0.1784
     65  OG1        3.6250  -54.5430   25.8380 O.3    84  THR84      -0.2211
     66  CG2        3.4210  -55.2150   28.1010 C.3    84  THR84       0.0376
     67  N          5.3980  -57.3930   25.1230 N.am   85  GLN85      -0.1965
     68  CA         5.6410  -57.9480   23.8120 C.3    85  GLN85       0.1733
     69  C          5.0140  -57.0680   22.7440 C.2    85  GLN85       0.2616
     70  O          3.8260  -56.6960   22.8550 O.2    85  GLN85      -0.2715
     71  CB         5.0220  -59.3320   23.7290 C.3    85  GLN85       0.0408
     72  CG         5.2980  -60.0930   22.4500 C.3    85  GLN85       0.0908
     73  CD         4.5320  -61.3880   22.4010 C.2    85  GLN85       0.2608
     74  OE1        3.6290  -61.6260   23.2160 O.2    85  GLN85      -0.2717
     75  NE2        4.8760  -62.2380   21.4460 N.am   85  GLN85      -0.0878
     76  N          5.8180  -56.7490   21.7160 N.am   86  LEU86      -0.1963
     77  CA         5.3510  -56.0170   20.5560 C.3    86  LEU86       0.1728
     78  C          4.4160  -56.8880   19.7580 C.2    86  LEU86       0.2616
     79  O          4.7620  -58.0240   19.4210 O.2    86  LEU86      -0.2715
     80  CB         6.5250  -55.6080   19.6870 C.3    86  LEU86       0.0311
     81  CG         6.2160  -54.6630   18.5100 C.3    86  LEU86       0.0022
     82  CD1        5.8120  -53.2840   19.0120 C.3    86  LEU86       0.0001
     83  CD2        7.4130  -54.5410   17.5830 C.3    86  LEU86       0.0001
     84  N          3.2340  -56.3560   19.4500 N.am   87  MET87      -0.1964
     85  CA         2.2200  -57.0760   18.6560 C.3    87  MET87       0.1722
     86  C          2.1030  -56.3820   17.3100 C.2    87  MET87       0.2458
     87  O          1.3410  -55.4580   17.1800 O.2    87  MET87      -0.2730
     88  CB         0.8830  -57.0670   19.3850 C.3    87  MET87       0.0427
     89  CG         0.9470  -57.6800   20.7780 C.3    87  MET87       0.0599
     90  SD         1.3520  -59.4420   20.7520 S.3    87  MET87      -0.1393
     91  CE        -0.3100  -60.0710   20.4940 C.3    87  MET87       0.0692
     92  N          2.8740  -56.8310   16.3010 N.am   88  PRO88      -0.2716
     93  CA         3.1970  -55.9470   15.1660 C.3    88  PRO88       0.1536
     94  C          2.0450  -55.5060   14.2610 C.2    88  PRO88       0.2599
     95  O          2.2160  -54.5860   13.4860 O.2    88  PRO88      -0.2715
     96  CB         4.1960  -56.7770   14.3390 C.3    88  PRO88       0.0310
     97  CG         4.6990  -57.8190   15.2580 C.3    88  PRO88       0.0237
     98  CD         3.5500  -58.1350   16.1690 C.3    88  PRO88       0.0939
     99  N          0.9010  -56.1600   14.3280 N.am   89  PHE89      -0.1960
    100  CA        -0.1710  -55.8460   13.4230 C.3    89  PHE89       0.1771
    101  C         -1.2150  -54.9760   14.0980 C.2    89  PHE89       0.2620
    102  O         -2.2140  -54.5900   13.4780 O.2    89  PHE89      -0.2715
    103  CB        -0.7700  -57.1430   12.9160 C.3    89  PHE89       0.0574
    104  CG         0.1260  -57.8830   11.9710 C.ar   89  PHE89      -0.0200
    105  CD1        0.1000  -57.6110   10.6050 C.ar   89  PHE89      -0.0042
    106  CD2        0.9960  -58.8360   12.4350 C.ar   89  PHE89      -0.0042
    107  CE1        0.9170  -58.2900    9.7210 C.ar   89  PHE89      -0.0003
    108  CE2        1.8280  -59.5120   11.5570 C.ar   89  PHE89      -0.0003
    109  CZ         1.7870  -59.2420   10.1910 C.ar   89  PHE89      -0.0000
    110  N         -0.9860  -54.6750   15.3750 N.am   90  GLY90      -0.1940
    111  CA        -1.8090  -53.7300   16.1340 C.3    90  GLY90       0.2014
    112  C         -3.1160  -54.2850   16.6610 C.2    90  GLY90       0.2639
    113  O         -3.2660  -55.5050   16.8120 O.2    90  GLY90      -0.2714
    114  N         -4.0680  -53.3850   16.9430 N.am   91  CYS91      -0.1967
    115  CA        -5.3150  -53.7770   17.6060 C.3    91  CYS91       0.1712
    116  C         -6.2490  -54.3050   16.5620 C.2    91  CYS91       0.2296
    117  O         -6.3410  -53.7460   15.4770 O.2    91  CYS91      -0.2864
    118  CB        -5.9550  -52.6590   18.4550 C.3    91  CYS91       0.0983
    119  SG        -6.8490  -51.3620   17.6110 S.3    91  CYS91      -0.0798
    120  N         -8.8430  -52.3080   14.3440 N.3    94  ASP94      -0.1225
    121  CA        -8.3210  -51.6580   13.1560 C.3    94  ASP94       0.1805
    122  C         -7.9430  -52.6540   12.1270 C.2    94  ASP94       0.2597
    123  O         -8.0850  -52.3980   10.9610 O.2    94  ASP94      -0.2718
    124  CB        -7.1160  -50.8020   13.4690 C.3    94  ASP94       0.1424
    125  CG        -7.5130  -49.4500   13.9270 C.2    94  ASP94       0.3668
    126  OD1       -7.9930  -48.6600   13.0680 O.co2  94  ASP94      -0.2456
    127  OD2       -7.3920  -49.2030   15.1480 O.co2  94  ASP94      -0.2456
    128  N         -7.4450  -53.7940   12.5480 N.am   95  TYR95      -0.1976
    129  CA        -7.0700  -54.8260   11.6000 C.3    95  TYR95       0.1639
    130  C         -8.2470  -55.2620   10.7300 C.2    95  TYR95       0.2290
    131  O         -8.1150  -55.3510    9.5040 O.2    95  TYR95      -0.2864
    132  CB        -6.5270  -56.0350   12.3200 C.3    95  TYR95       0.0560
    133  CG        -5.8300  -56.9700   11.3980 C.ar   95  TYR95      -0.0198
    134  CD1       -4.5240  -56.7370   11.0220 C.ar   95  TYR95      -0.0009
    135  CD2       -6.4780  -58.0990   10.8970 C.ar   95  TYR95      -0.0009
    136  CE1       -3.8630  -57.5910   10.1730 C.ar   95  TYR95       0.0417
    137  CE2       -5.8250  -58.9710   10.0360 C.ar   95  TYR95       0.0417
    138  CZ        -4.5170  -58.7010    9.6860 C.ar   95  TYR95       0.1957
    139  OH        -3.8560  -59.5410    8.8470 O.3    95  TYR95      -0.2866
    140  N         -9.1030  -52.3110    8.3810 N.3    98  GLU98      -0.1245
    141  CA        -8.1640  -52.0250    7.2870 C.3    98  GLU98       0.1567
    142  C         -7.9370  -53.2160    6.3580 C.2    98  GLU98       0.2260
    143  O         -7.2500  -53.0420    5.3530 O.2    98  GLU98      -0.2867
    144  CB        -6.8200  -51.4490    7.7920 C.3    98  GLU98       0.0388
    145  CG        -6.9310  -50.2170    8.6850 C.3    98  GLU98       0.1160
    146  CD        -5.5570  -49.8400    9.2040 C.2    98  GLU98       0.3649
    147  OE1       -4.5420  -50.0170    8.5470 O.co2  98  GLU98      -0.2457
    148  OE2       -5.5490  -49.3250   10.4190 O.co2  98  GLU98      -0.2457
    149  N         -4.9190  -57.6490   20.7440 N.3   138  LEU138     -0.1245
    150  CA        -3.7970  -57.3020   19.8590 C.3   138  LEU138      0.1561
    151  C         -3.4540  -58.4400   18.9570 C.2   138  LEU138      0.2260
    152  O         -3.6900  -59.6000   19.2820 O.2   138  LEU138     -0.2867
    153  CB        -2.5650  -56.8650   20.6280 C.3   138  LEU138      0.0270
    154  CG        -2.8540  -55.5830   21.4190 C.3   138  LEU138      0.0019
    155  CD1       -1.9190  -55.4310   22.6050 C.3   138  LEU138      0.0001
    156  CD2       -2.7890  -54.3560   20.5230 C.3   138  LEU138      0.0001
    157  N         -5.8120  -57.8180   25.8960 N.3   148  THR148     -0.1203
    158  CA        -4.9810  -56.8130   26.5320 C.3   148  THR148      0.1994
    159  C         -5.8140  -55.8280   27.3160 C.2   148  THR148      0.2617
    160  O         -7.0130  -56.0550   27.5270 O.2   148  THR148     -0.2717
    161  CB        -4.0800  -56.1060   25.4880 C.3   148  THR148      0.1784
    162  OG1       -3.1060  -55.3170   26.1470 O.3   148  THR148     -0.2211
    163  CG2       -4.8550  -55.2070   24.5310 C.3   148  THR148      0.0376
    164  N         -5.1630  -54.7560   27.7650 N.am  149  ASP149     -0.1973
    165  CA        -5.7850  -53.6950   28.5510 C.3   149  ASP149      0.1709
    166  C         -6.4510  -54.2140   29.8370 C.2   149  ASP149      0.2293
    167  O         -7.6500  -54.5320   29.8820 O.2   149  ASP149     -0.2864
    168  CB        -6.7510  -52.8840   27.7010 C.3   149  ASP149      0.1436
    169  CG        -6.8560  -51.4360   28.1620 C.2   149  ASP149      0.3671
    170  OD1       -6.8220  -51.2010   29.4040 O.co2 149  ASP149     -0.2456
    171  OD2       -6.9740  -50.5430   27.2720 O.co2 149  ASP149     -0.2456
@<TRIPOS>BOND
     1   143   142    2
     2   142   141    1
     3   141   144    1
     4   141   140    1
     5   144   145    1
     6   147   146   ar
     7   145   146    1
     8   139   138    1
     9   146   148   ar
    10   131   130    2
    11   138   137   ar
    12   138   136   ar
    13   107   109   ar
    14   107   105   ar
    15   137   135   ar
    16   136   134   ar
    17   109   108   ar
    18   105   104   ar
    19   130   129    1
    20   135   133   ar
    21   123   122    2
    22   134   133   ar
    23   133   132    1
    24   108   106   ar
    25   129   132    1
    26   129   128    1
    27   104   106   ar
    28   104   103    1
    29   122   128   am
    30   122   121    1
    31     8     9    1
    32     8     7    1
    33   103   100    1
    34   126   125   ar
    35   121   124    1
    36   121   120    1
    37     7     6    1
    38   100   101    1
    39   100    99    1
    40   124   125    1
    41   102   101    2
    42    95    94    2
    43    54    53    1
    44   125   127   ar
    45   101   110   am
    46    94    99   am
    47    94    93    1
    48    96    93    1
    49    96    97    1
    50     6     5    1
    51    53    52    1
    52    93    92    1
    53    97    98    1
    54   110   111    1
    55   117   116    2
    56     5     2    1
    57    52    51    1
    58   111   112    1
    59    98    92    1
    60    92    86   am
    61   116   115    1
    62    17    15    1
    63   112   113    2
    64   112   114   am
    65   114   115    1
    66     2     1    1
    67     2     3    1
    68    87    86    2
    69    13    12    2
    70    86    85    1
    71    51    50    1
    72    83    81    1
    73   115   118    1
    74   119   118    1
    75    11    12    1
    76    11    14    1
    77    11    10    1
    78     3     4    2
    79    15    14    1
    80    15    16    1
    81    12    18   am
    82    50    47    1
    83    81    82    1
    84    81    80    1
    85    85    88    1
    86    85    84    1
    87   151   152    2
    88   151   150    1
    89    18    19    1
    90    88    89    1
    91    79    78    2
    92    84    78   am
    93    19    20    1
    94    49    48    2
    95    80    77    1
    96    78    77    1
    97    47    48    1
    98    47    46    1
    99   150   153    1
   100   150   149    1
   101    91    90    1
   102   156   154    1
   103    77    76    1
   104   153   154    1
   105    90    89    1
   106    20    22   am
   107    20    21    2
   108    22    23    1
   109    42    41    2
   110   154   155    1
   111    75    73   am
   112    76    69   am
   113    26    23    1
   114    26    27    1
   115    25    24    2
   116    23    24    1
   117    41    40    1
   118    73    72    1
   119    73    74    2
   120    72    71    1
   121    44    43    1
   122    69    70    2
   123    69    68    1
   124    55    56    1
   125    43    40    1
   126    43    45    1
   127    59    56    1
   128    56    57    1
   129    40    39    1
   130    71    68    1
   131    68    67    1
   132   163   161    1
   133    57    58    2
   134    63    62    2
   135    67    62   am
   136    62    61    1
   137   161   162    1
   138   161   158    1
   139    65    64    1
   140   157   158    1
   141    35    37   ar
   142    35    33   ar
   143    37    38   ar
   144   158   159    1
   145    64    61    1
   146    64    66    1
   147    32    33    1
   148    32    29    1
   149    61    60    1
   150    33    34   ar
   151    38    36   ar
   152   171   169   ar
   153   159   160    2
   154   159   164   am
   155   168   169    1
   156   168   165    1
   157   164   165    1
   158    34    36   ar
   159    29    28    1
   160    29    30    1
   161   169   170   ar
   162    30    31    2
   163   165   166    1
   164   166   167    2
