@<TRIPOS>MOLECULE
tmp/4zb0A01.pdb
 132 132 0 0 0
SMALL
GASTEIGER

@<TRIPOS>ATOM
      1  N         23.4620   38.1530   35.9800 N.3    19  TRP19      -0.1241
      2  CA        23.3310   38.9870   34.8180 C.3    19  TRP19       0.1605
      3  C         24.2900   40.1760   34.8850 C.2    19  TRP19       0.2264
      4  O         24.2640   40.9490   35.8470 O.2    19  TRP19      -0.2867
      5  CB        21.9420   39.5740   34.6970 C.3    19  TRP19       0.0550
      6  CG        21.7670   40.3900   33.4010 C.ar   19  TRP19       0.0003
      7  CD1       21.9860   39.9680   32.1120 C.ar   19  TRP19       0.0946
      8  CD2       21.2860   41.7410   33.2990 C.ar   19  TRP19       0.0152
      9  NE1       21.7030   40.9910   31.2180 N.ar   19  TRP19      -0.2442
     10  CE2       21.2740   42.0870   31.9040 C.ar   19  TRP19       0.0810
     11  CE3       20.8660   42.7030   34.2430 C.ar   19  TRP19       0.0012
     12  CZ2       20.8360   43.3290   31.4460 C.ar   19  TRP19       0.0191
     13  CZ3       20.4240   43.9610   33.7770 C.ar   19  TRP19       0.0001
     14  CH2       20.4070   44.2380   32.3720 C.ar   19  TRP19       0.0015
     15  N         24.6110   43.6920   30.3860 N.3    22  ARG22      -0.1231
     16  CA        24.6570   43.9690   28.9450 C.3    22  ARG22       0.1694
     17  C         23.2660   43.9170   28.3800 C.2    22  ARG22       0.2592
     18  O         22.5560   42.9860   28.5890 O.2    22  ARG22      -0.2718
     19  CB        25.5760   42.9470   28.2670 C.3    22  ARG22       0.0321
     20  CG        26.0490   43.3110   26.8800 C.3    22  ARG22       0.0489
     21  CD        26.6090   42.0590   26.1830 C.3    22  ARG22       0.2205
     22  NE        25.5140   41.2520   25.6060 N.pl3  22  ARG22      -0.0865
     23  CZ        25.6610   40.1710   24.8300 C.cat  22  ARG22       0.5346
     24  NH1       26.8760   39.7090   24.4900 N.pl3  22  ARG22       0.1354
     25  NH2       24.5750   39.5490   24.3770 N.pl3  22  ARG22       0.1354
     26  N         22.8350   45.0180   27.7990 N.am   23  ASP23      -0.1960
     27  CA        21.5690   45.1600   27.1790 C.3    23  ASP23       0.1828
     28  C         21.7740   45.5050   25.6510 C.2    23  ASP23       0.2501
     29  O         22.9190   45.5510   25.1880 O.2    23  ASP23      -0.2727
     30  CB        20.7080   46.0990   28.0480 C.3    23  ASP23       0.1450
     31  CG        21.0240   47.5670   27.9230 C.2    23  ASP23       0.3671
     32  OD1       21.6300   48.0410   26.9510 O.co2  23  ASP23      -0.2456
     33  OD2       20.5910   48.2810   28.8450 O.co2  23  ASP23      -0.2456
     34  N         20.7020   45.6390   24.8580 N.am   24  PRO24      -0.2490
     35  CA        20.9450   45.9020   23.4170 C.3    24  PRO24       0.1619
     36  C         21.6600   47.2370   23.1370 C.2    24  PRO24       0.2605
     37  O         22.2170   47.3420   22.0780 O.2    24  PRO24      -0.2715
     38  CB        19.5510   45.9370   22.7850 C.3    24  PRO24       0.0570
     39  CG        18.5630   45.9570   23.9050 C.2    24  PRO24      -0.0077
     40  CD        19.2840   45.7640   25.2270 C.2    24  PRO24       0.0634
     41  N         21.7690   48.1530   24.1240 N.am   25  PHE25      -0.1974
     42  CA        22.3410   49.4460   23.9210 C.3    25  PHE25       0.1639
     43  C         23.6130   49.7160   24.7630 C.2    25  PHE25       0.2290
     44  O         24.0980   50.8100   24.7580 O.2    25  PHE25      -0.2864
     45  CB        21.2630   50.5060   24.1950 C.3    25  PHE25       0.0560
     46  CG        20.0320   50.3440   23.3300 C.ar   25  PHE25      -0.0200
     47  CD1       19.9910   50.8410   22.0590 C.ar   25  PHE25      -0.0042
     48  CD2       18.9430   49.6470   23.7840 C.ar   25  PHE25      -0.0042
     49  CE1       18.8800   50.6790   21.2400 C.ar   25  PHE25      -0.0003
     50  CE2       17.8120   49.4670   22.9650 C.ar   25  PHE25      -0.0003
     51  CZ        17.7930   49.9720   21.6880 C.ar   25  PHE25      -0.0000
     52  N         10.3290   38.7490   21.4250 N.3   185  GLU185     -0.1245
     53  CA        11.6100   39.2080   21.8840 C.3   185  GLU185      0.1567
     54  C         12.4810   38.0250   22.3430 C.2   185  GLU185      0.2260
     55  O         12.1970   37.4810   23.3900 O.2   185  GLU185     -0.2867
     56  CB        11.5290   40.2190   23.0250 C.3   185  GLU185      0.0388
     57  CG        12.8180   40.9450   23.3290 C.3   185  GLU185      0.1160
     58  CD        12.8560   41.5940   24.7190 C.2   185  GLU185      0.3649
     59  OE1       12.3210   41.0030   25.6570 O.co2 185  GLU185     -0.2457
     60  OE2       13.5240   42.6520   24.8590 O.co2 185  GLU185     -0.2457
     61  N          9.2290   45.7070   26.1460 N.3   253  TYR253     -0.1227
     62  CA        10.2930   44.7560   26.3270 C.3   253  TYR253      0.1736
     63  C         10.1980   44.0100   27.6650 C.2   253  TYR253      0.2595
     64  O          9.6570   44.5290   28.6210 O.2   253  TYR253     -0.2718
     65  CB        11.6800   45.4250   26.2160 C.3   253  TYR253      0.0548
     66  CG        12.0590   46.2680   27.4010 C.ar  253  TYR253     -0.0200
     67  CD1       11.6280   47.6030   27.5290 C.ar  253  TYR253     -0.0009
     68  CD2       12.8590   45.7550   28.3860 C.ar  253  TYR253     -0.0009
     69  CE1       11.9640   48.3740   28.6440 C.ar  253  TYR253      0.0417
     70  CE2       13.1920   46.5490   29.5190 C.ar  253  TYR253      0.0417
     71  CZ        12.7350   47.8580   29.6140 C.ar  253  TYR253      0.1957
     72  OH        13.0500   48.5960   30.7610 O.3   253  TYR253     -0.2866
     73  N         10.8560   42.8510   27.7090 N.am  254  ASP254     -0.1960
     74  CA        10.8340   41.9450   28.8410 C.3   254  ASP254      0.1840
     75  C         11.7140   42.5810   29.9370 C.2   254  ASP254      0.2622
     76  O         12.9060   42.5790   29.8160 O.2   254  ASP254     -0.2715
     77  CB        11.4190   40.6020   28.3780 C.3   254  ASP254      0.1450
     78  CG        11.3260   39.5230   29.4180 C.2   254  ASP254      0.3671
     79  OD1       10.3830   39.5000   30.2520 O.co2 254  ASP254     -0.2456
     80  OD2       12.2600   38.6830   29.4570 O.co2 254  ASP254     -0.2456
     81  N         11.1100   43.1120   31.0060 N.am  255  GLN255     -0.1963
     82  CA        11.8440   43.8000   32.0080 C.3   255  GLN255      0.1733
     83  C         12.4850   42.9370   33.0790 C.2   255  GLN255      0.2616
     84  O         13.6060   43.2590   33.5510 O.2   255  GLN255     -0.2715
     85  CB        10.9380   44.8340   32.6800 C.3   255  GLN255      0.0408
     86  CG        10.3090   45.8540   31.7560 C.3   255  GLN255      0.0908
     87  CD         9.6710   46.9770   32.6060 C.2   255  GLN255      0.2608
     88  OE1        8.6440   46.7880   33.2250 O.2   255  GLN255     -0.2717
     89  NE2       10.3680   48.0620   32.7460 N.am  255  GLN255     -0.0878
     90  N         11.8270   41.8250   33.4610 N.am  256  ASP256     -0.1957
     91  CA        12.4290   40.9260   34.4740 C.3   256  ASP256      0.1840
     92  C         12.7780   41.6940   35.7580 C.2   256  ASP256      0.2621
     93  O         13.8230   41.4950   36.3420 O.2   256  ASP256     -0.2715
     94  CB        13.6570   40.2070   33.9050 C.3   256  ASP256      0.1450
     95  CG        13.2840   39.1240   32.9040 C.2   256  ASP256      0.3671
     96  OD1       12.1030   38.8540   32.6480 O.co2 256  ASP256     -0.2456
     97  OD2       14.2150   38.5160   32.3800 O.co2 256  ASP256     -0.2456
     98  N         11.8430   42.5000   36.2400 N.am  257  LEU257     -0.1977
     99  CA        12.0070   43.1600   37.4740 C.3   257  LEU257      0.1596
    100  C         11.8400   42.2110   38.6330 C.2   257  LEU257      0.2287
    101  O         11.2770   41.1040   38.4920 O.2   257  LEU257     -0.2864
    102  CB        10.9820   44.3310   37.6100 C.3   257  LEU257      0.0297
    103  CG        11.0130   45.3680   36.4880 C.3   257  LEU257      0.0022
    104  CD1        9.7820   46.2580   36.6280 C.3   257  LEU257      0.0001
    105  CD2       12.3090   46.1720   36.5240 C.3   257  LEU257      0.0001
    106  N         16.1900   40.1140   36.6960 N.3   288  LYS288     -0.1245
    107  CA        17.5100   40.6360   36.4940 C.3   288  LYS288      0.1561
    108  C         17.6010   41.8680   37.4000 C.2   288  LYS288      0.2260
    109  O         16.7600   42.7900   37.3160 O.2   288  LYS288     -0.2867
    110  CB        17.7050   41.0230   35.0610 C.3   288  LYS288      0.0271
    111  CG        17.6610   39.8850   34.0850 C.3   288  LYS288      0.0035
    112  CD        17.8920   40.4290   32.6920 C.3   288  LYS288      0.0206
    113  CE        18.6260   39.4610   31.7780 C.3   288  LYS288      0.1093
    114  NZ        17.7470   38.7300   30.8460 N.3   288  LYS288     -0.1314
    115  N         18.5910   45.3950   37.9420 N.3   290  PRO290     -0.2102
    116  CA        18.9250   46.4720   36.9650 C.3   290  PRO290      0.1504
    117  C         20.4190   46.7890   36.9090 C.2   290  PRO290      0.2575
    118  O         21.1910   46.6750   37.9170 O.2   290  PRO290     -0.2718
    119  CB        18.0610   47.6790   37.4040 C.3   290  PRO290      0.0282
    120  CG        16.9160   47.0370   38.1080 C.3   290  PRO290      0.0208
    121  CD        17.4540   45.7890   38.7880 C.3   290  PRO290      0.0893
    122  N         20.8380   47.1720   35.7130 N.am  291  ARG291     -0.1980
    123  CA        22.2260   47.4430   35.4830 C.3   291  ARG291      0.1597
    124  C         22.7970   48.6570   36.1730 C.2   291  ARG291      0.2287
    125  O         23.9900   48.7950   36.2260 O.2   291  ARG291     -0.2864
    126  CB        22.5180   47.4490   33.9790 C.3   291  ARG291      0.0334
    127  CG        22.0910   48.6320   33.2310 C.3   291  ARG291      0.0492
    128  CD        22.2420   48.3570   31.7180 C.3   291  ARG291      0.2205
    129  NE        23.5710   48.4280   31.1380 N.pl3 291  ARG291     -0.0865
    130  CZ        24.1880   49.5480   30.7660 C.cat 291  ARG291      0.5346
    131  NH1       23.6640   50.7610   30.9870 N.pl3 291  ARG291      0.1354
    132  NH2       25.3650   49.4700   30.2130 N.pl3 291  ARG291      0.1354
@<TRIPOS>BOND
     1    49    51   ar
     2    49    47   ar
     3    52    53    1
     4    51    50   ar
     5    53    54    1
     6    53    56    1
     7    47    46   ar
     8    37    36    2
     9    54    55    2
    10    38    35    1
    11    38    39    1
    12    50    48   ar
    13    56    57    1
    14    36    35    1
    15    36    41   am
    16    57    58    1
    17    46    48   ar
    18    46    45    1
    19    35    34    1
    20    39    40    2
    21    42    41    1
    22    42    45    1
    23    42    43    1
    24    25    23    1
    25    24    23    1
    26    58    60   ar
    27    58    59   ar
    28    44    43    2
    29    23    22    2
    30    34    40    1
    31    34    28   am
    32    29    28    2
    33    22    21    1
    34    28    27    1
    35    61    62    1
    36    21    20    1
    37    65    62    1
    38    65    66    1
    39    62    63    1
    40    20    19    1
    41    32    31   ar
    42    27    26    1
    43    27    30    1
    44    66    67   ar
    45    66    68   ar
    46    67    69   ar
    47    63    73   am
    48    63    64    2
    49    73    74    1
    50    26    17   am
    51    31    30    1
    52    31    33   ar
    53    19    16    1
    54    77    74    1
    55    77    78    1
    56    17    18    2
    57    17    16    1
    58    68    70   ar
    59    69    71   ar
    60    74    75    1
    61    16    15    1
    62    78    80   ar
    63    78    79   ar
    64    70    71   ar
    65    71    72    1
    66    76    75    2
    67    75    81   am
    68   132   130    1
    69   130   131    1
    70   130   129    2
    71   114   113    1
    72    81    82    1
    73   129   128    1
    74     9    10   ar
    75     9     7   ar
    76    12    10   ar
    77    12    14   ar
    78   128   127    1
    79    86    87    1
    80    86    85    1
    81   113   112    1
    82    10     8   ar
    83    82    85    1
    84    82    83    1
    85     7     6   ar
    86    14    13   ar
    87    97    95   ar
    88    87    89   am
    89    87    88    2
    90    96    95   ar
    91   112   111    1
    92    95    94    1
    93    83    90   am
    94    83    84    2
    95   127   126    1
    96     8     6   ar
    97     8    11   ar
    98     6     5    1
    99    90    91    1
   100    13    11   ar
   101    94    91    1
   102   126   123    1
   103   111   110    1
   104    91    92    1
   105     5     2    1
   106     2     3    1
   107     2     1    1
   108     3     4    2
   109   110   107    1
   110   123   122    1
   111   123   124    1
   112   122   117   am
   113    92    98   am
   114    92    93    2
   115   124   125    2
   116    98    99    1
   117   103   105    1
   118   103   104    1
   119   103   102    1
   120   107   106    1
   121   107   108    1
   122   117   116    1
   123   117   118    2
   124   116   119    1
   125   116   115    1
   126   109   108    2
   127   119   120    1
   128    99   102    1
   129    99   100    1
   130   115   121    1
   131   120   121    1
   132   101   100    2
