@<TRIPOS>MOLECULE
tmp/4zb0B00.pdb
 164 154 0 0 0
SMALL
GASTEIGER

@<TRIPOS>ATOM
      1  N        -25.7440   42.0120   12.1780 N.3    15  TRP15      -0.1241
      2  CA       -25.2780   43.0320   13.0820 C.3    15  TRP15       0.1605
      3  C        -24.1430   43.8760   12.6120 C.2    15  TRP15       0.2264
      4  O        -23.8030   44.8440   13.2830 O.2    15  TRP15      -0.2867
      5  CB       -24.8630   42.4090   14.4180 C.3    15  TRP15       0.0550
      6  CG       -23.5930   41.6360   14.3470 C.ar   15  TRP15       0.0003
      7  CD1      -22.3230   42.1140   14.5760 C.ar   15  TRP15       0.0946
      8  CD2      -23.4370   40.2680   13.9600 C.ar   15  TRP15       0.0152
      9  NE1      -21.3790   41.1080   14.3980 N.ar   15  TRP15      -0.2442
     10  CE2      -22.0480   39.9590   14.0560 C.ar   15  TRP15       0.0810
     11  CE3      -24.3330   39.2330   13.6410 C.ar   15  TRP15       0.0012
     12  CZ2      -21.5470   38.6900   13.7570 C.ar   15  TRP15       0.0191
     13  CZ3      -23.8120   37.9640   13.3790 C.ar   15  TRP15       0.0001
     14  CH2      -22.4350   37.7030   13.4780 C.ar   15  TRP15       0.0015
     15  N        -27.2470   36.6010   15.2410 N.3    53  HIS53      -0.1241
     16  CA       -27.6070   36.3030   16.6110 C.3    53  HIS53       0.1621
     17  C        -29.1280   36.1110   16.6510 C.2    53  HIS53       0.2264
     18  O        -29.8920   36.8270   16.0100 O.2    53  HIS53      -0.2867
     19  CB       -27.3060   37.4510   17.5940 C.3    53  HIS53       0.0745
     20  CG       -25.8670   37.8570   17.6610 C.ar   53  HIS53       0.0817
     21  ND1      -25.3170   38.7930   16.8200 N.ar   53  HIS53      -0.2268
     22  CD2      -24.8780   37.4720   18.4900 C.ar   53  HIS53       0.1154
     23  CE1      -24.0390   38.9610   17.1100 C.ar   53  HIS53       0.1986
     24  NE2      -23.7480   38.1590   18.1200 N.ar   53  HIS53      -0.2212
     25  N        -23.9540   30.0170    9.4270 N.3    87  MET87      -0.1245
     26  CA       -23.5790   30.0920   10.8000 C.3    87  MET87       0.1570
     27  C        -24.6040   30.8900   11.5160 C.2    87  MET87       0.2261
     28  O        -25.1920   31.8360   10.9590 O.2    87  MET87      -0.2867
     29  CB       -22.1910   30.7340   10.9370 C.3    87  MET87       0.0387
     30  CG       -21.6570   30.9540   12.3870 C.3    87  MET87       0.0595
     31  SD       -22.2510   32.4800   13.2410 S.3    87  MET87      -0.1393
     32  CE       -21.0850   33.6910   12.6500 C.3    87  MET87       0.0692
     33  N        -25.4630   32.1740   15.9160 N.3    89  THR89      -0.1203
     34  CA       -24.9260   32.4410   17.2420 C.3    89  THR89       0.1994
     35  C        -25.9990   33.0120   18.2040 C.2    89  THR89       0.2618
     36  O        -27.0870   33.3850   17.7850 O.2    89  THR89      -0.2717
     37  CB       -23.6470   33.3360   17.1090 C.3    89  THR89       0.1784
     38  OG1      -23.0050   33.4890   18.3920 O.3    89  THR89      -0.2211
     39  CG2      -23.9440   34.6390   16.5300 C.3    89  THR89       0.0376
     40  N        -25.6610   33.0970   19.4830 N.am   90  THR90      -0.1952
     41  CA       -26.5710   33.5380   20.5540 C.3    90  THR90       0.1897
     42  C        -26.1190   34.8930   21.0850 C.2    90  THR90       0.2313
     43  O        -24.9540   35.1290   21.1920 O.2    90  THR90      -0.2863
     44  CB       -26.5720   32.5290   21.7390 C.3    90  THR90       0.1794
     45  OG1      -26.4160   31.1970   21.2370 O.3    90  THR90      -0.2208
     46  CG2      -27.8620   32.6360   22.5140 C.3    90  THR90       0.0378
     47  N        -25.0260   38.5940   25.8080 N.3    93  PHE93      -0.1241
     48  CA       -24.2860   39.7420   26.2450 C.3    93  PHE93       0.1605
     49  C        -25.0210   41.0740   26.3490 C.2    93  PHE93       0.2264
     50  O        -24.6210   41.9070   27.1770 O.2    93  PHE93      -0.2867
     51  CB       -22.9990   39.8520   25.4010 C.3    93  PHE93       0.0534
     52  CG       -23.2360   39.9700   23.9200 C.ar   93  PHE93      -0.0203
     53  CD1      -23.5040   41.2190   23.3420 C.ar   93  PHE93      -0.0042
     54  CD2      -23.1740   38.8560   23.1040 C.ar   93  PHE93      -0.0042
     55  CE1      -23.7080   41.3490   21.9440 C.ar   93  PHE93      -0.0003
     56  CE2      -23.4030   38.9600   21.7230 C.ar   93  PHE93      -0.0003
     57  CZ       -23.6740   40.1790   21.1500 C.ar   93  PHE93      -0.0000
     58  N        -21.5800   29.5710   16.5370 N.3   134  VAL134     -0.1245
     59  CA       -20.4860   30.2860   17.1730 C.3   134  VAL134      0.1561
     60  C        -20.8990   30.6670   18.5880 C.2   134  VAL134      0.2260
     61  O        -22.0090   31.0990   18.8100 O.2   134  VAL134     -0.2867
     62  CB       -20.0520   31.5530   16.3510 C.3   134  VAL134      0.0252
     63  CG1      -19.2110   32.5460   17.1570 C.3   134  VAL134      0.0019
     64  CG2      -19.3650   31.1520   15.0640 C.3   134  VAL134      0.0019
     65  N        -19.3960   33.2990   21.4640 N.3   136  TRP136     -0.1241
     66  CA       -18.5120   34.3330   21.9500 C.3   136  TRP136      0.1605
     67  C        -18.9430   34.7260   23.3400 C.2   136  TRP136      0.2264
     68  O        -19.9980   35.3100   23.4860 O.2   136  TRP136     -0.2867
     69  CB       -18.5660   35.5700   21.0640 C.3   136  TRP136      0.0550
     70  CG       -17.8050   36.7110   21.5870 C.ar  136  TRP136      0.0003
     71  CD1      -16.4560   36.7710   21.7880 C.ar  136  TRP136      0.0946
     72  CD2      -18.3190   38.0200   21.9980 C.ar  136  TRP136      0.0152
     73  NE1      -16.1160   38.0370   22.2810 N.ar  136  TRP136     -0.2442
     74  CE2      -17.2180   38.8000   22.4160 C.ar  136  TRP136      0.0810
     75  CE3      -19.5720   38.5880   22.0460 C.ar  136  TRP136      0.0012
     76  CZ2      -17.3460   40.1070   22.8800 C.ar  136  TRP136      0.0191
     77  CZ3      -19.6980   39.9020   22.5230 C.ar  136  TRP136      0.0001
     78  CH2      -18.5840   40.6340   22.9300 C.ar  136  TRP136      0.0015
     79  N        -15.2530   31.6440   19.9000 N.3   180  GLU180     -0.1245
     80  CA       -14.6040   32.8640   19.4590 C.3   180  GLU180      0.1567
     81  C        -13.9050   33.5980   20.6340 C.2   180  GLU180      0.2260
     82  O        -14.5820   33.9950   21.6270 O.2   180  GLU180     -0.2867
     83  CB       -15.5720   33.8040   18.8130 C.3   180  GLU180      0.0388
     84  CG       -14.8720   35.0940   18.3940 C.3   180  GLU180      0.1160
     85  CD       -15.8120   35.9970   17.6180 C.2   180  GLU180      0.3649
     86  OE1      -16.8720   35.4800   17.2360 O.co2 180  GLU180     -0.2457
     87  OE2      -15.5500   37.2060   17.4560 O.co2 180  GLU180     -0.2457
     88  N        -11.6530   36.5000   22.6860 N.3   182  LYS182     -0.1245
     89  CA       -11.3640   37.9280   22.7380 C.3   182  LYS182      0.1561
     90  C        -10.6850   38.1410   24.0930 C.2   182  LYS182      0.2260
     91  O        -11.1260   37.5670   25.0640 O.2   182  LYS182     -0.2867
     92  CB       -12.6660   38.7420   22.5680 C.3   182  LYS182      0.0271
     93  CG       -12.4720   40.2730   22.4980 C.3   182  LYS182      0.0035
     94  CD       -13.8100   41.0300   22.3610 C.3   182  LYS182      0.0206
     95  CE       -13.5050   42.4900   22.1090 C.3   182  LYS182      0.1093
     96  NZ       -14.7250   43.3070   22.2760 N.3   182  LYS182     -0.1314
     97  N        -13.4050   30.0300   16.1770 N.3   214  ASN214     -0.1240
     98  CA       -13.7120   31.0830   15.2840 C.3   214  ASN214      0.1653
     99  C        -12.8790   32.3100   15.6150 C.2   214  ASN214      0.2266
    100  O        -13.3850   33.2330   16.2540 O.2   214  ASN214     -0.2867
    101  CB       -15.1800   31.4360   15.4030 C.3   214  ASN214      0.1155
    102  CG       -15.5740   32.4950   14.4020 C.2   214  ASN214      0.2627
    103  OD1      -15.3410   32.3490   13.2320 O.2   214  ASN214     -0.2716
    104  ND2      -16.1570   33.5820   14.8740 N.am  214  ASN214     -0.0877
    105  N        -10.8800   35.8860   15.3710 N.3   216  GLU216     -0.1245
    106  CA       -11.1970   37.1320   14.7320 C.3   216  GLU216      0.1567
    107  C         -9.9100   37.9190   14.6370 C.2   216  GLU216      0.2260
    108  O         -9.1950   38.0780   15.6530 O.2   216  GLU216     -0.2867
    109  CB       -12.2610   37.9140   15.5350 C.3   216  GLU216      0.0388
    110  CG       -12.4290   39.2960   14.9310 C.3   216  GLU216      0.1160
    111  CD       -13.4590   40.1880   15.6010 C.2   216  GLU216      0.3649
    112  OE1      -14.6390   39.7160   15.8860 O.co2 216  GLU216     -0.2457
    113  OE2      -13.0350   41.3800   15.8050 O.co2 216  GLU216     -0.2457
    114  N         -9.2920   40.5810   17.2750 N.3   219  HIS219     -0.1241
    115  CA        -9.2350   40.1410   18.6720 C.3   219  HIS219      0.1621
    116  C         -7.8840   39.6340   19.0800 C.2   219  HIS219      0.2264
    117  O         -7.3850   39.9940   20.1560 O.2   219  HIS219     -0.2867
    118  CB       -10.2760   39.1060   19.0000 C.3   219  HIS219      0.0745
    119  CG       -11.6930   39.6360   18.9240 C.ar  219  HIS219      0.0817
    120  ND1      -12.7710   38.8100   19.1050 N.ar  219  HIS219     -0.2268
    121  CD2      -12.1970   40.8670   18.6960 C.ar  219  HIS219      0.1154
    122  CE1      -13.8980   39.5000   19.0040 C.ar  219  HIS219      0.1986
    123  NE2      -13.5850   40.7540   18.7520 N.ar  219  HIS219     -0.2212
    124  N        -13.5180   35.1510   11.4390 N.3   244  ASP244     -0.1239
    125  CA       -14.0470   36.4700   11.3610 C.3   244  ASP244      0.1674
    126  C        -12.9460   37.4080   10.8370 C.2   244  ASP244      0.2266
    127  O        -11.9270   37.5750   11.5250 O.2   244  ASP244     -0.2867
    128  CB       -14.4830   37.0110   12.7420 C.3   244  ASP244      0.1410
    129  CG       -15.8940   36.5730   13.1260 C.2   244  ASP244      0.3668
    130  OD1      -16.5200   35.7100   12.5390 O.co2 244  ASP244     -0.2456
    131  OD2      -16.2780   37.0090   14.1490 O.co2 244  ASP244     -0.2456
    132  N        -11.8090   47.3110   20.6110 N.3   254  ASP254     -0.1239
    133  CA       -12.1210   46.4890   19.4380 C.3   254  ASP254      0.1674
    134  C        -12.6960   47.4090   18.3520 C.2   254  ASP254      0.2266
    135  O        -13.8270   47.9180   18.4840 O.2   254  ASP254     -0.2867
    136  CB       -13.1050   45.4040   19.8780 C.3   254  ASP254      0.1410
    137  CG       -13.4400   44.4050   18.8020 C.2   254  ASP254      0.3668
    138  OD1      -12.5530   44.0310   18.0100 O.co2 254  ASP254     -0.2456
    139  OD2      -14.6270   43.9930   18.7960 O.co2 254  ASP254     -0.2456
    140  N        -13.1960   46.8310   14.8430 N.3   256  ASP256     -0.1239
    141  CA       -14.0130   46.2010   13.8240 C.3   256  ASP256      0.1674
    142  C        -14.0190   47.0060   12.5050 C.2   256  ASP256      0.2266
    143  O        -15.0120   47.1460   11.8390 O.2   256  ASP256     -0.2867
    144  CB       -15.4470   45.9170   14.3510 C.3   256  ASP256      0.1410
    145  CG       -15.5180   44.7520   15.3120 C.2   256  ASP256      0.3668
    146  OD1      -14.5480   44.0410   15.5860 O.co2 256  ASP256     -0.2456
    147  OD2      -16.5700   44.5590   15.9330 O.co2 256  ASP256     -0.2456
    148  N        -16.8750   40.2380   10.2090 N.3   286  ASP286     -0.1239
    149  CA       -17.3690   40.8410   11.4100 C.3   286  ASP286      0.1674
    150  C        -16.7900   42.2390   11.5480 C.2   286  ASP286      0.2266
    151  O        -15.7770   42.4460   12.1710 O.2   286  ASP286     -0.2867
    152  CB       -17.0720   39.9990   12.6270 C.3   286  ASP286      0.1410
    153  CG       -17.7430   40.5410   13.8260 C.2   286  ASP286      0.3668
    154  OD1      -18.6650   41.3570   13.7170 O.co2 286  ASP286     -0.2456
    155  OD2      -17.2850   40.2540   14.9270 O.co2 286  ASP286     -0.2456
    156  N        -17.7960   46.7460   11.5460 N.3   288  LYS288     -0.1245
    157  CA       -18.8360   47.7850   11.7540 C.3   288  LYS288      0.1561
    158  C        -18.4630   48.9480   10.8850 C.2   288  LYS288      0.2260
    159  O        -17.3230   49.4770   11.0430 O.2   288  LYS288     -0.2867
    160  CB       -18.8220   48.2200   13.1920 C.3   288  LYS288      0.0271
    161  CG       -19.4930   47.1920   14.0980 C.3   288  LYS288      0.0035
    162  CD       -19.1240   47.4620   15.5550 C.3   288  LYS288      0.0206
    163  CE       -19.9590   46.6560   16.5460 C.3   288  LYS288      0.1093
    164  NZ       -19.3620   45.3080   16.6630 N.3   288  LYS288     -0.1314
@<TRIPOS>BOND
     1    25    26    1
     2   148   149    1
     3    26    29    1
     4    26    27    1
     5   126   125    1
     6   126   127    2
     7   158   159    2
     8   158   157    1
     9    29    30    1
    10    28    27    2
    11   125   124    1
    12   125   128    1
    13   149   150    1
    14   149   152    1
    15   156   157    1
    16   150   151    2
    17   157   160    1
    18   143   142    2
    19     1     2    1
    20    30    31    1
    21   142   141    1
    22   130   129   ar
    23     3     2    1
    24     3     4    2
    25   152   153    1
    26    32    31    1
    27   128   129    1
    28     2     5    1
    29   129   131   ar
    30   160   161    1
    31   103   102    2
    32    13    14   ar
    33    13    11   ar
    34    14    12   ar
    35    11     8   ar
    36   154   153   ar
    37    12    10   ar
    38   141   144    1
    39   141   140    1
    40   153   155   ar
    41     8    10   ar
    42     8     6   ar
    43    10     9   ar
    44   161   162    1
    45     6     5    1
    46     6     7   ar
    47   144   145    1
    48     9     7   ar
    49   102   104   am
    50   102   101    1
    51   107   106    1
    52   107   108    2
    53   106   105    1
    54   106   109    1
    55   110   109    1
    56   110   111    1
    57    64    62    1
    58    15    16    1
    59    98   101    1
    60    98    99    1
    61    98    97    1
    62   145   146   ar
    63   145   147   ar
    64   162   163    1
    65   111   113   ar
    66   111   112   ar
    67    99   100    2
    68    33    34    1
    69    18    17    2
    70    62    63    1
    71    62    59    1
    72    39    37    1
    73    58    59    1
    74   163   164    1
    75    16    17    1
    76    16    19    1
    77    21    23   ar
    78    21    20   ar
    79    37    34    1
    80    37    38    1
    81    23    24   ar
    82    59    60    1
    83    86    85   ar
    84    34    35    1
    85   114   115    1
    86    87    85   ar
    87    19    20    1
    88    85    84    1
    89    20    22   ar
    90    36    35    2
    91   138   137   ar
    92    24    22   ar
    93    35    40   am
    94   134   135    2
    95   134   133    1
    96    84    83    1
    97    60    61    2
    98   115   118    1
    99   115   116    1
   100   121   123   ar
   101   121   119   ar
   102   123   122   ar
   103   139   137   ar
   104   137   136    1
   105    83    80    1
   106   119   118    1
   107   119   120   ar
   108   122   120   ar
   109   116   117    2
   110   133   136    1
   111   133   132    1
   112    80    79    1
   113    80    81    1
   114    40    41    1
   115    41    42    1
   116    41    44    1
   117    81    82    2
   118    69    70    1
   119    69    66    1
   120    42    43    2
   121    57    56   ar
   122    57    55   ar
   123    45    44    1
   124    65    66    1
   125    70    71   ar
   126    70    72   ar
   127    56    54   ar
   128    44    46    1
   129    71    73   ar
   130    55    53   ar
   131    66    67    1
   132    72    75   ar
   133    72    74   ar
   134    75    77   ar
   135    95    96    1
   136    95    94    1
   137    73    74   ar
   138    94    93    1
   139    74    76   ar
   140    93    92    1
   141    77    78   ar
   142    92    89    1
   143    88    89    1
   144    89    90    1
   145    76    78   ar
   146    54    52   ar
   147    67    68    2
   148    53    52   ar
   149    52    51    1
   150    90    91    2
   151    51    48    1
   152    47    48    1
   153    48    49    1
   154    49    50    2
