@<TRIPOS>MOLECULE
tmp/4zbcB01.pdb
 122 119 0 0 0
SMALL
GASTEIGER

@<TRIPOS>ATOM
      1  N        -62.0210   14.9970  -13.1940 N.3    15  TRP15      -0.1241
      2  CA       -62.0730   13.8850  -14.1170 C.3    15  TRP15       0.1605
      3  C        -61.3660   12.6230  -13.5920 C.2    15  TRP15       0.2264
      4  O        -61.3490   11.6030  -14.2790 O.2    15  TRP15      -0.2867
      5  CB       -61.4320   14.2840  -15.4340 C.3    15  TRP15       0.0550
      6  CG       -59.9240   14.5050  -15.3190 C.ar   15  TRP15       0.0003
      7  CD1      -58.9470   13.5810  -15.5800 C.ar   15  TRP15       0.0946
      8  CD2      -59.2360   15.7390  -15.0200 C.ar   15  TRP15       0.0152
      9  NE1      -57.7290   14.1250  -15.3700 N.ar   15  TRP15      -0.2442
     10  CE2      -57.8570   15.4480  -15.0440 C.ar   15  TRP15       0.0810
     11  CE3      -59.6480   17.0450  -14.6540 C.ar   15  TRP15       0.0012
     12  CZ2      -56.8670   16.4130  -14.8000 C.ar   15  TRP15       0.0191
     13  CZ3      -58.6460   17.9920  -14.3520 C.ar   15  TRP15       0.0001
     14  CH2      -57.2700   17.6510  -14.4720 C.ar   15  TRP15       0.0015
     15  N        -63.9380    9.6750  -13.1490 N.3    19  TRP19      -0.1241
     16  CA       -63.8790    8.8140  -14.3130 C.3    19  TRP19       0.1605
     17  C        -64.8490    7.6620  -14.1790 C.2    19  TRP19       0.2264
     18  O        -64.7880    6.8870  -13.2030 O.2    19  TRP19      -0.2867
     19  CB       -62.4890    8.2560  -14.5100 C.3    19  TRP19       0.0550
     20  CG       -62.3620    7.4200  -15.7560 C.ar   19  TRP19       0.0003
     21  CD1      -62.6760    7.8190  -17.0360 C.ar   19  TRP19       0.0946
     22  CD2      -61.8700    6.0640  -15.8620 C.ar   19  TRP19       0.0152
     23  NE1      -62.3920    6.7860  -17.9210 N.ar   19  TRP19      -0.2442
     24  CE2      -61.8840    5.7150  -17.2460 C.ar   19  TRP19       0.0810
     25  CE3      -61.4220    5.1120  -14.9260 C.ar   19  TRP19       0.0012
     26  CZ2      -61.5000    4.4370  -17.7260 C.ar   19  TRP19       0.0191
     27  CZ3      -60.9860    3.8360  -15.3920 C.ar   19  TRP19       0.0001
     28  CH2      -61.0720    3.5050  -16.7830 C.ar   19  TRP19       0.0015
     29  N        -65.1970    4.1700  -18.6680 N.3    22  ARG22      -0.1245
     30  CA       -65.2100    3.9200  -20.1230 C.3    22  ARG22       0.1563
     31  C        -63.8060    3.9530  -20.7220 C.2    22  ARG22       0.2260
     32  O        -63.0230    4.9060  -20.5800 O.2    22  ARG22      -0.2867
     33  CB       -66.1580    4.9330  -20.8170 C.3    22  ARG22       0.0307
     34  CG       -66.5520    4.5950  -22.2440 C.3    22  ARG22       0.0489
     35  CD       -66.9650    5.8610  -23.0140 C.3    22  ARG22       0.2205
     36  NE       -65.8180    6.6680  -23.5080 N.pl3  22  ARG22      -0.0865
     37  CZ       -65.9040    7.8620  -24.1190 C.cat  22  ARG22       0.5346
     38  NH1      -67.0960    8.4560  -24.3160 N.pl3  22  ARG22       0.1354
     39  NH2      -64.7860    8.4770  -24.5350 N.pl3  22  ARG22       0.1354
     40  N        -61.2520   20.5900  -16.2170 N.3    53  HIS53      -0.1241
     41  CA       -61.4880   21.0310  -17.5870 C.3    53  HIS53       0.1621
     42  C        -62.8210   21.7300  -17.6170 C.2    53  HIS53       0.2264
     43  O        -63.7510   21.3060  -16.9320 O.2    53  HIS53      -0.2867
     44  CB       -61.6180   19.8720  -18.6020 C.3    53  HIS53       0.0745
     45  CG       -60.4710   18.9130  -18.6110 C.ar   53  HIS53       0.0817
     46  ND1      -60.3950   17.8310  -17.7590 N.ar   53  HIS53      -0.2268
     47  CD2      -59.4240   18.7990  -19.4600 C.ar   53  HIS53       0.1154
     48  CE1      -59.2950   17.1460  -18.0340 C.ar   53  HIS53       0.1986
     49  NE2      -58.6960   17.7110  -19.0670 N.ar   53  HIS53      -0.2212
     50  N        -65.6810   19.2630  -17.7370 N.3    56  ASP56      -0.1239
     51  CA       -65.9710   18.4650  -16.5140 C.3    56  ASP56       0.1674
     52  C        -66.9750   19.1730  -15.6490 C.2    56  ASP56       0.2266
     53  O        -67.7980   18.5440  -15.0150 O.2    56  ASP56      -0.2867
     54  CB       -64.7290   18.3310  -15.6220 C.3    56  ASP56       0.1410
     55  CG       -63.5740   17.6600  -16.3080 C.2    56  ASP56       0.3668
     56  OD1      -63.7950   16.7740  -17.1240 O.co2  56  ASP56      -0.2456
     57  OD2      -62.4330   17.9930  -15.9970 O.co2  56  ASP56      -0.2456
     58  N        -60.7650   21.2650  -22.1800 N.3    91  ASN91      -0.1240
     59  CA       -60.9360   20.0640  -22.9490 C.3    91  ASN91       0.1653
     60  C        -60.8860   20.3460  -24.4650 C.2    91  ASN91       0.2266
     61  O        -61.8360   20.8410  -25.0600 O.2    91  ASN91      -0.2867
     62  CB       -62.1980   19.2550  -22.4960 C.3    91  ASN91       0.1155
     63  CG       -62.2570   17.9100  -23.1860 C.2    91  ASN91       0.2627
     64  OD1      -61.8430   17.7660  -24.3750 O.2    91  ASN91      -0.2716
     65  ND2      -62.8310   16.9520  -22.5180 N.am   91  ASN91      -0.0877
     66  N        -59.9300   17.9320  -26.6990 N.3    93  PHE93      -0.1227
     67  CA       -59.6980   16.5680  -27.1620 C.3    93  PHE93       0.1736
     68  C        -60.9270   15.6820  -27.2760 C.2    93  PHE93       0.2596
     69  O        -60.8770   14.7570  -28.0400 O.2    93  PHE93      -0.2718
     70  CB       -58.6380   15.8360  -26.2750 C.3    93  PHE93       0.0547
     71  CG       -58.8980   15.9150  -24.7890 C.ar   93  PHE93      -0.0202
     72  CD1      -59.6640   14.9640  -24.1410 C.ar   93  PHE93      -0.0042
     73  CD2      -58.3660   16.9270  -24.0320 C.ar   93  PHE93      -0.0042
     74  CE1      -59.9210   15.0500  -22.7960 C.ar   93  PHE93      -0.0003
     75  CE2      -58.5970   16.9950  -22.6910 C.ar   93  PHE93      -0.0003
     76  CZ       -59.3840   16.0860  -22.0820 C.ar   93  PHE93      -0.0000
     77  N        -61.9540   15.8740  -26.4680 N.am   94  THR94      -0.1953
     78  CA       -63.0690   14.9620  -26.4600 C.3    94  THR94       0.1897
     79  C        -63.9270   15.1050  -27.6760 C.2    94  THR94       0.2313
     80  O        -64.3050   14.1080  -28.2720 O.2    94  THR94      -0.2863
     81  CB       -63.9250   15.0240  -25.1690 C.3    94  THR94       0.1794
     82  OG1      -63.1160   14.5910  -24.0840 O.3    94  THR94      -0.2208
     83  CG2      -65.0910   14.0230  -25.2020 C.3    94  THR94       0.0378
     84  N        -52.8600   20.6640  -22.3790 N.3   136  TRP136     -0.1241
     85  CA       -52.4170   19.3460  -22.8220 C.3   136  TRP136      0.1605
     86  C        -52.9120   19.1300  -24.2200 C.2   136  TRP136      0.2264
     87  O        -54.1280   19.0160  -24.4190 O.2   136  TRP136     -0.2867
     88  CB       -53.0030   18.2800  -21.9440 C.3   136  TRP136      0.0550
     89  CG       -52.7380   16.8930  -22.4400 C.ar  136  TRP136      0.0003
     90  CD1      -51.5150   16.2970  -22.5370 C.ar  136  TRP136      0.0946
     91  CD2      -53.6990   15.9120  -22.8240 C.ar  136  TRP136      0.0152
     92  NE1      -51.6540   15.0280  -23.0410 N.ar  136  TRP136     -0.2442
     93  CE2      -52.9840   14.7670  -23.2220 C.ar  136  TRP136      0.0810
     94  CE3      -55.1040   15.9230  -22.9590 C.ar  136  TRP136      0.0012
     95  CZ2      -53.6040   13.6190  -23.6700 C.ar  136  TRP136      0.0191
     96  CZ3      -55.7240   14.8080  -23.4110 C.ar  136  TRP136      0.0001
     97  CH2      -54.9880   13.6510  -23.7470 C.ar  136  TRP136      0.0015
     98  N        -52.4710    5.7920  -15.7130 N.3   256  ASP256     -0.1239
     99  CA       -53.0650    6.6810  -14.7210 C.3   256  ASP256      0.1674
    100  C        -53.3920    5.9270  -13.4260 C.2   256  ASP256      0.2266
    101  O        -54.4360    6.1580  -12.8240 O.2   256  ASP256     -0.2867
    102  CB       -54.2920    7.4360  -15.2690 C.3   256  ASP256      0.1410
    103  CG       -53.9000    8.5610  -16.2330 C.2   256  ASP256      0.3668
    104  OD1      -52.6770    8.7950  -16.4450 O.co2 256  ASP256     -0.2456
    105  OD2      -54.7720    9.1940  -16.8370 O.co2 256  ASP256     -0.2456
    106  N        -53.2010   13.2310  -11.1140 N.3   286  ASP286     -0.1239
    107  CA       -53.9410   12.8760  -12.3310 C.3   286  ASP286      0.1674
    108  C        -53.9460   11.3530  -12.4740 C.2   286  ASP286      0.2266
    109  O        -53.0280   10.7680  -13.0700 O.2   286  ASP286     -0.2867
    110  CB       -53.3910   13.5750  -13.5750 C.3   286  ASP286      0.1410
    111  CG       -54.2330   13.3050  -14.7830 C.2   286  ASP286      0.3668
    112  OD1      -55.3660   12.7930  -14.6240 O.co2 286  ASP286     -0.2456
    113  OD2      -53.7340   13.4800  -15.9030 O.co2 286  ASP286     -0.2456
    114  N        -56.7450    7.5860  -12.4650 N.3   288  LYS288     -0.1245
    115  CA       -58.0830    7.0010  -12.6530 C.3   288  LYS288      0.1561
    116  C        -58.2300    5.7870  -11.7450 C.2   288  LYS288      0.2260
    117  O        -57.4860    4.8020  -11.8760 O.2   288  LYS288     -0.2867
    118  CB       -58.2580    6.6040  -14.1100 C.3   288  LYS288      0.0271
    119  CG       -58.5490    7.7880  -14.9730 C.3   288  LYS288      0.0035
    120  CD       -58.5990    7.4240  -16.4390 C.3   288  LYS288      0.0206
    121  CE       -59.1740    8.5930  -17.2270 C.3   288  LYS288      0.1093
    122  NZ       -58.8030    8.4050  -18.6450 N.3   288  LYS288     -0.1314
@<TRIPOS>BOND
     1    80    79    2
     2    69    68    2
     3    79    78    1
     4    68    67    1
     5    68    77   am
     6    67    66    1
     7    67    70    1
     8    77    78    1
     9    78    81    1
    10    70    71    1
    11    83    81    1
    12    81    82    1
    13    61    60    2
    14    71    72   ar
    15    71    73   ar
    16    39    37    1
    17    60    59    1
    18    87    86    2
    19    64    63    2
    20    38    37    1
    21    86    85    1
    22    72    74   ar
    23    37    36    2
    24    73    75   ar
    25    97    95   ar
    26    97    96   ar
    27    95    93   ar
    28    36    35    1
    29    96    94   ar
    30    93    92   ar
    31    93    91   ar
    32    63    65   am
    33    63    62    1
    34    92    90   ar
    35    35    34    1
    36    94    91   ar
    37    59    62    1
    38    59    58    1
    39    91    89   ar
    40    85    84    1
    41    85    88    1
    42    74    76   ar
    43    75    76   ar
    44    90    89   ar
    45    89    88    1
    46    34    33    1
    47    33    30    1
    48    31    32    2
    49    31    30    1
    50    30    29    1
    51    47    49   ar
    52    47    45   ar
    53    49    48   ar
    54   122   121    1
    55    45    44    1
    56    45    46   ar
    57    44    41    1
    58    48    46   ar
    59    23    24   ar
    60    23    21   ar
    61    50    51    1
    62    26    24   ar
    63    26    28   ar
    64    42    41    1
    65    42    43    2
    66    41    40    1
    67    24    22   ar
    68   121   120    1
    69    56    55   ar
    70    21    20   ar
    71   105   103   ar
    72    28    27   ar
    73    51    52    1
    74    51    54    1
    75   104   103   ar
    76   120   119    1
    77    55    57   ar
    78    55    54    1
    79   103   102    1
    80   113   111   ar
    81    22    20   ar
    82    22    25   ar
    83    20    19    1
    84    98    99    1
    85    52    53    2
    86     7     9   ar
    87     7     6   ar
    88     5     6    1
    89     5     2    1
    90    27    25   ar
    91     9    10   ar
    92     6     8   ar
    93   102    99    1
    94    10     8   ar
    95    10    12   ar
    96     8    11   ar
    97   119   118    1
    98    12    14   ar
    99   111   112   ar
   100   111   110    1
   101    99   100    1
   102    11    13   ar
   103    19    16    1
   104    14    13   ar
   105    16    17    1
   106    16    15    1
   107     4     3    2
   108    17    18    2
   109     2     3    1
   110     2     1    1
   111   118   115    1
   112   110   107    1
   113   100   101    2
   114   109   108    2
   115   115   114    1
   116   115   116    1
   117   108   107    1
   118   107   106    1
   119   117   116    2
