@<TRIPOS>MOLECULE
tmp/4zbcA02.pdb
 100 98 0 0 0
SMALL
GASTEIGER

@<TRIPOS>ATOM
      1  N        -15.1630    4.9500  -36.6930 N.3    15  TRP15      -0.1241
      2  CA       -15.6400    3.9120  -35.7490 C.3    15  TRP15       0.1605
      3  C        -16.7970    3.0870  -36.2700 C.2    15  TRP15       0.2264
      4  O        -17.1560    2.1180  -35.6110 O.2    15  TRP15      -0.2867
      5  CB       -16.0660    4.5920  -34.4590 C.3    15  TRP15       0.0550
      6  CG       -17.3370    5.4010  -34.5570 C.ar   15  TRP15       0.0003
      7  CD1      -18.5960    4.9360  -34.3280 C.ar   15  TRP15       0.0946
      8  CD2      -17.4760    6.7950  -34.8570 C.ar   15  TRP15       0.0152
      9  NE1      -19.5350    5.9420  -34.5320 N.ar   15  TRP15      -0.2442
     10  CE2      -18.8610    7.0890  -34.8570 C.ar   15  TRP15       0.0810
     11  CE3      -16.5640    7.8230  -35.1790 C.ar   15  TRP15       0.0012
     12  CZ2      -19.3650    8.3800  -35.0950 C.ar   15  TRP15       0.0191
     13  CZ3      -17.0590    9.0690  -35.4380 C.ar   15  TRP15       0.0001
     14  CH2      -18.4400    9.3410  -35.3920 C.ar   15  TRP15       0.0015
     15  N        -15.7300   -0.6710  -36.6700 N.3    19  TRP19      -0.1241
     16  CA       -16.1360   -1.3480  -35.4890 C.3    19  TRP19       0.1605
     17  C        -15.7360   -2.8130  -35.5620 C.2    19  TRP19       0.2264
     18  O        -16.1150   -3.5070  -36.5000 O.2    19  TRP19      -0.2867
     19  CB       -17.6830   -1.3310  -35.3660 C.3    19  TRP19       0.0550
     20  CG       -18.1660   -2.0310  -34.1430 C.ar   19  TRP19       0.0003
     21  CD1      -17.7600   -1.7840  -32.8300 C.ar   19  TRP19       0.0946
     22  CD2      -19.1030   -3.1010  -34.0670 C.ar   19  TRP19       0.0152
     23  NE1      -18.4090   -2.5990  -31.9770 N.ar   19  TRP19      -0.2442
     24  CE2      -19.2610   -3.4130  -32.6970 C.ar   19  TRP19       0.0810
     25  CE3      -19.8980   -3.7610  -35.0010 C.ar   19  TRP19       0.0012
     26  CZ2      -20.1280   -4.4130  -32.2580 C.ar   19  TRP19       0.0191
     27  CZ3      -20.7660   -4.7570  -34.5590 C.ar   19  TRP19       0.0001
     28  CH2      -20.8670   -5.0860  -33.2010 C.ar   19  TRP19       0.0015
     29  N        -17.0140   -6.1270  -31.1010 N.3    22  ARG22      -0.1245
     30  CA       -17.1290   -6.3780  -29.6540 C.3    22  ARG22       0.1563
     31  C        -18.4430   -5.8500  -29.1260 C.2    22  ARG22       0.2260
     32  O        -18.8140   -4.7270  -29.4170 O.2    22  ARG22      -0.2867
     33  CB       -15.9010   -5.7750  -28.9110 C.3    22  ARG22       0.0307
     34  CG       -15.5780   -6.4290  -27.5770 C.3    22  ARG22       0.0489
     35  CD       -14.5970   -5.5920  -26.7200 C.3    22  ARG22       0.2205
     36  NE       -15.2780   -4.3870  -26.2020 N.pl3  22  ARG22      -0.0865
     37  CZ       -14.7010   -3.2830  -25.7170 C.cat  22  ARG22       0.5346
     38  NH1      -13.3800   -3.1770  -25.6180 N.pl3  22  ARG22       0.1354
     39  NH2      -15.4670   -2.2740  -25.3190 N.pl3  22  ARG22       0.1354
     40  N        -13.6760   10.4170  -33.6100 N.3    53  HIS53      -0.1241
     41  CA       -13.2700   10.6890  -32.2290 C.3    53  HIS53       0.1621
     42  C        -11.7600   10.8420  -32.2150 C.2    53  HIS53       0.2264
     43  O        -11.0560   10.0980  -32.9420 O.2    53  HIS53      -0.2867
     44  CB       -13.5770    9.5580  -31.2070 C.3    53  HIS53       0.0745
     45  CG       -15.0240    9.1390  -31.1460 C.ar   53  HIS53       0.0817
     46  ND1      -15.5790    8.2730  -32.0530 N.ar   53  HIS53      -0.2268
     47  CD2      -16.0290    9.4920  -30.3120 C.ar   53  HIS53       0.1154
     48  CE1      -16.8520    8.0730  -31.7450 C.ar   53  HIS53       0.1986
     49  NE2      -17.1500    8.8230  -30.7080 N.ar   53  HIS53      -0.2212
     50  N         -9.6990    9.5670  -30.2560 N.3    55  ASP55      -0.1225
     51  CA        -9.0910    8.2580  -30.0110 C.3    55  ASP55       0.1805
     52  C         -9.2700    7.2290  -31.1100 C.2    55  ASP55       0.2597
     53  O         -8.5840    6.2010  -31.0720 O.2    55  ASP55      -0.2718
     54  CB        -9.5840    7.6640  -28.6660 C.3    55  ASP55       0.1424
     55  CG        -9.2370    8.5410  -27.4790 C.2    55  ASP55       0.3668
     56  OD1       -8.3430    9.4090  -27.5530 O.co2  55  ASP55      -0.2456
     57  OD2       -9.8110    8.3040  -26.4160 O.co2  55  ASP55      -0.2456
     58  N        -10.1490    7.4690  -32.0820 N.am   56  ASP56      -0.1974
     59  CA       -10.1510    6.6690  -33.3210 C.3    56  ASP56       0.1709
     60  C         -8.9100    6.9520  -34.2010 C.2    56  ASP56       0.2293
     61  O         -8.4660    6.0840  -34.9320 O.2    56  ASP56      -0.2864
     62  CB       -11.3430    7.0250  -34.2170 C.3    56  ASP56       0.1436
     63  CG       -12.6400    6.8010  -33.5800 C.2    56  ASP56       0.3671
     64  OD1      -12.7700    5.8760  -32.7690 O.co2  56  ASP56      -0.2456
     65  OD2      -13.5900    7.5430  -33.8860 O.co2  56  ASP56      -0.2456
     66  N        -13.8110   11.1700  -27.6740 N.3    91  ASN91      -0.1240
     67  CA       -14.0900    9.9800  -26.8550 C.3    91  ASN91       0.1653
     68  C        -14.0070   10.3090  -25.3490 C.2    91  ASN91       0.2266
     69  O        -12.9090   10.3810  -24.7700 O.2    91  ASN91      -0.2867
     70  CB       -13.2100    8.7600  -27.2170 C.3    91  ASN91       0.1155
     71  CG       -13.7440    7.4850  -26.5700 C.2    91  ASN91       0.2627
     72  OD1      -14.2360    7.5180  -25.4240 O.2    91  ASN91      -0.2716
     73  ND2      -13.6380    6.3730  -27.2650 N.am   91  ASN91      -0.0877
     74  N        -15.9140    8.3920  -23.1740 N.3    93  PHE93      -0.1227
     75  CA       -16.7190    7.2620  -22.7290 C.3    93  PHE93       0.1736
     76  C        -15.9660    5.9160  -22.5940 C.2    93  PHE93       0.2596
     77  O        -16.3900    5.1230  -21.8140 O.2    93  PHE93      -0.2718
     78  CB       -17.9690    7.0740  -23.5810 C.3    93  PHE93       0.0547
     79  CG       -17.7010    7.0380  -25.0710 C.ar   93  PHE93      -0.0202
     80  CD1      -17.3280    5.8370  -25.7040 C.ar   93  PHE93      -0.0042
     81  CD2      -17.7760    8.2100  -25.8290 C.ar   93  PHE93      -0.0042
     82  CE1      -17.0900    5.8130  -27.0770 C.ar   93  PHE93      -0.0003
     83  CE2      -17.5030    8.1830  -27.1950 C.ar   93  PHE93      -0.0003
     84  CZ       -17.1920    6.9740  -27.8150 C.ar   93  PHE93      -0.0000
     85  N        -14.8840    5.6880  -23.3460 N.am   94  THR94      -0.1953
     86  CA       -14.1780    4.3920  -23.3250 C.3    94  THR94       0.1897
     87  C        -13.2520    4.1920  -22.1120 C.2    94  THR94       0.2313
     88  O        -13.3540    3.1720  -21.4460 O.2    94  THR94      -0.2863
     89  CB       -13.3870    4.2100  -24.6120 C.3    94  THR94       0.1794
     90  OG1      -14.3400    4.1520  -25.6960 O.3    94  THR94      -0.2208
     91  CG2      -12.5160    2.9620  -24.5390 C.3    94  THR94       0.0378
     92  N        -23.1150    0.3560  -37.4960 N.3   288  LYS288     -0.1245
     93  CA       -22.1490   -0.6600  -37.2340 C.3   288  LYS288      0.1561
     94  C        -22.5540   -1.8210  -38.0750 C.2   288  LYS288      0.2260
     95  O        -23.6700   -2.3880  -37.8650 O.2   288  LYS288     -0.2867
     96  CB       -22.2380   -1.1300  -35.8070 C.3   288  LYS288      0.0271
     97  CG       -21.6570   -0.1650  -34.8560 C.3   288  LYS288      0.0035
     98  CD       -22.2730   -0.4050  -33.4730 C.3   288  LYS288      0.0206
     99  CE       -21.2120   -0.5360  -32.4150 C.3   288  LYS288      0.1093
    100  NZ       -20.8020    0.6890  -31.7180 N.3   288  LYS288     -0.1314
@<TRIPOS>BOND
     1    94    95    2
     2    94    93    1
     3    92    93    1
     4    93    96    1
     5     1     2    1
     6    15    16    1
     7    18    17    2
     8     3     2    1
     9     3     4    2
    10    96    97    1
    11     2     5    1
    12    17    16    1
    13    16    19    1
    14    13    14   ar
    15    13    11   ar
    16    14    12   ar
    17    19    20    1
    18    11     8   ar
    19    12    10   ar
    20    25    27   ar
    21    25    22   ar
    22    61    60    2
    23     8    10   ar
    24     8     6   ar
    25    10     9   ar
    26    97    98    1
    27    27    28   ar
    28     6     5    1
    29     6     7   ar
    30     9     7   ar
    31    62    63    1
    32    62    59    1
    33    60    59    1
    34    20    22   ar
    35    20    21   ar
    36    22    24   ar
    37    65    63   ar
    38    40    41    1
    39    63    64   ar
    40    98    99    1
    41    59    58    1
    42    28    26   ar
    43    43    42    2
    44    21    23   ar
    45    24    26   ar
    46    24    23   ar
    47    99   100    1
    48    41    42    1
    49    41    44    1
    50    58    52   am
    51    46    48   ar
    52    46    45   ar
    53    48    49   ar
    54    44    45    1
    55    45    47   ar
    56    52    53    2
    57    52    51    1
    58    29    30    1
    59    49    47   ar
    60    50    51    1
    61    51    54    1
    62    30    31    1
    63    30    33    1
    64    32    31    2
    65    33    34    1
    66    54    55    1
    67    84    83   ar
    68    84    82   ar
    69    66    67    1
    70    34    35    1
    71    56    55   ar
    72    55    57   ar
    73    73    71   am
    74    70    67    1
    75    70    71    1
    76    83    81   ar
    77    82    80   ar
    78    67    68    1
    79    35    36    1
    80    71    72    2
    81    36    37    2
    82    81    79   ar
    83    37    38    1
    84    37    39    1
    85    80    79   ar
    86    90    89    1
    87    68    69    2
    88    79    78    1
    89    89    91    1
    90    89    86    1
    91    78    75    1
    92    85    86    1
    93    85    76   am
    94    86    87    1
    95    74    75    1
    96    75    76    1
    97    76    77    2
    98    87    88    2
