@<TRIPOS>MOLECULE
tmp/4zbfI00.pdb
 147 138 0 0 0
SMALL
GASTEIGER

@<TRIPOS>ATOM
      1  N        -55.8240  -66.4800  -39.2070 N.3    54  HIS54      -0.1241
      2  CA       -54.4520  -66.9770  -39.2170 C.3    54  HIS54       0.1621
      3  C        -54.2390  -68.0000  -38.1260 C.2    54  HIS54       0.2264
      4  O        -53.1090  -68.2580  -37.7180 O.2    54  HIS54      -0.2867
      5  CB       -53.4630  -65.8170  -39.0570 C.3    54  HIS54       0.0745
      6  CG       -53.2790  -64.9960  -40.2950 C.ar   54  HIS54       0.0817
      7  ND1      -54.2370  -64.1260  -40.7750 N.ar   54  HIS54      -0.2268
      8  CD2      -52.2160  -64.8730  -41.1290 C.ar   54  HIS54       0.1154
      9  CE1      -53.7900  -63.5300  -41.8630 C.ar   54  HIS54       0.1986
     10  NE2      -52.5620  -63.9640  -42.0970 N.ar   54  HIS54      -0.2212
     11  N        -51.6020  -70.8100  -38.4070 N.3    57  ALA57      -0.1231
     12  CA       -50.2420  -70.2810  -38.4190 C.3    57  ALA57       0.1694
     13  C        -49.8380  -69.7600  -37.0330 C.2    57  ALA57       0.2592
     14  O        -48.6890  -69.9200  -36.6020 O.2    57  ALA57      -0.2718
     15  CB       -50.1100  -69.1720  -39.4540 C.3    57  ALA57       0.0304
     16  N        -50.7840  -69.1280  -36.3450 N.am   58  PHE58      -0.1976
     17  CA       -50.5380  -68.6080  -35.0060 C.3    58  PHE58       0.1639
     18  C        -50.2590  -69.7640  -34.0620 C.2    58  PHE58       0.2290
     19  O        -49.4290  -69.6530  -33.1520 O.2    58  PHE58      -0.2864
     20  CB       -51.7090  -67.7570  -34.5150 C.3    58  PHE58       0.0560
     21  CG       -51.6790  -66.3410  -35.0330 C.ar   58  PHE58      -0.0200
     22  CD1      -50.7660  -65.9680  -36.0220 C.ar   58  PHE58      -0.0042
     23  CD2      -52.5430  -65.3800  -34.5310 C.ar   58  PHE58      -0.0042
     24  CE1      -50.7260  -64.6650  -36.5010 C.ar   58  PHE58      -0.0003
     25  CE2      -52.5100  -64.0730  -35.0150 C.ar   58  PHE58      -0.0003
     26  CZ       -51.6000  -63.7180  -35.9970 C.ar   58  PHE58      -0.0000
     27  N        -46.6990  -70.9430  -34.7200 N.3    61  MET61      -0.1245
     28  CA       -45.6980  -70.0820  -34.1340 C.3    61  MET61       0.1570
     29  C        -45.6730  -70.3110  -32.6270 C.2    61  MET61       0.2261
     30  O        -44.6080  -70.4610  -32.0350 O.2    61  MET61      -0.2867
     31  CB       -45.9870  -68.6170  -34.4630 C.3    61  MET61       0.0387
     32  CG       -45.0090  -67.6580  -33.8140 C.3    61  MET61       0.0595
     33  SD       -43.3290  -67.8070  -34.4410 S.3    61  MET61      -0.1393
     34  CE       -43.3840  -66.6470  -35.8080 C.3    61  MET61       0.0692
     35  N        -42.5550  -71.5740  -30.3830 N.3    65  LEU65      -0.1245
     36  CA       -42.0610  -70.7240  -29.3090 C.3    65  LEU65       0.1561
     37  C        -42.0440  -71.3720  -27.9280 C.2    65  LEU65       0.2260
     38  O        -41.2060  -71.0230  -27.0990 O.2    65  LEU65      -0.2867
     39  CB       -42.8710  -69.4380  -29.2570 C.3    65  LEU65       0.0270
     40  CG       -42.6190  -68.5690  -30.4780 C.3    65  LEU65       0.0019
     41  CD1      -43.4600  -67.2910  -30.4310 C.3    65  LEU65       0.0001
     42  CD2      -41.1480  -68.2460  -30.5290 C.3    65  LEU65       0.0001
     43  N        -38.2850  -63.3820  -25.9990 N.3    76  LEU76      -0.1245
     44  CA       -38.8980  -63.3220  -27.3280 C.3    76  LEU76       0.1561
     45  C        -38.3680  -62.2160  -28.2500 C.2    76  LEU76       0.2260
     46  O        -38.6050  -62.2210  -29.4650 O.2    76  LEU76      -0.2867
     47  CB       -40.4020  -63.1430  -27.1980 C.3    76  LEU76       0.0270
     48  CG       -41.1590  -64.2690  -26.4940 C.3    76  LEU76       0.0019
     49  CD1      -42.6300  -63.9290  -26.4210 C.3    76  LEU76       0.0001
     50  CD2      -40.9250  -65.6190  -27.1550 C.3    76  LEU76       0.0001
     51  N        -36.3530  -62.8790  -31.8360 N.3    79  VAL79      -0.1231
     52  CA       -37.1390  -63.4440  -32.9390 C.3    79  VAL79       0.1692
     53  C        -38.1570  -62.4320  -33.3890 C.2    79  VAL79       0.2591
     54  O        -38.4180  -62.2820  -34.5880 O.2    79  VAL79      -0.2718
     55  CB       -37.9140  -64.7250  -32.6070 C.3    79  VAL79       0.0266
     56  CG1      -37.3740  -65.9220  -33.3780 C.3    79  VAL79       0.0020
     57  CG2      -38.0860  -64.9300  -31.1140 C.3    79  VAL79       0.0020
     58  N        -38.7520  -61.7650  -32.4150 N.am   80  MET80      -0.1979
     59  CA       -39.8030  -60.8080  -32.7090 C.3    80  MET80       0.1605
     60  C        -39.2750  -59.7340  -33.6660 C.2    80  MET80       0.2287
     61  O        -39.8520  -59.5040  -34.7320 O.2    80  MET80      -0.2864
     62  CB       -40.3130  -60.1870  -31.4100 C.3    80  MET80       0.0413
     63  CG       -41.7000  -59.5820  -31.5030 C.3    80  MET80       0.0598
     64  SD       -42.3150  -58.9370  -29.9160 S.3    80  MET80      -0.1393
     65  CE       -41.8580  -60.2280  -28.7980 C.3    80  MET80       0.0692
     66  N        -38.2150  -61.2830  -37.3390 N.3    83  VAL83      -0.1231
     67  CA       -39.3060  -61.4740  -38.2830 C.3    83  VAL83       0.1692
     68  C        -39.9580  -60.1440  -38.6450 C.2    83  VAL83       0.2592
     69  O        -40.1580  -59.8540  -39.8220 O.2    83  VAL83      -0.2718
     70  CB       -40.3400  -62.4790  -37.7450 C.3    83  VAL83       0.0266
     71  CG1      -41.5220  -62.6140  -38.6920 C.3    83  VAL83       0.0020
     72  CG2      -39.6730  -63.8290  -37.4780 C.3    83  VAL83       0.0020
     73  N        -40.2440  -59.3130  -37.6550 N.am   84  PHE84      -0.1976
     74  CA       -40.9890  -58.0920  -37.9150 C.3    84  PHE84       0.1639
     75  C        -40.2540  -57.0750  -38.7860 C.2    84  PHE84       0.2290
     76  O        -40.8850  -56.3120  -39.4970 O.2    84  PHE84      -0.2864
     77  CB       -41.3980  -57.4360  -36.5980 C.3    84  PHE84       0.0560
     78  CG       -42.4390  -56.3690  -36.7580 C.ar   84  PHE84      -0.0200
     79  CD1      -43.6280  -56.6370  -37.4120 C.ar   84  PHE84      -0.0042
     80  CD2      -42.2300  -55.1030  -36.2500 C.ar   84  PHE84      -0.0042
     81  CE1      -44.5900  -55.6520  -37.5600 C.ar   84  PHE84      -0.0003
     82  CE2      -43.2000  -54.1160  -36.3860 C.ar   84  PHE84      -0.0003
     83  CZ       -44.3780  -54.3890  -37.0390 C.ar   84  PHE84      -0.0000
     84  N        -49.2110  -55.8300  -41.3810 N.3    93  ARG93      -0.1245
     85  CA       -48.1060  -56.4580  -40.6570 C.3    93  ARG93       0.1563
     86  C        -48.1270  -56.0670  -39.1760 C.2    93  ARG93       0.2260
     87  O        -47.9040  -56.9100  -38.2880 O.2    93  ARG93      -0.2867
     88  CB       -46.7710  -56.0630  -41.3000 C.3    93  ARG93       0.0307
     89  CG       -46.5870  -56.6810  -42.6770 C.3    93  ARG93       0.0489
     90  CD       -45.7740  -57.9430  -42.6250 C.3    93  ARG93       0.2205
     91  NE       -44.4010  -57.6060  -42.9610 N.pl3  93  ARG93      -0.0865
     92  CZ       -43.3240  -57.9820  -42.2860 C.cat  93  ARG93       0.5346
     93  NH1      -43.4110  -58.7490  -41.2130 N.pl3  93  ARG93       0.1354
     94  NH2      -42.1440  -57.5790  -42.7070 N.pl3  93  ARG93       0.1354
     95  N        -50.8790  -57.9540  -37.5560 N.3    96  THR96      -0.1203
     96  CA       -50.4380  -59.3290  -37.3220 C.3    96  THR96       0.1994
     97  C        -49.6090  -59.4120  -36.0430 C.2    96  THR96       0.2617
     98  O        -49.7670  -60.3260  -35.2230 O.2    96  THR96      -0.2717
     99  CB       -49.6190  -59.8610  -38.5050 C.3    96  THR96       0.1784
    100  OG1      -50.3910  -59.7280  -39.7000 O.3    96  THR96      -0.2211
    101  CG2      -49.2870  -61.3320  -38.3020 C.3    96  THR96       0.0376
    102  N        -48.7270  -58.4370  -35.8760 N.am   97  LEU97      -0.1979
    103  CA       -47.8790  -58.3860  -34.6930 C.3    97  LEU97       0.1596
    104  C        -48.7080  -58.2950  -33.3940 C.2    97  LEU97       0.2287
    105  O        -48.5740  -59.1220  -32.4740 O.2    97  LEU97      -0.2864
    106  CB       -46.9430  -57.1900  -34.8080 C.3    97  LEU97       0.0297
    107  CG       -46.0540  -56.9140  -33.6060 C.3    97  LEU97       0.0022
    108  CD1      -44.7890  -57.7430  -33.7260 C.3    97  LEU97       0.0001
    109  CD2      -45.7160  -55.4530  -33.5130 C.3    97  LEU97       0.0001
    110  N        -51.1440  -61.3970  -32.8400 N.3   100  PHE100     -0.1227
    111  CA       -50.4500  -62.5350  -32.2790 C.3   100  PHE100      0.1736
    112  C        -50.1380  -62.2490  -30.8190 C.2   100  PHE100      0.2596
    113  O        -50.1270  -63.1560  -29.9940 O.2   100  PHE100     -0.2718
    114  CB       -49.1720  -62.8620  -33.0330 C.3   100  PHE100      0.0547
    115  CG       -48.5280  -64.1330  -32.5570 C.ar  100  PHE100     -0.0202
    116  CD1      -49.1880  -65.3470  -32.7020 C.ar  100  PHE100     -0.0042
    117  CD2      -47.2810  -64.1230  -31.9540 C.ar  100  PHE100     -0.0042
    118  CE1      -48.6130  -66.5400  -32.2620 C.ar  100  PHE100     -0.0003
    119  CE2      -46.6970  -65.3070  -31.5130 C.ar  100  PHE100     -0.0003
    120  CZ       -47.3700  -66.5170  -31.6620 C.ar  100  PHE100     -0.0000
    121  N        -49.8820  -60.9850  -30.4980 N.am  101  GLY101     -0.1957
    122  CA       -49.6970  -60.6380  -29.1020 C.3   101  GLY101      0.1869
    123  C        -50.9180  -61.0280  -28.2830 C.2   101  GLY101      0.2309
    124  O        -50.7800  -61.5830  -27.1920 O.2   101  GLY101     -0.2863
    125  N        -51.0890  -64.8620  -27.9260 N.3   104  VAL104     -0.1245
    126  CA       -50.1660  -65.2900  -26.8880 C.3   104  VAL104      0.1561
    127  C        -50.7170  -64.9590  -25.4950 C.2   104  VAL104      0.2260
    128  O        -50.6170  -65.7740  -24.5910 O.2   104  VAL104     -0.2867
    129  CB       -48.7740  -64.6570  -27.0770 C.3   104  VAL104      0.0252
    130  CG1      -47.8560  -65.0350  -25.9050 C.3   104  VAL104      0.0019
    131  CG2      -48.1570  -65.1120  -28.3970 C.3   104  VAL104      0.0019
    132  N        -45.2760  -58.6130  -21.9660 N.3   120  LEU120     -0.1245
    133  CA       -45.4460  -58.9630  -23.3770 C.3   120  LEU120      0.1561
    134  C        -45.8580  -57.7390  -24.1830 C.2   120  LEU120      0.2260
    135  O        -45.2660  -57.4410  -25.2400 O.2   120  LEU120     -0.2867
    136  CB       -46.4840  -60.0590  -23.5550 C.3   120  LEU120      0.0270
    137  CG       -46.8170  -60.3650  -25.0180 C.3   120  LEU120      0.0019
    138  CD1      -45.6160  -60.9340  -25.7580 C.3   120  LEU120      0.0001
    139  CD2      -48.0490  -61.2570  -25.1410 C.3   120  LEU120      0.0001
    140  N        -43.8870  -55.9230  -27.1260 N.3   124  ILE124     -0.1245
    141  CA       -44.4640  -55.6800  -28.4390 C.3   124  ILE124      0.1561
    142  C        -44.3070  -54.2260  -28.7840 C.2   124  ILE124      0.2260
    143  O        -43.8070  -53.8830  -29.8620 O.2   124  ILE124     -0.2867
    144  CB       -45.9320  -56.1260  -28.4810 C.3   124  ILE124      0.0252
    145  CG1      -45.9980  -57.6560  -28.4800 C.3   124  ILE124      0.0019
    146  CG2      -46.6140  -55.6640  -29.7450 C.3   124  ILE124      0.0019
    147  CD1      -47.3880  -58.1960  -28.3240 C.3   124  ILE124      0.0001
@<TRIPOS>BOND
     1    91    90    1
     2    91    92    2
     3    94    92    1
     4    89    90    1
     5    89    88    1
     6    92    93    1
     7    10     9   ar
     8    10     8   ar
     9     9     7   ar
    10    84    85    1
    11    88    85    1
    12     8     6   ar
    13     7     6   ar
    14    85    86    1
    15     6     5    1
    16    69    68    2
    17   100    99    1
    18    76    75    2
    19    15    12    1
    20     2     1    1
    21     2     5    1
    22     2     3    1
    23    86    87    2
    24    75    74    1
    25    71    70    1
    26    68    67    1
    27    68    73   am
    28    99   101    1
    29    99    96    1
    30    12    11    1
    31    12    13    1
    32    67    70    1
    33    67    66    1
    34     3     4    2
    35    74    73    1
    36    74    77    1
    37    70    72    1
    38    81    79   ar
    39    81    83   ar
    40    95    96    1
    41    79    78   ar
    42    96    97    1
    43    83    82   ar
    44    13    14    2
    45    13    16   am
    46    78    77    1
    47    78    80   ar
    48    24    22   ar
    49    24    26   ar
    50    82    80   ar
    51    16    17    1
    52    97   102   am
    53    97    98    2
    54    22    21   ar
    55    26    25   ar
    56   102   103    1
    57    34    33    1
    58    21    23   ar
    59    21    20    1
    60    25    23   ar
    61    17    20    1
    62    17    18    1
    63   106   103    1
    64   106   107    1
    65    61    60    2
    66    27    28    1
    67   103   104    1
    68    54    53    2
    69    31    28    1
    70    31    32    1
    71    33    32    1
    72    28    29    1
    73    18    19    2
    74   108   107    1
    75    60    59    1
    76   107   109    1
    77   104   105    2
    78    53    52    1
    79    53    58   am
    80    56    55    1
    81   114   115    1
    82   114   111    1
    83    52    55    1
    84    52    51    1
    85   110   111    1
    86    59    58    1
    87    59    62    1
    88   116   115   ar
    89   116   118   ar
    90    29    30    2
    91    55    57    1
    92   115   117   ar
    93   111   112    1
    94   118   120   ar
    95   117   119   ar
    96   120   119   ar
    97    63    62    1
    98    63    64    1
    99   112   121   am
   100   112   113    2
   101    42    40    1
   102   121   122    1
   103    40    41    1
   104    40    39    1
   105    35    36    1
   106    64    65    1
   107   143   142    2
   108   146   144    1
   109    46    45    2
   110    36    39    1
   111    36    37    1
   112   122   123    1
   113   142   141    1
   114   144   145    1
   115   144   141    1
   116   145   147    1
   117   141   140    1
   118   131   129    1
   119   123   124    2
   120    45    44    1
   121    37    38    2
   122   125   126    1
   123    44    47    1
   124    44    43    1
   125    47    48    1
   126    50    48    1
   127   129   126    1
   128   129   130    1
   129   126   127    1
   130    48    49    1
   131   138   137    1
   132   127   128    2
   133   135   134    2
   134   139   137    1
   135   137   136    1
   136   134   133    1
   137   136   133    1
   138   133   132    1
