@<TRIPOS>MOLECULE
tmp/4zbgA00.pdb
 187 183 0 0 0
SMALL
GASTEIGER

@<TRIPOS>ATOM
      1  N         -3.3360   -7.2050   72.0560 N.3    24  ALA24      -0.1231
      2  CA        -4.2190   -6.3120   71.3080 C.3    24  ALA24       0.1694
      3  C         -5.1020   -7.0810   70.3210 C.2    24  ALA24       0.2592
      4  O         -6.2770   -6.7580   70.1380 O.2    24  ALA24      -0.2718
      5  CB        -3.4040   -5.2560   70.5810 C.3    24  ALA24       0.0304
      6  N         -4.5400   -8.0970   69.6700 N.am   25  PHE25      -0.1976
      7  CA        -5.2580   -8.8230   68.6190 C.3    25  PHE25       0.1639
      8  C         -6.0280  -10.0360   69.1350 C.2    25  PHE25       0.2290
      9  O         -6.8430  -10.5930   68.4120 O.2    25  PHE25      -0.2864
     10  CB        -4.3080   -9.2200   67.4880 C.3    25  PHE25       0.0560
     11  CG        -3.9840   -8.0830   66.5670 C.ar   25  PHE25      -0.0200
     12  CD1       -4.8130   -7.7920   65.4950 C.ar   25  PHE25      -0.0042
     13  CD2       -2.8930   -7.2600   66.8080 C.ar   25  PHE25      -0.0042
     14  CE1       -4.5390   -6.7290   64.6570 C.ar   25  PHE25      -0.0003
     15  CE2       -2.6160   -6.1920   65.9700 C.ar   25  PHE25      -0.0003
     16  CZ        -3.4350   -5.9280   64.8930 C.ar   25  PHE25      -0.0000
     17  N         -9.7000   -9.7610   68.5810 N.3    28  VAL28      -0.1245
     18  CA       -10.0950   -9.2920   67.2620 C.3    28  VAL28       0.1561
     19  C        -10.6400  -10.4790   66.4700 C.2    28  VAL28       0.2260
     20  O         -9.9200  -11.4460   66.2180 O.2    28  VAL28      -0.2867
     21  CB        -8.9210   -8.5780   66.5600 C.3    28  VAL28       0.0252
     22  CG1       -9.2750   -8.2330   65.1390 C.3    28  VAL28       0.0019
     23  CG2       -8.5310   -7.3160   67.3220 C.3    28  VAL28       0.0019
     24  N        -11.5730  -11.3150   63.4630 N.3    30  TYR30      -0.1241
     25  CA       -11.0720  -11.7750   62.1700 C.3    30  TYR30       0.1605
     26  C         -9.5720  -12.0690   62.2080 C.2    30  TYR30       0.2264
     27  O         -8.9840  -12.4680   61.2030 O.2    30  TYR30      -0.2867
     28  CB       -11.3870  -10.7440   61.0870 C.3    30  TYR30       0.0534
     29  CG       -11.1400   -9.3290   61.5470 C.ar   30  TYR30      -0.0201
     30  CD1       -9.8910   -8.7410   61.4060 C.ar   30  TYR30      -0.0009
     31  CD2      -12.1500   -8.5850   62.1440 C.ar   30  TYR30      -0.0009
     32  CE1       -9.6550   -7.4500   61.8340 C.ar   30  TYR30       0.0417
     33  CE2      -11.9200   -7.2980   62.5820 C.ar   30  TYR30       0.0417
     34  CZ       -10.6720   -6.7350   62.4240 C.ar   30  TYR30       0.1957
     35  OH       -10.4390   -5.4490   62.8550 O.3    30  TYR30      -0.2866
     36  N          1.6490    0.2320   56.5540 N.3    81  LEU81      -0.1231
     37  CA         1.5370    0.4300   57.9890 C.3    81  LEU81       0.1693
     38  C          0.8010   -0.7640   58.5780 C.2    81  LEU81       0.2593
     39  O         -0.3290   -1.0520   58.1830 O.2    81  LEU81      -0.2718
     40  CB         0.7550    1.7180   58.2760 C.3    81  LEU81       0.0284
     41  CG         0.6370    2.1910   59.7290 C.3    81  LEU81       0.0019
     42  CD1        0.2080    3.6460   59.7160 C.3    81  LEU81       0.0001
     43  CD2       -0.3380    1.3580   60.5740 C.3    81  LEU81       0.0001
     44  N          1.4200   -1.4340   59.5430 N.am   82  GLY82      -0.1943
     45  CA         0.7350   -2.4760   60.2790 C.3    82  GLY82       0.1998
     46  C          1.6040   -3.6720   60.6000 C.2    82  GLY82       0.2481
     47  O          2.5260   -4.0010   59.8560 O.2    82  GLY82      -0.2729
     48  N          1.2990   -4.3590   61.7050 N.am   83  PRO83      -0.2715
     49  CA         0.2520   -3.9860   62.6650 C.3    83  PRO83       0.1536
     50  C          0.6010   -2.7520   63.4910 C.2    83  PRO83       0.2598
     51  O          1.7680   -2.3830   63.6170 O.2    83  PRO83      -0.2715
     52  CB         0.2010   -5.2020   63.5970 C.3    83  PRO83       0.0310
     53  CG         1.5730   -5.7520   63.5380 C.3    83  PRO83       0.0237
     54  CD         2.0060   -5.5880   62.1040 C.3    83  PRO83       0.0939
     55  N         -0.4400   -2.1160   64.0190 N.am   84  VAL84      -0.1964
     56  CA        -0.3180   -1.1680   65.1170 C.3    84  VAL84       0.1727
     57  C         -1.1530   -1.7380   66.2570 C.2    84  VAL84       0.2617
     58  O         -2.2650   -2.2330   66.0290 O.2    84  VAL84      -0.2715
     59  CB        -0.7370    0.2710   64.7040 C.3    84  VAL84       0.0290
     60  CG1       -2.1490    0.3210   64.1250 C.3    84  VAL84       0.0023
     61  CG2       -0.5850    1.2280   65.8820 C.3    84  VAL84       0.0023
     62  N         -0.6110   -1.6750   67.4710 N.am   85  SER85      -0.1936
     63  CA        -1.1880   -2.3610   68.6220 C.3    85  SER85       0.2055
     64  C         -1.0090   -1.5160   69.8600 C.2    85  SER85       0.2642
     65  O          0.0770   -1.0010   70.0960 O.2    85  SER85      -0.2714
     66  CB        -0.4460   -3.6820   68.8820 C.3    85  SER85       0.2130
     67  OG        -0.4000   -4.5000   67.7320 O.3    85  SER85      -0.2179
     68  N         -2.0560   -1.4020   70.6640 N.am   86  VAL86      -0.1977
     69  CA        -1.9620   -0.7330   71.9600 C.3    86  VAL86       0.1596
     70  C         -2.5840   -1.6620   72.9920 C.2    86  VAL86       0.2287
     71  O         -3.6010   -2.2910   72.7150 O.2    86  VAL86      -0.2864
     72  CB        -2.6510    0.6560   71.9360 C.3    86  VAL86       0.0276
     73  CG1       -2.7500    1.2680   73.3450 C.3    86  VAL86       0.0022
     74  CG2       -1.9070    1.5950   70.9910 C.3    86  VAL86       0.0022
     75  N         -5.9850    1.7540   75.5100 N.3    91  GLN91      -0.1231
     76  CA        -6.5680    2.2730   74.2780 C.3    91  GLN91       0.1698
     77  C         -7.4890    3.4600   74.5240 C.2    91  GLN91       0.2593
     78  O         -7.9620    3.6780   75.6400 O.2    91  GLN91      -0.2718
     79  CB        -7.3300    1.1660   73.5630 C.3    91  GLN91       0.0381
     80  CG        -6.4020    0.1130   72.9830 C.3    91  GLN91       0.0905
     81  CD        -7.1390   -1.1160   72.5100 C.2    91  GLN91       0.2608
     82  OE1       -8.3690   -1.1710   72.5610 O.2    91  GLN91      -0.2717
     83  NE2       -6.3940   -2.1140   72.0460 N.am   91  GLN91      -0.0878
     84  N         -7.7490    4.2300   73.4720 N.am   92  GLY92      -0.1942
     85  CA        -8.6540    5.3610   73.5770 C.3    92  GLY92       0.2014
     86  C         -8.1000    6.5490   74.3390 C.2    92  GLY92       0.2639
     87  O         -8.8540    7.3830   74.8590 O.2    92  GLY92      -0.2714
     88  N         -6.7750    6.6300   74.4010 N.am   93  GLU93      -0.1963
     89  CA        -6.0830    7.7340   75.0610 C.3    93  GLU93       0.1733
     90  C         -5.1820    8.5010   74.1030 C.2    93  GLU93       0.2617
     91  O         -4.4890    9.4320   74.5080 O.2    93  GLU93      -0.2715
     92  CB        -5.2320    7.2100   76.2190 C.3    93  GLU93       0.0429
     93  CG        -6.0000    6.4060   77.2470 C.3    93  GLU93       0.1163
     94  CD        -5.1010    5.8020   78.3090 C.2    93  GLU93       0.3649
     95  OE1       -3.8760    6.0490   78.2780 O.co2  93  GLU93      -0.2457
     96  OE2       -5.6280    5.0800   79.1790 O.co2  93  GLU93      -0.2457
     97  N         -5.1770    8.1100   72.8350 N.am   94  GLY94      -0.1940
     98  CA        -4.3540    8.7870   71.8550 C.3    94  GLY94       0.2014
     99  C         -3.0030    8.1440   71.5950 C.2    94  GLY94       0.2639
    100  O         -2.2340    8.6590   70.7960 O.2    94  GLY94      -0.2714
    101  N         -2.7060    7.0180   72.2450 N.am   95  ILE95      -0.1963
    102  CA        -1.4090    6.3650   72.0450 C.3    95  ILE95       0.1727
    103  C         -1.2240    5.8970   70.6040 C.2    95  ILE95       0.2617
    104  O         -0.1900    6.1450   69.9890 O.2    95  ILE95      -0.2715
    105  CB        -1.1910    5.2130   73.0360 C.3    95  ILE95       0.0290
    106  CG1       -1.2130    5.7440   74.4650 C.3    95  ILE95       0.0022
    107  CG2        0.1320    4.5100   72.7680 C.3    95  ILE95       0.0023
    108  CD1       -1.1900    4.6520   75.5110 C.3    95  ILE95       0.0001
    109  N         -2.2250    5.2110   70.0650 N.am   96  GLY96      -0.1940
    110  CA        -2.1490    4.7530   68.6920 C.3    96  GLY96       0.2014
    111  C         -1.9270    5.9100   67.7380 C.2    96  GLY96       0.2639
    112  O         -1.0870    5.8340   66.8410 O.2    96  GLY96      -0.2714
    113  N         -2.6770    6.9920   67.9320 N.am   97  GLY97      -0.1954
    114  CA        -2.5430    8.1500   67.0710 C.3    97  GLY97       0.1869
    115  C         -1.1530    8.7500   67.1410 C.2    97  GLY97       0.2309
    116  O         -0.6070    9.1870   66.1310 O.2    97  GLY97      -0.2863
    117  N          1.2430    6.4380   65.2240 N.3   100  ILE100     -0.1245
    118  CA         1.0330    6.5530   63.7850 C.3   100  ILE100      0.1561
    119  C          1.6300    7.8530   63.2570 C.2   100  ILE100      0.2260
    120  O          2.3660    7.8470   62.2700 O.2   100  ILE100     -0.2867
    121  CB        -0.4550    6.4060   63.4170 C.3   100  ILE100      0.0252
    122  CG1       -0.9400    4.9870   63.7360 C.3   100  ILE100      0.0019
    123  CG2       -0.6760    6.7740   61.9560 C.3   100  ILE100      0.0019
    124  CD1       -2.4460    4.8600   63.7980 C.3   100  ILE100      0.0001
    125  N         -2.3560    1.2630   53.9020 N.3   117  LEU117     -0.1231
    126  CA        -2.8140    0.3990   54.9850 C.3   117  LEU117      0.1693
    127  C         -4.1810   -0.1920   54.6850 C.2   117  LEU117      0.2592
    128  O         -4.9060    0.2970   53.8150 O.2   117  LEU117     -0.2718
    129  CB        -2.8410    1.1510   56.3150 C.3   117  LEU117      0.0284
    130  CG        -3.7710    2.3580   56.4710 C.3   117  LEU117      0.0019
    131  CD1       -5.2230    1.9870   56.7540 C.3   117  LEU117      0.0001
    132  CD2       -3.2350    3.2460   57.5840 C.3   117  LEU117      0.0001
    133  N         -4.5240   -1.2420   55.4260 N.am  118  LEU118     -0.1966
    134  CA        -5.8760   -1.7890   55.4320 C.3   118  LEU118      0.1728
    135  C         -6.4390   -1.6450   56.8420 C.2   118  LEU118      0.2617
    136  O         -5.8090   -2.0710   57.8100 O.2   118  LEU118     -0.2715
    137  CB        -5.8560   -3.2630   55.0170 C.3   118  LEU118      0.0311
    138  CG        -5.4630   -3.5200   53.5590 C.3   118  LEU118      0.0022
    139  CD1       -5.2130   -4.9990   53.3060 C.3   118  LEU118      0.0001
    140  CD2       -6.5410   -2.9910   52.6230 C.3   118  LEU118      0.0001
    141  N         -7.6140   -1.0450   56.9730 N.am  119  GLY119     -0.1940
    142  CA        -8.1850   -0.8660   58.2920 C.3   119  GLY119      0.2014
    143  C         -9.5010   -0.1250   58.3210 C.2   119  GLY119      0.2638
    144  O        -10.1780   -0.0060   57.3010 O.2   119  GLY119     -0.2714
    145  N         -9.8430    0.3630   59.5110 N.am  120  ASP120     -0.1971
    146  CA       -11.0980    1.0500   59.7900 C.3   120  ASP120      0.1709
    147  C        -11.3850    2.1520   58.7820 C.2   120  ASP120      0.2293
    148  O        -10.4760    2.8830   58.3720 O.2   120  ASP120     -0.2864
    149  CB       -11.0290    1.6580   61.1900 C.3   120  ASP120      0.1436
    150  CG       -12.3060    2.3470   61.5830 C.2   120  ASP120      0.3671
    151  OD1      -13.2720    1.6360   61.9260 O.co2 120  ASP120     -0.2456
    152  OD2      -12.3510    3.5940   61.5430 O.co2 120  ASP120     -0.2456
    153  N        -10.9480    6.1190   60.8390 N.3   123  TYR123     -0.1227
    154  CA        -9.9350    6.5000   61.8220 C.3   123  TYR123      0.1736
    155  C         -8.6890    7.1250   61.1990 C.2   123  TYR123      0.2595
    156  O         -8.1800    8.1310   61.6930 O.2   123  TYR123     -0.2718
    157  CB        -9.5420    5.2910   62.6740 C.3   123  TYR123      0.0548
    158  CG        -8.4070    5.5570   63.6370 C.ar  123  TYR123     -0.0200
    159  CD1       -8.5890    6.3530   64.7640 C.ar  123  TYR123     -0.0009
    160  CD2       -7.1540    5.0000   63.4250 C.ar  123  TYR123     -0.0009
    161  CE1       -7.5440    6.5900   65.6480 C.ar  123  TYR123      0.0417
    162  CE2       -6.1050    5.2280   64.3010 C.ar  123  TYR123      0.0417
    163  CZ        -6.3040    6.0200   65.4090 C.ar  123  TYR123      0.1957
    164  OH        -5.2460    6.2330   66.2610 O.3   123  TYR123     -0.2866
    165  N         -8.2100    6.5390   60.1100 N.am  124  TYR124     -0.1976
    166  CA        -6.9270    6.9380   59.5500 C.3   124  TYR124      0.1639
    167  C         -6.9950    8.2240   58.7280 C.2   124  TYR124      0.2290
    168  O         -5.9710    8.7540   58.3140 O.2   124  TYR124     -0.2864
    169  CB        -6.3100    5.7840   58.7570 C.3   124  TYR124      0.0560
    170  CG        -6.1100    4.5480   59.6120 C.ar  124  TYR124     -0.0198
    171  CD1       -4.9660    4.3940   60.3880 C.ar  124  TYR124     -0.0009
    172  CD2       -7.0750    3.5440   59.6610 C.ar  124  TYR124     -0.0009
    173  CE1       -4.7770    3.2640   61.1750 C.ar  124  TYR124      0.0417
    174  CE2       -6.8980    2.4120   60.4470 C.ar  124  TYR124      0.0417
    175  CZ        -5.7480    2.2780   61.2070 C.ar  124  TYR124      0.1957
    176  OH        -5.5630    1.1560   61.9960 O.3   124  TYR124     -0.2866
    177  N         -7.4810   11.0520   59.8700 N.3   126  ARG126     -0.1245
    178  CA        -6.8390   12.1060   60.6520 C.3   126  ARG126      0.1563
    179  C         -5.3450   12.2150   60.3570 C.2   126  ARG126      0.2260
    180  O         -4.7200   13.2060   60.7240 O.2   126  ARG126     -0.2867
    181  CB        -7.0790   11.9000   62.1570 C.3   126  ARG126      0.0307
    182  CG        -6.2990   10.7360   62.7650 C.3   126  ARG126      0.0489
    183  CD        -6.8730   10.3150   64.1150 C.3   126  ARG126      0.2205
    184  NE        -8.2530    9.8790   63.9480 N.pl3 126  ARG126     -0.0865
    185  CZ        -9.1570    9.7960   64.9190 C.cat 126  ARG126      0.5346
    186  NH1       -8.8370   10.0610   66.1800 N.pl3 126  ARG126      0.1354
    187  NH2      -10.3940    9.4370   64.6100 N.pl3 126  ARG126      0.1354
@<TRIPOS>BOND
     1   140   138    1
     2   139   138    1
     3   138   137    1
     4   128   127    2
     5   125   126    1
     6   127   126    1
     7   127   133   am
     8   126   129    1
     9   137   134    1
    10   133   134    1
    11   134   135    1
    12   129   130    1
    13   130   131    1
    14   130   132    1
    15    36    37    1
    16   135   141   am
    17   135   136    2
    18   141   142    1
    19   144   143    2
    20    37    40    1
    21    37    38    1
    22    39    38    2
    23    40    41    1
    24   142   143    1
    25   168   167    2
    26   143   145   am
    27   148   147    2
    28    38    44   am
    29   167   166    1
    30   169   166    1
    31   169   170    1
    32   147   146    1
    33   145   146    1
    34    44    45    1
    35   166   165    1
    36   170   172   ar
    37   170   171   ar
    38   172   174   ar
    39    42    41    1
    40    41    43    1
    41   146   149    1
    42    47    46    2
    43   177   178    1
    44   165   155   am
    45    45    46    1
    46   179   178    1
    47   179   180    2
    48   171   173   ar
    49   174   175   ar
    50    46    48   am
    51   178   181    1
    52   153   154    1
    53    28    29    1
    54    28    25    1
    55   173   175   ar
    56   149   150    1
    57   155   156    2
    58   155   154    1
    59    27    26    2
    60   175   176    1
    61    30    29   ar
    62    30    32   ar
    63   152   150   ar
    64    29    31   ar
    65   150   151   ar
    66    48    54    1
    67    48    49    1
    68   154   157    1
    69    32    34   ar
    70   123   121    1
    71    54    53    1
    72    31    33   ar
    73   181   182    1
    74    25    26    1
    75    25    24    1
    76   120   119    2
    77    34    33   ar
    78    34    35    1
    79    49    50    1
    80    49    52    1
    81   157   158    1
    82   182   183    1
    83   119   118    1
    84   121   122    1
    85   121   118    1
    86   160   158   ar
    87   160   162   ar
    88    50    51    2
    89    50    55   am
    90    53    52    1
    91   158   159   ar
    92   122   124    1
    93   118   117    1
    94   184   183    1
    95   184   185    2
    96    55    56    1
    97    60    59    1
    98   162   163   ar
    99   187   185    1
   100    14    16   ar
   101    14    12   ar
   102    59    56    1
   103    59    61    1
   104   159   161   ar
   105    16    15   ar
   106   185   186    1
   107    56    57    1
   108    22    21    1
   109   163   161   ar
   110   163   164    1
   111    12    11   ar
   112    15    13   ar
   113    58    57    2
   114   116   115    2
   115    20    19    2
   116    57    62   am
   117    19    18    1
   118    21    18    1
   119    21    23    1
   120    11    13   ar
   121    11    10    1
   122   112   111    2
   123   114   115    1
   124   114   113    1
   125    18    17    1
   126    62    63    1
   127    10     7    1
   128    67    66    1
   129   111   113   am
   130   111   110    1
   131     9     8    2
   132     7     8    1
   133     7     6    1
   134    63    66    1
   135    63    64    1
   136   110   109    1
   137     6     3   am
   138    64    65    2
   139    64    68   am
   140   104   103    2
   141   109   103   am
   142     4     3    2
   143     3     2    1
   144     5     2    1
   145   103   102    1
   146    68    69    1
   147   100    99    2
   148    74    72    1
   149     2     1    1
   150    99    98    1
   151    99   101   am
   152    98    97    1
   153    72    69    1
   154    72    73    1
   155    69    70    1
   156   102   101    1
   157   102   105    1
   158    83    81   am
   159    81    82    2
   160    81    80    1
   161    71    70    2
   162   107   105    1
   163    97    90   am
   164    80    79    1
   165   105   106    1
   166    84    85    1
   167    84    77   am
   168    79    76    1
   169    85    86    1
   170    90    91    2
   171    90    89    1
   172    76    77    1
   173    76    75    1
   174    86    88   am
   175    86    87    2
   176    88    89    1
   177   106   108    1
   178    77    78    2
   179    89    92    1
   180    92    93    1
   181    93    94    1
   182    95    94   ar
   183    94    96   ar
