@<TRIPOS>MOLECULE
tmp/4zbiF00.pdb
 137 128 0 0 0
SMALL
GASTEIGER

@<TRIPOS>ATOM
      1  N          5.8670    6.3100  -38.4030 N.3    57  ALA57      -0.1231
      2  CA         6.8780    5.9110  -37.4330 C.3    57  ALA57       0.1694
      3  C          6.3130    4.8110  -36.5390 C.2    57  ALA57       0.2592
      4  O          7.0210    3.8680  -36.1720 O.2    57  ALA57      -0.2718
      5  CB         7.3280    7.0970  -36.6050 C.3    57  ALA57       0.0304
      6  N          5.0370    4.9430  -36.1790 N.am   58  PHE58      -0.1976
      7  CA         4.3690    3.9400  -35.3520 C.3    58  PHE58       0.1639
      8  C          4.2630    2.5900  -36.0410 C.2    58  PHE58       0.2290
      9  O          4.4690    1.5530  -35.4000 O.2    58  PHE58      -0.2864
     10  CB         2.9650    4.4100  -34.9390 C.3    58  PHE58       0.0560
     11  CG         2.9530    5.2960  -33.7260 C.ar   58  PHE58      -0.0200
     12  CD1        4.1390    5.6990  -33.1310 C.ar   58  PHE58      -0.0042
     13  CD2        1.7530    5.7140  -33.1740 C.ar   58  PHE58      -0.0042
     14  CE1        4.1340    6.4970  -32.0130 C.ar   58  PHE58      -0.0003
     15  CE2        1.7390    6.5150  -32.0510 C.ar   58  PHE58      -0.0003
     16  CZ         2.9340    6.9100  -31.4700 C.ar   58  PHE58      -0.0000
     17  N          7.6120    1.0090  -35.8790 N.3    61  MET61      -0.1245
     18  CA         7.8820    0.4410  -34.5620 C.3    61  MET61       0.1570
     19  C          7.1130   -0.8620  -34.3610 C.2    61  MET61       0.2261
     20  O          7.6640   -1.8620  -33.8930 O.2    61  MET61      -0.2867
     21  CB         7.5060    1.4370  -33.4590 C.3    61  MET61       0.0387
     22  CG         8.6320    1.7990  -32.4800 C.3    61  MET61       0.0595
     23  SD         9.5520    0.4190  -31.7570 S.3    61  MET61      -0.1393
     24  CE        10.9160    1.3120  -31.0170 C.3    61  MET61       0.0692
     25  N          8.5610   -4.6350  -33.7760 N.3    65  LEU65      -0.1245
     26  CA         8.2630   -5.3760  -32.5480 C.3    65  LEU65       0.1561
     27  C          7.7220   -6.7950  -32.6720 C.2    65  LEU65       0.2260
     28  O          7.8160   -7.5570  -31.7120 O.2    65  LEU65      -0.2867
     29  CB         7.2670   -4.5900  -31.6980 C.3    65  LEU65       0.0270
     30  CG         7.7500   -3.2640  -31.1390 C.3    65  LEU65       0.0019
     31  CD1        6.6230   -2.5600  -30.3890 C.3    65  LEU65       0.0001
     32  CD2        8.9440   -3.5280  -30.2360 C.3    65  LEU65       0.0001
     33  N          8.3250   -6.7550  -23.5050 N.3    76  LEU76      -0.1245
     34  CA         8.4890   -5.4260  -24.1050 C.3    76  LEU76       0.1561
     35  C          9.1600   -4.3710  -23.2130 C.2    76  LEU76       0.2260
     36  O          9.4170   -3.2540  -23.6800 O.2    76  LEU76      -0.2867
     37  CB         7.1460   -4.8680  -24.5930 C.3    76  LEU76       0.0270
     38  CG         6.4690   -5.4790  -25.8250 C.3    76  LEU76       0.0019
     39  CD1        5.0950   -4.8690  -26.0270 C.3    76  LEU76       0.0001
     40  CD2        7.3160   -5.2730  -27.0590 C.3    76  LEU76       0.0001
     41  N         12.6400   -2.6740  -24.3380 N.3    79  VAL79      -0.1231
     42  CA        12.5450   -1.8250  -25.5350 C.3    79  VAL79       0.1692
     43  C         11.8970   -0.4700  -25.1810 C.2    79  VAL79       0.2591
     44  O         12.3800    0.6050  -25.6290 O.2    79  VAL79      -0.2718
     45  CB        11.7670   -2.5080  -26.6770 C.3    79  VAL79       0.0266
     46  CG1       11.7890   -1.6130  -27.9180 C.3    79  VAL79       0.0020
     47  CG2       12.4230   -3.7940  -27.0410 C.3    79  VAL79       0.0020
     48  N         10.8420   -0.5170  -24.3560 N.am   80  MET80      -0.1979
     49  CA        10.1580    0.7020  -23.9240 C.3    80  MET80       0.1605
     50  C         11.1580    1.6060  -23.2050 C.2    80  MET80       0.2287
     51  O         11.2300    2.7870  -23.5200 O.2    80  MET80      -0.2864
     52  CB         8.9620    0.4120  -22.9950 C.3    80  MET80       0.0413
     53  CG         7.6770   -0.0440  -23.6840 C.3    80  MET80       0.0598
     54  SD         6.3270   -0.4470  -22.5300 S.3    80  MET80      -0.1393
     55  CE         7.0440   -1.8060  -21.6530 C.3    80  MET80       0.0692
     56  N         13.9160    3.2530  -25.6220 N.3    83  VAL83      -0.1231
     57  CA        13.5660    4.5450  -26.2130 C.3    83  VAL83       0.1692
     58  C         13.3090    5.6330  -25.1660 C.2    83  VAL83       0.2592
     59  O         13.8560    6.7310  -25.2340 O.2    83  VAL83      -0.2718
     60  CB        12.3530    4.3980  -27.1500 C.3    83  VAL83       0.0266
     61  CG1       11.9910    5.7430  -27.7610 C.3    83  VAL83       0.0020
     62  CG2       12.6730    3.3930  -28.2520 C.3    83  VAL83       0.0020
     63  N         12.4830    5.2900  -24.1870 N.am   84  PHE84      -0.1976
     64  CA        11.9560    6.2230  -23.2010 C.3    84  PHE84       0.1639
     65  C         12.9530    6.7720  -22.1870 C.2    84  PHE84       0.2290
     66  O         12.9360    7.9620  -21.8950 O.2    84  PHE84      -0.2864
     67  CB        10.8100    5.5120  -22.4690 C.3    84  PHE84       0.0560
     68  CG         9.8880    6.4210  -21.7270 C.ar   84  PHE84      -0.0200
     69  CD1        9.2320    7.4530  -22.3810 C.ar   84  PHE84      -0.0042
     70  CD2        9.6210    6.1990  -20.3900 C.ar   84  PHE84      -0.0042
     71  CE1        8.3670    8.2710  -21.7040 C.ar   84  PHE84      -0.0003
     72  CE2        8.7660    7.0100  -19.7090 C.ar   84  PHE84      -0.0003
     73  CZ         8.1310    8.0480  -20.3630 C.ar   84  PHE84      -0.0000
     74  N          6.4420   13.3230  -24.4700 N.3    93  ARG93      -0.1245
     75  CA         6.9680   11.9660  -24.5010 C.3    93  ARG93       0.1563
     76  C          6.0960   10.9290  -23.7750 C.2    93  ARG93       0.2260
     77  O          5.9940    9.7650  -24.2050 O.2    93  ARG93      -0.2867
     78  CB         8.3780   11.9780  -23.9380 C.3    93  ARG93       0.0307
     79  CG         9.3050   12.7660  -24.8360 C.3    93  ARG93       0.0489
     80  CD        10.7460   12.4870  -24.5300 C.3    93  ARG93       0.2205
     81  NE        11.0650   11.1170  -24.9150 N.pl3  93  ARG93      -0.0865
     82  CZ        12.2060   10.5070  -24.6310 C.cat  93  ARG93       0.5346
     83  NH1       13.1840   11.1580  -24.0110 N.pl3  93  ARG93       0.1354
     84  NH2       12.3910    9.2580  -25.0140 N.pl3  93  ARG93       0.1354
     85  N          3.4780   10.2020  -26.0380 N.3    96  THR96      -0.1203
     86  CA         3.9530    9.3030  -27.0760 C.3    96  THR96       0.1994
     87  C          3.9330    7.8590  -26.5790 C.2    96  THR96       0.2617
     88  O          3.4660    6.9490  -27.2810 O.2    96  THR96      -0.2717
     89  CB         5.3730    9.6820  -27.5620 C.3    96  THR96       0.1784
     90  OG1        5.3460   10.9960  -28.1260 O.3    96  THR96      -0.2211
     91  CG2        5.8280    8.7390  -28.6260 C.3    96  THR96       0.0376
     92  N          4.3740    7.6580  -25.3440 N.am   97  LEU97      -0.1979
     93  CA         4.4370    6.3120  -24.7830 C.3    97  LEU97       0.1596
     94  C          3.0630    5.6440  -24.7240 C.2    97  LEU97       0.2287
     95  O          2.8620    4.5150  -25.2180 O.2    97  LEU97      -0.2864
     96  CB         5.0490    6.3820  -23.3890 C.3    97  LEU97       0.0297
     97  CG         5.1250    5.1370  -22.5250 C.3    97  LEU97       0.0022
     98  CD1        6.4600    4.4280  -22.7890 C.3    97  LEU97       0.0001
     99  CD2        4.9930    5.5480  -21.0630 C.3    97  LEU97       0.0001
    100  N          1.4840    5.1010  -28.4250 N.3   100  PHE100     -0.1227
    101  CA         1.9710    3.9180  -29.1200 C.3   100  PHE100      0.1736
    102  C          1.4330    2.6810  -28.4460 C.2   100  PHE100      0.2596
    103  O          1.1470    1.6740  -29.1230 O.2   100  PHE100     -0.2718
    104  CB         3.4940    3.8500  -29.2090 C.3   100  PHE100      0.0547
    105  CG         3.9710    2.6580  -29.9860 C.ar  100  PHE100     -0.0202
    106  CD1        3.6410    2.5190  -31.3310 C.ar  100  PHE100     -0.0042
    107  CD2        4.7390    1.6720  -29.3820 C.ar  100  PHE100     -0.0042
    108  CE1        4.0520    1.4110  -32.0520 C.ar  100  PHE100     -0.0003
    109  CE2        5.1650    0.5710  -30.1030 C.ar  100  PHE100     -0.0003
    110  CZ         4.8220    0.4430  -31.4390 C.ar  100  PHE100     -0.0000
    111  N          1.2610    2.7710  -27.1240 N.am  101  GLY101     -0.1957
    112  CA         0.6460    1.6830  -26.3820 C.3   101  GLY101      0.1869
    113  C         -0.7440    1.3760  -26.9200 C.2   101  GLY101      0.2309
    114  O         -1.1280    0.2130  -27.0520 O.2   101  GLY101     -0.2863
    115  N         -0.4760   -0.4080  -30.4010 N.3   104  VAL104     -0.1245
    116  CA        -0.2540   -1.8310  -30.1500 C.3   104  VAL104      0.1561
    117  C         -1.5230   -2.5270  -29.6460 C.2   104  VAL104      0.2260
    118  O         -1.7860   -3.6800  -29.9900 O.2   104  VAL104     -0.2867
    119  CB         0.8780   -2.0420  -29.1340 C.3   104  VAL104      0.0252
    120  CG1        0.9870   -3.5010  -28.7850 C.3   104  VAL104      0.0019
    121  CG2        2.1970   -1.4940  -29.6640 C.3   104  VAL104      0.0019
    122  N         -0.2820   -5.3070  -21.1890 N.3   120  LEU120     -0.1245
    123  CA         0.4230   -4.2340  -21.8680 C.3   120  LEU120      0.1561
    124  C          0.3350   -2.9320  -21.0540 C.2   120  LEU120      0.2260
    125  O          1.3710   -2.3180  -20.7200 O.2   120  LEU120     -0.2867
    126  CB        -0.1440   -4.0350  -23.2730 C.3   120  LEU120      0.0270
    127  CG         0.4330   -2.8740  -24.0770 C.3   120  LEU120      0.0019
    128  CD1        1.8930   -3.1630  -24.3450 C.3   120  LEU120      0.0001
    129  CD2       -0.3250   -2.7160  -25.4000 C.3   120  LEU120      0.0001
    130  N          3.2350   -0.6340  -19.2690 N.3   124  ILE124     -0.1245
    131  CA         3.4360    0.7730  -19.5690 C.3   124  ILE124      0.1561
    132  C          3.4070    1.5490  -18.2470 C.2   124  ILE124      0.2260
    133  O          4.2970    2.3710  -17.9830 O.2   124  ILE124     -0.2867
    134  CB         2.3760    1.3150  -20.5360 C.3   124  ILE124      0.0252
    135  CG1        2.4580    0.5890  -21.8860 C.3   124  ILE124      0.0019
    136  CG2        2.5190    2.8270  -20.6880 C.3   124  ILE124      0.0019
    137  CD1        1.2470    0.8000  -22.7840 C.3   124  ILE124      0.0001
@<TRIPOS>BOND
     1     1     2    1
     2     2     5    1
     3     2     3    1
     4     3     6   am
     5     3     4    2
     6     6     7    1
     7     8     9    2
     8     8     7    1
     9    17    18    1
    10     7    10    1
    11    10    11    1
    12    18    19    1
    13    18    21    1
    14    19    20    2
    15    25    26    1
    16    11    13   ar
    17    11    12   ar
    18    21    22    1
    19    13    15   ar
    20    12    14   ar
    21    27    26    1
    22    27    28    2
    23    26    29    1
    24    22    23    1
    25   108   110   ar
    26   108   106   ar
    27    15    16   ar
    28    14    16   ar
    29    23    24    1
    30    29    30    1
    31   110   109   ar
    32   106   105   ar
    33    30    31    1
    34    30    32    1
    35   115   116    1
    36   116   117    1
    37   116   119    1
    38   109   107   ar
    39   118   117    2
    40   105   107   ar
    41   105   104    1
    42   121   119    1
    43   104   101    1
    44   119   120    1
    45   103   102    2
    46   101   102    1
    47   101   100    1
    48    91    89    1
    49   102   111   am
    50    62    60    1
    51    90    89    1
    52    46    45    1
    53    61    60    1
    54    89    86    1
    55    88    87    2
    56    60    57    1
    57   111   112    1
    58    86    87    1
    59    86    85    1
    60    40    38    1
    61   114   113    2
    62    47    45    1
    63   113   112    1
    64    45    42    1
    65    87    92   am
    66    57    56    1
    67    57    58    1
    68    39    38    1
    69    38    37    1
    70    44    43    2
    71    42    43    1
    72    42    41    1
    73   129   127    1
    74    92    93    1
    75    59    58    2
    76    95    94    2
    77    43    48   am
    78    58    63   am
    79    84    82    1
    80    81    82    2
    81    81    80    1
    82    79    80    1
    83    79    78    1
    84    93    94    1
    85    93    96    1
    86    82    83    1
    87    37    34    1
    88    75    74    1
    89    75    78    1
    90    75    76    1
    91    48    49    1
    92   128   127    1
    93    77    76    2
    94    63    64    1
    95    34    33    1
    96    34    35    1
    97   127   126    1
    98    49    50    1
    99    49    52    1
   100    53    52    1
   101    53    54    1
   102    36    35    2
   103    51    50    2
   104    96    97    1
   105   126   123    1
   106    64    67    1
   107    64    65    1
   108    98    97    1
   109   137   135    1
   110    54    55    1
   111    97    99    1
   112    67    68    1
   113    69    68   ar
   114    69    71   ar
   115    65    66    2
   116   135   134    1
   117   123   122    1
   118   123   124    1
   119    68    70   ar
   120    71    73   ar
   121   124   125    2
   122   136   134    1
   123   134   131    1
   124    70    72   ar
   125    73    72   ar
   126   131   130    1
   127   131   132    1
   128   132   133    2
