@<TRIPOS>MOLECULE
tmp/4zbiE00.pdb
 147 138 0 0 0
SMALL
GASTEIGER

@<TRIPOS>ATOM
      1  N         33.4370    4.2670  -28.5760 N.3    54  HIS54      -0.1241
      2  CA        32.0070    4.2710  -28.2640 C.3    54  HIS54       0.1621
      3  C         31.6740    4.3910  -26.7600 C.2    54  HIS54       0.2264
      4  O         30.6080    3.9590  -26.3110 O.2    54  HIS54      -0.2867
      5  CB        31.3460    3.0110  -28.8490 C.3    54  HIS54       0.0745
      6  CG        31.2470    3.0040  -30.3480 C.ar   54  HIS54       0.0817
      7  ND1       32.3500    2.9470  -31.1750 N.ar   54  HIS54      -0.2268
      8  CD2       30.1670    2.9970  -31.1670 C.ar   54  HIS54       0.1154
      9  CE1       31.9550    2.9370  -32.4370 C.ar   54  HIS54       0.1986
     10  NE2       30.6360    2.9620  -32.4580 N.ar   54  HIS54      -0.2212
     11  N         28.1020    6.0810  -25.6810 N.3    57  ALA57      -0.1231
     12  CA        26.9440    5.2660  -26.0530 C.3    57  ALA57       0.1694
     13  C         26.8910    3.9980  -25.2070 C.2    57  ALA57       0.2592
     14  O         25.8170    3.5700  -24.7550 O.2    57  ALA57      -0.2718
     15  CB        26.9790    4.9090  -27.5450 C.3    57  ALA57       0.0304
     16  N         28.0620    3.4050  -24.9910 N.am   58  PHE58      -0.1976
     17  CA        28.1470    2.1850  -24.2090 C.3    58  PHE58       0.1639
     18  C         27.7540    2.4430  -22.7550 C.2    58  PHE58       0.2290
     19  O         26.9720    1.6730  -22.1920 O.2    58  PHE58      -0.2864
     20  CB        29.5530    1.5780  -24.3040 C.3    58  PHE58       0.0560
     21  CG        29.7980    0.8000  -25.5750 C.ar   58  PHE58      -0.0200
     22  CD1       28.8570    0.7840  -26.5970 C.ar   58  PHE58      -0.0042
     23  CD2       30.9640    0.0610  -25.7400 C.ar   58  PHE58      -0.0042
     24  CE1       29.0760    0.0570  -27.7710 C.ar   58  PHE58      -0.0003
     25  CE2       31.1910   -0.6660  -26.9150 C.ar   58  PHE58      -0.0003
     26  CZ        30.2380   -0.6650  -27.9270 C.ar   58  PHE58      -0.0000
     27  N         23.9110    2.9720  -22.5530 N.3    61  MET61      -0.1245
     28  CA        23.2620    1.6830  -22.6720 C.3    61  MET61       0.1570
     29  C         23.3990    0.9030  -21.3610 C.2    61  MET61       0.2261
     30  O         22.4350    0.3000  -20.8720 O.2    61  MET61      -0.2867
     31  CB        23.8820    0.8840  -23.8170 C.3    61  MET61       0.0387
     32  CG        23.2960   -0.5200  -24.0360 C.3    61  MET61       0.0595
     33  SD        21.6580   -0.6400  -24.7800 S.3    61  MET61      -0.1393
     34  CE        21.8270    0.6420  -26.0350 C.3    61  MET61       0.0692
     35  N         20.2950   -0.5030  -19.0350 N.3    65  LEU65      -0.1245
     36  CA        20.1210   -1.9340  -18.7710 C.3    65  LEU65       0.1561
     37  C         20.0890   -2.3760  -17.3070 C.2    65  LEU65       0.2260
     38  O         19.5990   -3.4650  -17.0080 O.2    65  LEU65      -0.2867
     39  CB        21.2320   -2.7040  -19.4760 C.3    65  LEU65       0.0270
     40  CG        21.1670   -2.6200  -20.9930 C.3    65  LEU65       0.0019
     41  CD1       22.3730   -3.3010  -21.6200 C.3    65  LEU65       0.0001
     42  CD2       19.8640   -3.2720  -21.4410 C.3    65  LEU65       0.0001
     43  N         17.8790  -10.0370  -21.4090 N.3    76  LEU76      -0.1245
     44  CA        18.3890   -9.0950  -22.4240 C.3    76  LEU76       0.1561
     45  C         18.0320   -9.3450  -23.9000 C.2    76  LEU76       0.2260
     46  O         18.2270   -8.4590  -24.7450 O.2    76  LEU76      -0.2867
     47  CB        19.9060   -8.9960  -22.3220 C.3    76  LEU76       0.0270
     48  CG        20.4030   -8.3020  -21.0600 C.3    76  LEU76       0.0019
     49  CD1       21.9270   -8.3120  -21.0470 C.3    76  LEU76       0.0001
     50  CD2       19.8610   -6.8950  -20.9800 C.3    76  LEU76       0.0001
     51  N         15.6550   -6.6930  -26.1790 N.3    79  VAL79      -0.1231
     52  CA        16.2740   -5.4180  -26.5010 C.3    79  VAL79       0.1692
     53  C         17.4780   -5.6520  -27.4200 C.2    79  VAL79       0.2591
     54  O         17.6940   -4.9000  -28.3690 O.2    79  VAL79      -0.2718
     55  CB        16.6450   -4.6060  -25.2230 C.3    79  VAL79       0.0266
     56  CG1       17.7780   -5.2520  -24.4190 C.3    79  VAL79       0.0020
     57  CG2       16.9980   -3.1950  -25.6080 C.3    79  VAL79       0.0020
     58  N         18.2430   -6.7090  -27.1600 N.am   80  MET80      -0.1979
     59  CA        19.4280   -6.9610  -27.9670 C.3    80  MET80       0.1605
     60  C         19.0530   -7.1360  -29.4410 C.2    80  MET80       0.2287
     61  O         19.6030   -6.4680  -30.2980 O.2    80  MET80      -0.2864
     62  CB        20.1650   -8.1910  -27.4520 C.3    80  MET80       0.0413
     63  CG        21.6470   -8.2220  -27.7770 C.3    80  MET80       0.0598
     64  SD        22.4900   -9.6760  -27.0880 S.3    80  MET80      -0.1393
     65  CE        21.8400   -9.6810  -25.4310 C.3    80  MET80       0.0692
     66  N         17.6640   -3.7570  -31.0270 N.3    83  VAL83      -0.1231
     67  CA        18.6940   -2.8220  -31.4560 C.3    83  VAL83       0.1692
     68  C         19.5780   -3.3560  -32.6020 C.2    83  VAL83       0.2592
     69  O         19.8630   -2.6410  -33.5740 O.2    83  VAL83      -0.2718
     70  CB        19.5440   -2.4050  -30.2520 C.3    83  VAL83       0.0266
     71  CG1       20.6860   -1.4800  -30.6850 C.3    83  VAL83       0.0020
     72  CG2       18.6490   -1.7450  -29.2240 C.3    83  VAL83       0.0020
     73  N         20.0170   -4.6000  -32.4740 N.am   84  PHE84      -0.1976
     74  CA        20.9310   -5.2100  -33.4390 C.3    84  PHE84       0.1639
     75  C         20.2380   -5.3950  -34.8040 C.2    84  PHE84       0.2290
     76  O         20.8830   -5.2820  -35.8340 O.2    84  PHE84      -0.2864
     77  CB        21.4920   -6.5350  -32.8720 C.3    84  PHE84       0.0560
     78  CG        22.6740   -7.0830  -33.6260 C.ar   84  PHE84      -0.0200
     79  CD1       23.8060   -6.3140  -33.8350 C.ar   84  PHE84      -0.0042
     80  CD2       22.6700   -8.3960  -34.0740 C.ar   84  PHE84      -0.0042
     81  CE1       24.8790   -6.8120  -34.5230 C.ar   84  PHE84      -0.0003
     82  CE2       23.7410   -8.9030  -34.7630 C.ar   84  PHE84      -0.0003
     83  CZ        24.8560   -8.1120  -34.9840 C.ar   84  PHE84      -0.0000
     84  N         29.0880   -3.7540  -37.2640 N.3    93  ARG93      -0.1245
     85  CA        28.0130   -3.8480  -36.2960 C.3    93  ARG93       0.1563
     86  C         28.1610   -5.0730  -35.4100 C.2    93  ARG93       0.2260
     87  O         27.8220   -5.0500  -34.2320 O.2    93  ARG93      -0.2867
     88  CB        26.6650   -3.8760  -37.0170 C.3    93  ARG93       0.0307
     89  CG        26.4230   -2.6020  -37.8400 C.3    93  ARG93       0.0489
     90  CD        25.7040   -1.5360  -37.0730 C.3    93  ARG93       0.2205
     91  NE        24.5240   -2.0300  -36.3660 N.pl3  93  ARG93      -0.0865
     92  CZ        23.3180   -2.1330  -36.9090 C.cat  93  ARG93       0.5346
     93  NH1       23.1360   -1.7900  -38.1670 N.pl3  93  ARG93       0.1354
     94  NH2       22.3070   -2.5820  -36.1900 N.pl3  93  ARG93       0.1354
     95  N         30.6470   -4.3140  -33.0280 N.3    96  THR96      -0.1203
     96  CA        30.0110   -3.4590  -32.0150 C.3    96  THR96       0.1994
     97  C         29.2880   -4.3080  -30.9600 C.2    96  THR96       0.2617
     98  O         29.4520   -4.0960  -29.7740 O.2    96  THR96      -0.2717
     99  CB        29.0030   -2.4710  -32.6400 C.3    96  THR96       0.1784
    100  OG1       29.6880   -1.6010  -33.5560 O.3    96  THR96      -0.2211
    101  CG2       28.3620   -1.6160  -31.5640 C.3    96  THR96       0.0376
    102  N         28.5540   -5.3170  -31.4050 N.am   97  LEU97      -0.1979
    103  CA        27.8400   -6.2180  -30.5120 C.3    97  LEU97       0.1596
    104  C         28.7590   -6.9420  -29.5460 C.2    97  LEU97       0.2287
    105  O         28.5550   -6.9130  -28.3240 O.2    97  LEU97      -0.2864
    106  CB        27.1110   -7.2720  -31.3420 C.3    97  LEU97       0.0297
    107  CG        26.4600   -8.4230  -30.5940 C.3    97  LEU97       0.0022
    108  CD1       25.0180   -8.0900  -30.2760 C.3    97  LEU97       0.0001
    109  CD2       26.5660   -9.6930  -31.3870 C.3    97  LEU97       0.0001
    110  N         30.5030   -4.3770  -27.0650 N.3   100  PHE100     -0.1227
    111  CA        29.6560   -3.9660  -25.9390 C.3   100  PHE100      0.1736
    112  C         29.4540   -5.1260  -24.9760 C.2   100  PHE100      0.2596
    113  O         29.2990   -4.9200  -23.7720 O.2   100  PHE100     -0.2718
    114  CB        28.2950   -3.4270  -26.3740 C.3   100  PHE100      0.0547
    115  CG        27.4400   -3.0110  -25.2170 C.ar  100  PHE100     -0.0202
    116  CD1       27.8350   -1.9700  -24.3980 C.ar  100  PHE100     -0.0042
    117  CD2       26.2560   -3.6780  -24.9320 C.ar  100  PHE100     -0.0042
    118  CE1       27.0580   -1.5810  -23.3140 C.ar  100  PHE100     -0.0003
    119  CE2       25.4750   -3.3030  -23.8630 C.ar  100  PHE100     -0.0003
    120  CZ        25.8810   -2.2560  -23.0440 C.ar  100  PHE100     -0.0000
    121  N         29.4270   -6.3430  -25.5130 N.am  101  GLY101     -0.1957
    122  CA        29.4110   -7.5020  -24.6490 C.3   101  GLY101      0.1869
    123  C         30.6410   -7.4960  -23.7560 C.2   101  GLY101      0.2309
    124  O         30.5220   -7.7400  -22.5670 O.2   101  GLY101     -0.2863
    125  N         30.2290   -4.8770  -20.9670 N.3   104  VAL104     -0.1245
    126  CA        29.3860   -5.4510  -19.9240 C.3   104  VAL104      0.1561
    127  C         30.1320   -6.5100  -19.1010 C.2   104  VAL104      0.2260
    128  O         29.9030   -6.6130  -17.8950 O.2   104  VAL104     -0.2867
    129  CB        28.0850   -6.0420  -20.5200 C.3   104  VAL104      0.0252
    130  CG1       27.2970   -6.7800  -19.4520 C.3   104  VAL104      0.0019
    131  CG2       27.2300   -4.9390  -21.1540 C.3   104  VAL104      0.0019
    132  N         26.0340  -14.4630  -20.5170 N.3   120  LEU120     -0.1245
    133  CA        25.9810  -13.2990  -21.3900 C.3   120  LEU120      0.1561
    134  C         26.4830  -13.6600  -22.8070 C.2   120  LEU120      0.2260
    135  O         25.8140  -13.3650  -23.8150 O.2   120  LEU120     -0.2867
    136  CB        26.7930  -12.1500  -20.7940 C.3   120  LEU120      0.0270
    137  CG        26.8920  -10.8880  -21.6570 C.3   120  LEU120      0.0019
    138  CD1       25.5470  -10.2310  -21.8100 C.3   120  LEU120      0.0001
    139  CD2       27.8710   -9.9110  -21.0400 C.3   120  LEU120      0.0001
    140  N         24.7480  -13.5290  -26.3200 N.3   124  ILE124     -0.1245
    141  CA        25.1610  -12.7460  -27.4830 C.3   124  ILE124      0.1561
    142  C         25.2080  -13.6420  -28.7260 C.2   124  ILE124      0.2260
    143  O         24.6420  -13.3130  -29.7740 O.2   124  ILE124     -0.2867
    144  CB        26.4970  -12.0550  -27.2620 C.3   124  ILE124      0.0252
    145  CG1       26.3470  -10.9450  -26.2150 C.3   124  ILE124      0.0019
    146  CG2       26.9690  -11.4580  -28.5630 C.3   124  ILE124      0.0019
    147  CD1       27.6790  -10.4600  -25.6370 C.3   124  ILE124      0.0001
@<TRIPOS>BOND
     1    93    92    1
     2    89    90    1
     3    89    88    1
     4    84    85    1
     5    90    91    1
     6    88    85    1
     7    92    91    2
     8    92    94    1
     9    85    86    1
    10    76    75    2
    11    86    87    2
    12    83    82   ar
    13    83    81   ar
    14    75    74    1
    15    82    80   ar
    16    81    79   ar
    17    80    78   ar
    18    79    78   ar
    19    78    77    1
    20    69    68    2
    21   100    99    1
    22    74    77    1
    23    74    73    1
    24    95    96    1
    25    99    96    1
    26    99   101    1
    27    68    73   am
    28    68    67    1
    29    10     9   ar
    30    10     8   ar
    31     9     7   ar
    32    96    97    1
    33    67    66    1
    34    67    70    1
    35   102    97   am
    36   102   103    1
    37   109   107    1
    38   106   107    1
    39   106   103    1
    40     7     6   ar
    41     8     6   ar
    42    97    98    2
    43    71    70    1
    44   107   108    1
    45   103   104    1
    46     6     5    1
    47    61    60    2
    48    70    72    1
    49   143   142    2
    50   104   105    2
    51    60    59    1
    52     5     2    1
    53   142   141    1
    54     1     2    1
    55   146   144    1
    56    54    53    2
    57     2     3    1
    58    59    62    1
    59    59    58    1
    60    26    24   ar
    61    26    25   ar
    62    63    62    1
    63    63    64    1
    64    24    22   ar
    65    15    12    1
    66   141   144    1
    67   141   140    1
    68    53    58   am
    69    53    52    1
    70   144   145    1
    71    64    65    1
    72   110   111    1
    73    25    23   ar
    74     3     4    2
    75    22    21   ar
    76    52    51    1
    77    52    55    1
    78   114   111    1
    79   114   115    1
    80   145   147    1
    81    12    11    1
    82    12    13    1
    83    34    33    1
    84   111   112    1
    85    23    21   ar
    86    57    55    1
    87    21    20    1
    88   121   112   am
    89   121   122    1
    90    55    56    1
    91   115   117   ar
    92   115   116   ar
    93    13    16   am
    94    13    14    2
    95    16    17    1
    96   112   113    2
    97   117   119   ar
    98    33    32    1
    99    46    45    2
   100   122   123    1
   101   116   118   ar
   102    20    17    1
   103    17    18    1
   104    32    31    1
   105    45    44    1
   106   119   120   ar
   107    31    28    1
   108   135   134    2
   109   123   124    2
   110   118   120   ar
   111   134   133    1
   112    18    19    2
   113    28    27    1
   114    28    29    1
   115    44    47    1
   116    44    43    1
   117    47    48    1
   118   138   137    1
   119   137   139    1
   120   137   136    1
   121    41    40    1
   122    42    40    1
   123   133   136    1
   124   133   132    1
   125    29    30    2
   126   131   129    1
   127    48    49    1
   128    48    50    1
   129    40    39    1
   130   125   126    1
   131   129   126    1
   132   129   130    1
   133   126   127    1
   134    39    36    1
   135   127   128    2
   136    35    36    1
   137    36    37    1
   138    37    38    2
