@<TRIPOS>MOLECULE
tmp/4zbkB01.pdb
 100 93 0 0 0
SMALL
GASTEIGER

@<TRIPOS>ATOM
      1  N        -22.3820  -29.0920  -14.1800 N.3     1  THR1       -0.1218
      2  CA       -22.3700  -27.6020  -14.3330 C.3     1  THR1        0.1862
      3  C        -21.4050  -27.1560  -15.4540 C.2     1  THR1        0.2287
      4  O        -20.3730  -27.7500  -15.6690 O.2     1  THR1       -0.2866
      5  CB       -22.0770  -26.9270  -12.9770 C.3     1  THR1        0.1770
      6  OG1      -23.0540  -27.3630  -12.0290 O.3     1  THR1       -0.2211
      7  CG2      -22.1370  -25.4020  -13.0510 C.3     1  THR1        0.0375
      8  N        -26.7400  -25.5050  -15.2650 N.3    19  THR19      -0.1218
      9  CA       -26.5930  -26.7980  -14.6070 C.3    19  THR19       0.1862
     10  C        -27.8670  -27.6440  -14.6160 C.2    19  THR19       0.2287
     11  O        -28.9740  -27.1050  -14.5710 O.2    19  THR19      -0.2866
     12  CB       -26.1440  -26.6250  -13.1190 C.3    19  THR19       0.1770
     13  OG1      -25.8850  -27.9140  -12.5340 O.3    19  THR19      -0.2211
     14  CG2      -27.2170  -25.9090  -12.2920 C.3    19  THR19       0.0375
     15  N        -27.5000  -29.9560  -12.2980 N.3    21  ASN21      -0.1225
     16  CA       -27.0040  -30.4130  -11.0010 C.3    21  ASN21       0.1785
     17  C        -25.9910  -31.5700  -11.0790 C.2    21  ASN21       0.2597
     18  O        -24.8860  -31.3720  -11.5520 O.2    21  ASN21      -0.2718
     19  CB       -28.1220  -30.6790   -9.9880 C.3    21  ASN21       0.1169
     20  CG       -27.5740  -30.7600   -8.5670 C.2    21  ASN21       0.2627
     21  OD1      -26.5550  -30.1590   -8.2830 O.2    21  ASN21      -0.2716
     22  ND2      -28.2320  -31.5070   -7.6930 N.am   21  ASN21      -0.0877
     23  N        -26.3390  -32.7640  -10.6250 N.am   22  LEU22      -0.1966
     24  CA       -25.3560  -33.8400  -10.6280 C.3    22  LEU22       0.1728
     25  C        -25.1760  -34.3870  -12.0410 C.2    22  LEU22       0.2616
     26  O        -25.9240  -34.0220  -12.9450 O.2    22  LEU22      -0.2715
     27  CB       -25.7190  -34.9460   -9.6300 C.3    22  LEU22       0.0311
     28  CG       -25.9240  -34.5310   -8.1580 C.3    22  LEU22       0.0022
     29  CD1      -26.2660  -35.7400   -7.3230 C.3    22  LEU22       0.0001
     30  CD2      -24.7120  -33.8160   -7.5640 C.3    22  LEU22       0.0001
     31  N        -24.1600  -35.2340  -12.2130 N.am   23  TYR23      -0.1974
     32  CA       -23.8640  -35.9300  -13.4640 C.3    23  TYR23       0.1639
     33  C        -25.1060  -36.6060  -13.9860 C.2    23  TYR23       0.2290
     34  O        -25.6340  -37.5210  -13.3360 O.2    23  TYR23      -0.2864
     35  CB       -22.7840  -37.0110  -13.2070 C.3    23  TYR23       0.0560
     36  CG       -21.3600  -36.4820  -13.0970 C.ar   23  TYR23      -0.0198
     37  CD1      -21.0940  -35.1160  -13.1630 C.ar   23  TYR23      -0.0009
     38  CD2      -20.2850  -37.3490  -12.8910 C.ar   23  TYR23      -0.0009
     39  CE1      -19.8150  -34.6340  -13.0530 C.ar   23  TYR23       0.0417
     40  CE2      -18.9860  -36.8730  -12.7890 C.ar   23  TYR23       0.0417
     41  CZ       -18.7570  -35.5200  -12.8750 C.ar   23  TYR23       0.1957
     42  OH       -17.4780  -35.0070  -12.7610 O.3    23  TYR23      -0.2866
     43  N        -32.2550  -30.8190   -9.6230 N.3    40  GLU40      -0.1245
     44  CA       -32.0090  -29.6100   -8.8690 C.3    40  GLU40       0.1567
     45  C        -32.7030  -29.5970   -7.5000 C.2    40  GLU40       0.2260
     46  O        -32.3230  -28.7970   -6.6490 O.2    40  GLU40      -0.2867
     47  CB       -32.4250  -28.3800   -9.6700 C.3    40  GLU40       0.0388
     48  CG       -31.4600  -27.2100   -9.5470 C.3    40  GLU40       0.1160
     49  CD       -30.1140  -27.4740  -10.2360 C.2    40  GLU40       0.3649
     50  OE1      -29.0710  -27.4200   -9.5240 O.co2  40  GLU40      -0.2457
     51  OE2      -30.0960  -27.7510  -11.4820 O.co2  40  GLU40      -0.2457
     52  N        -30.5370  -29.6280   -4.3570 N.3    43  ASP43      -0.1239
     53  CA       -29.9080  -28.4540   -3.7410 C.3    43  ASP43       0.1674
     54  C        -30.7150  -27.8090   -2.6380 C.2    43  ASP43       0.2266
     55  O        -30.2180  -26.8840   -2.0040 O.2    43  ASP43      -0.2867
     56  CB       -29.5570  -27.3900   -4.7670 C.3    43  ASP43       0.1410
     57  CG       -28.2790  -27.7040   -5.5100 C.2    43  ASP43       0.3668
     58  OD1      -27.5100  -28.6070   -5.0700 O.co2  43  ASP43      -0.2456
     59  OD2      -28.0670  -27.0530   -6.5480 O.co2  43  ASP43      -0.2456
     60  N        -27.8530  -21.8980   -4.5860 N.3    71  SER71      -0.1202
     61  CA       -26.8390  -22.3420   -5.5470 C.3    71  SER71       0.2020
     62  C        -25.4850  -21.7510   -5.2020 C.2    71  SER71       0.2619
     63  O        -25.4240  -20.6420   -4.6700 O.2    71  SER71      -0.2717
     64  CB       -27.2110  -21.8770   -6.9450 C.3    71  SER71       0.2103
     65  OG       -26.2210  -22.2580   -7.8810 O.3    71  SER71      -0.2182
     66  N        -24.4090  -22.4730   -5.5280 N.am   72  SER72      -0.1937
     67  CA       -23.0420  -21.9660   -5.3690 C.3    72  SER72       0.2055
     68  C        -22.5600  -21.2310   -6.6090 C.2    72  SER72       0.2642
     69  O        -21.4780  -20.6120   -6.5970 O.2    72  SER72      -0.2714
     70  CB       -22.0750  -23.1070   -5.0720 C.3    72  SER72       0.2130
     71  OG       -22.5390  -23.9100   -3.9960 O.3    72  SER72      -0.2179
     72  N        -23.3430  -21.3040   -7.6890 N.am   73  MET73      -0.1976
     73  CA       -22.9740  -20.6460   -8.9460 C.3    73  MET73       0.1605
     74  C        -22.7870  -19.1470   -8.7340 C.2    73  MET73       0.2287
     75  O        -23.4520  -18.5290   -7.8870 O.2    73  MET73      -0.2864
     76  CB       -24.0150  -20.8840  -10.0510 C.3    73  MET73       0.0413
     77  CG       -24.1570  -22.3400  -10.4720 C.3    73  MET73       0.0598
     78  SD       -25.2340  -22.5610  -11.9070 S.3    73  MET73      -0.1393
     79  CE       -26.7870  -21.9100  -11.2430 C.3    73  MET73       0.0692
     80  N        -17.6620  -24.1250  -12.4520 N.3    92  ALA92      -0.1231
     81  CA       -18.4570  -25.2790  -12.1610 C.3    92  ALA92       0.1694
     82  C        -17.7530  -25.9990  -10.9950 C.2    92  ALA92       0.2593
     83  O        -16.5570  -25.7530  -10.7430 O.2    92  ALA92      -0.2718
     84  CB       -18.4820  -26.1700  -13.3820 C.3    92  ALA92       0.0304
     85  N        -18.4860  -26.8530  -10.2760 N.am   93  GLY93      -0.1942
     86  CA       -17.8930  -27.7400   -9.2700 C.3    93  GLY93       0.2014
     87  C        -18.5710  -27.6600   -7.9060 C.2    93  GLY93       0.2639
     88  O        -17.8990  -27.6350   -6.8750 O.2    93  GLY93      -0.2714
     89  N        -19.8990  -27.5860   -7.9010 N.am   94  GLY94      -0.1954
     90  CA       -20.6690  -27.5610   -6.6690 C.3    94  GLY94       0.1869
     91  C        -20.2220  -26.4720   -5.7290 C.2    94  GLY94       0.2309
     92  O        -20.0260  -25.3390   -6.1460 O.2    94  GLY94      -0.2863
     93  N        -17.4190  -23.9560   -6.5980 N.3    97  ILE97      -0.1245
     94  CA       -17.5650  -22.8690   -7.5820 C.3    97  ILE97       0.1561
     95  C        -17.1260  -21.5180   -6.9950 C.2    97  ILE97       0.2260
     96  O        -16.3650  -20.7790   -7.6070 O.2    97  ILE97      -0.2867
     97  CB       -19.0140  -22.7390   -8.0800 C.3    97  ILE97       0.0252
     98  CG1      -19.4160  -23.9420   -8.9460 C.3    97  ILE97       0.0019
     99  CG2      -19.2080  -21.4310   -8.8610 C.3    97  ILE97       0.0019
    100  CD1      -20.9100  -23.9860   -9.2620 C.3    97  ILE97       0.0001
@<TRIPOS>BOND
     1     4     3    2
     2     3     2    1
     3     8     9    1
     4    10     9    1
     5    10    11    2
     6     9    12    1
     7     2     1    1
     8     2     5    1
     9    33    32    1
    10    33    34    2
    11    32    35    1
    12    32    31    1
    13    84    81    1
    14    35    36    1
    15    37    36   ar
    16    37    39   ar
    17    12    13    1
    18    12    14    1
    19    36    38   ar
    20    39    41   ar
    21     7     5    1
    22     5     6    1
    23    26    25    2
    24    38    40   ar
    25    41    40   ar
    26    41    42    1
    27    80    81    1
    28    15    16    1
    29    31    25   am
    30    81    82    1
    31    25    24    1
    32    78    79    1
    33    78    77    1
    34    18    17    2
    35    51    49   ar
    36    17    16    1
    37    17    23   am
    38    16    19    1
    39    82    83    2
    40    82    85   am
    41    24    23    1
    42    24    27    1
    43    77    76    1
    44    85    86    1
    45    49    48    1
    46    49    50   ar
    47    76    73    1
    48    19    20    1
    49    47    48    1
    50    47    44    1
    51    27    28    1
    52    43    44    1
    53    86    87    1
    54   100    98    1
    55    98    97    1
    56    73    74    1
    57    73    72    1
    58    44    45    1
    59    99    97    1
    60    74    75    2
    61    20    21    2
    62    20    22   am
    63    28    30    1
    64    28    29    1
    65    97    94    1
    66    87    89   am
    67    87    88    2
    68    89    90    1
    69    65    64    1
    70    72    68   am
    71    96    95    2
    72    94    95    1
    73    94    93    1
    74    45    46    2
    75    64    61    1
    76    90    91    1
    77    68    69    2
    78    68    67    1
    79    59    57   ar
    80    92    91    2
    81    61    62    1
    82    61    60    1
    83    66    67    1
    84    66    62   am
    85    57    58   ar
    86    57    56    1
    87    67    70    1
    88    62    63    2
    89    70    71    1
    90    56    53    1
    91    52    53    1
    92    53    54    1
    93    54    55    2
