@<TRIPOS>MOLECULE
tmp/4zboD00.pdb
 80 75 0 0 0
SMALL
GASTEIGER

@<TRIPOS>ATOM
      1  N         68.5240    8.5660   26.9530 N.3   148  GLN148     -0.1245
      2  CA        67.7350    9.6440   27.5370 C.3   148  GLN148      0.1566
      3  C         67.0900   10.5030   26.4430 C.2   148  GLN148      0.2260
      4  O         67.7390   10.8700   25.4520 O.2   148  GLN148     -0.2867
      5  CB        68.6070   10.5200   28.4320 C.3   148  GLN148      0.0367
      6  CG        69.2180    9.7990   29.6290 C.3   148  GLN148      0.0905
      7  CD        69.9700   10.7490   30.5520 C.2   148  GLN148      0.2608
      8  OE1       69.3630   11.5300   31.2680 O.2   148  GLN148     -0.2717
      9  NE2       71.2900   10.6840   30.5300 N.am  148  GLN148     -0.0878
     10  N         64.3360   13.9140   25.9770 N.3   150  GLY150     -0.1210
     11  CA        63.5690   15.0170   26.5270 C.3   150  GLY150      0.1956
     12  C         62.4160   15.3580   25.6100 C.2   150  GLY150      0.2612
     13  O         62.4700   15.0630   24.4120 O.2   150  GLY150     -0.2717
     14  N         61.3760   15.9720   26.1610 N.am  151  ALA151     -0.1965
     15  CA        60.2670   16.4370   25.3440 C.3   151  ALA151      0.1728
     16  C         59.5980   17.6160   26.0270 C.2   151  ALA151      0.2616
     17  O         59.5380   17.6760   27.2490 O.2   151  ALA151     -0.2715
     18  CB        59.2620   15.3060   25.0910 C.3   151  ALA151      0.0334
     19  N         59.1210   18.5630   25.2280 N.am  152  THR152     -0.1951
     20  CA        58.4480   19.7460   25.7440 C.3   152  THR152      0.1897
     21  C         57.2620   20.1250   24.8730 C.2   152  THR152      0.2313
     22  O         57.1900   19.7650   23.6880 O.2   152  THR152     -0.2863
     23  CB        59.4010   20.9610   25.8280 C.3   152  THR152      0.1794
     24  OG1       59.9860   21.2080   24.5440 O.3   152  THR152     -0.2208
     25  CG2       60.5100   20.7370   26.8630 C.3   152  THR152      0.0378
     26  N         55.3200   27.6230   28.1200 N.3   159  ARG159     -0.1245
     27  CA        55.6670   26.2250   28.3020 C.3   159  ARG159      0.1563
     28  C         54.6060   25.5780   29.1950 C.2   159  ARG159      0.2260
     29  O         54.3120   26.0860   30.2810 O.2   159  ARG159     -0.2867
     30  CB        57.0690   26.1470   28.9140 C.3   159  ARG159      0.0307
     31  CG        57.6330   24.7650   29.1220 C.3   159  ARG159      0.0489
     32  CD        57.9210   24.0110   27.8280 C.3   159  ARG159      0.2205
     33  NE        58.7820   24.6670   26.8440 N.pl3 159  ARG159     -0.0865
     34  CZ        60.1150   24.7230   26.8890 C.cat 159  ARG159      0.5346
     35  NH1       60.7820   24.2500   27.9260 N.pl3 159  ARG159      0.1354
     36  NH2       60.7910   25.2940   25.8970 N.pl3 159  ARG159      0.1354
     37  N         56.9820   19.6080   30.4180 N.3   162  GLU162     -0.1231
     38  CA        58.3880   19.2280   30.2470 C.3   162  GLU162      0.1699
     39  C         58.5460   17.8080   30.7610 C.2   162  GLU162      0.2592
     40  O         58.0570   17.4790   31.8480 O.2   162  GLU162     -0.2718
     41  CB        59.3290   20.1740   31.0070 C.3   162  GLU162      0.0402
     42  CG        59.2110   21.6210   30.5390 C.3   162  GLU162      0.1161
     43  CD        60.2030   22.5790   31.1700 C.2   162  GLU162      0.3649
     44  OE1       60.8560   22.2300   32.1820 O.co2 162  GLU162     -0.2457
     45  OE2       60.3330   23.6990   30.6240 O.co2 162  GLU162     -0.2457
     46  N         59.2230   16.9720   29.9840 N.am  163  ALA163     -0.1966
     47  CA        59.3620   15.5600   30.3110 C.3   163  ALA163      0.1728
     48  C         60.7380   15.0350   29.9430 C.2   163  ALA163      0.2616
     49  O         61.4100   15.5450   29.0380 O.2   163  ALA163     -0.2715
     50  CB        58.3110   14.7570   29.5870 C.3   163  ALA163      0.0334
     51  N         61.1400   13.9780   30.6320 N.am  164  LYS164     -0.1977
     52  CA        62.3540   13.2670   30.2790 C.3   164  LYS164      0.1596
     53  C         62.1760   11.8020   30.6160 C.2   164  LYS164      0.2287
     54  O         61.5560   11.4730   31.6180 O.2   164  LYS164     -0.2864
     55  CB        63.5240   13.8710   31.0490 C.3   164  LYS164      0.0298
     56  CG        64.8640   13.2220   30.8380 C.3   164  LYS164      0.0038
     57  CD        65.8910   14.0010   31.6360 C.3   164  LYS164      0.0206
     58  CE        67.1060   13.1890   31.9540 C.3   164  LYS164      0.1093
     59  NZ        66.8030   11.9860   32.7840 N.3   164  LYS164     -0.1314
     60  N         60.3410   11.4930   34.1880 N.3   223  ASP223     -0.1225
     61  CA        60.0410   12.7020   34.9480 C.3   223  ASP223      0.1805
     62  C         59.1150   13.5400   34.0910 C.2   223  ASP223      0.2598
     63  O         59.3360   13.6650   32.8910 O.2   223  ASP223     -0.2718
     64  CB        61.3030   13.5290   35.2070 C.3   223  ASP223      0.1424
     65  CG        62.4410   12.7100   35.7800 C.2   223  ASP223      0.3668
     66  OD1       62.1790   11.8220   36.6180 O.co2 223  ASP223     -0.2456
     67  OD2       63.6060   12.9630   35.3940 O.co2 223  ASP223     -0.2456
     68  N         58.1040   14.1390   34.7030 N.am  224  LEU224     -0.1966
     69  CA        57.1300   14.9460   33.9880 C.3   224  LEU224      0.1728
     70  C         56.6220   16.0510   34.8910 C.2   224  LEU224      0.2616
     71  O         56.3870   15.8340   36.0760 O.2   224  LEU224     -0.2715
     72  CB        55.9540   14.0730   33.5450 C.3   224  LEU224      0.0311
     73  CG        54.7810   14.7630   32.8430 C.3   224  LEU224      0.0022
     74  CD1       55.1550   15.1850   31.4390 C.3   224  LEU224      0.0001
     75  CD2       53.5610   13.8330   32.8270 C.3   224  LEU224      0.0001
     76  N         56.4500   17.2340   34.3120 N.am  225  ALA225     -0.1977
     77  CA        55.8170   18.3400   35.0070 C.3   225  ALA225      0.1597
     78  C         54.9030   19.0700   34.0500 C.2   225  ALA225      0.2287
     79  O         55.2240   19.2210   32.8700 O.2   225  ALA225     -0.2864
     80  CB        56.8690   19.2900   35.5460 C.3   225  ALA225      0.0319
@<TRIPOS>BOND
     1    22    21    2
     2    13    12    2
     3    24    23    1
     4    21    20    1
     5    18    15    1
     6    19    20    1
     7    19    16   am
     8    15    16    1
     9    15    14    1
    10     4     3    2
    11    12    14   am
    12    12    11    1
    13    20    23    1
    14    23    25    1
    15    36    34    1
    16    10    11    1
    17    16    17    2
    18     3     2    1
    19    33    34    2
    20    33    32    1
    21    34    35    1
    22     1     2    1
    23     2     5    1
    24    32    31    1
    25    26    27    1
    26    27    30    1
    27    27    28    1
    28     5     6    1
    29    30    31    1
    30    49    48    2
    31    28    29    2
    32    50    47    1
    33     6     7    1
    34    48    47    1
    35    48    51   am
    36    46    47    1
    37    46    39   am
    38    38    37    1
    39    38    39    1
    40    38    41    1
    41    52    53    1
    42    52    51    1
    43    52    55    1
    44     9     7   am
    45    42    41    1
    46    42    43    1
    47     7     8    2
    48    53    54    2
    49    45    43   ar
    50    39    40    2
    51    56    55    1
    52    56    57    1
    53    43    44   ar
    54    74    73    1
    55    57    58    1
    56    58    59    1
    57    75    73    1
    58    73    72    1
    59    79    78    2
    60    63    62    2
    61    72    69    1
    62    69    68    1
    63    69    70    1
    64    78    77    1
    65    62    68   am
    66    62    61    1
    67    60    61    1
    68    76    70   am
    69    76    77    1
    70    70    71    2
    71    61    64    1
    72    77    80    1
    73    64    65    1
    74    67    65   ar
    75    65    66   ar
