@<TRIPOS>MOLECULE
tmp/4zboB00.pdb
 71 67 0 0 0
SMALL
GASTEIGER

@<TRIPOS>ATOM
      1  N         52.1720   47.8490    0.9230 N.3   150  GLY150     -0.1210
      2  CA        52.2660   46.5060    0.3800 C.3   150  GLY150      0.1956
      3  C         51.5980   45.4970    1.2960 C.2   150  GLY150      0.2612
      4  O         51.4270   45.7350    2.4910 O.2   150  GLY150     -0.2717
      5  N         51.2020   44.3620    0.7290 N.am  151  ALA151     -0.1965
      6  CA        50.6260   43.2870    1.5130 C.3   151  ALA151      0.1728
      7  C         50.8830   41.9520    0.8460 C.2   151  ALA151      0.2616
      8  O         50.9020   41.8530   -0.3770 O.2   151  ALA151     -0.2715
      9  CB        49.1380   43.4930    1.7260 C.3   151  ALA151      0.0334
     10  N         51.0780   40.9240    1.6570 N.am  152  THR152     -0.1951
     11  CA        51.3150   39.5810    1.1470 C.3   152  THR152      0.1897
     12  C         50.6350   38.5180    1.9960 C.2   152  THR152      0.2313
     13  O         50.3260   38.7360    3.1690 O.2   152  THR152     -0.2863
     14  CB        52.8240   39.2510    1.0830 C.3   152  THR152      0.1794
     15  OG1       53.4080   39.4200    2.3790 O.3   152  THR152     -0.2208
     16  CG2       53.5390   40.1490    0.0890 C.3   152  THR152      0.0378
     17  N         53.9500   31.4900   -1.2120 N.3   159  ARG159     -0.1245
     18  CA        53.3160   32.7890   -1.4020 C.3   159  ARG159      0.1563
     19  C         52.0960   32.6190   -2.3100 C.2   159  ARG159      0.2260
     20  O         52.1950   32.0200   -3.3870 O.2   159  ARG159     -0.2867
     21  CB        54.3550   33.7350   -2.0050 C.3   159  ARG159      0.0307
     22  CG        53.9570   35.1790   -2.1740 C.3   159  ARG159      0.0489
     23  CD        53.6710   35.9170   -0.8640 C.3   159  ARG159      0.2205
     24  NE        54.7270   35.9840    0.1560 N.pl3 159  ARG159     -0.0865
     25  CZ        55.8030   36.7720    0.1170 C.cat 159  ARG159      0.5346
     26  NH1       56.0600   37.5190   -0.9420 N.pl3 159  ARG159      0.1354
     27  NH2       56.6450   36.8000    1.1360 N.pl3 159  ARG159      0.1354
     28  N         50.1440   38.7630   -3.5410 N.3   162  GLU162     -0.1231
     29  CA        50.9710   39.9520   -3.3560 C.3   162  GLU162      0.1699
     30  C         50.1990   41.1560   -3.8800 C.2   162  GLU162      0.2592
     31  O         49.6130   41.1010   -4.9630 O.2   162  GLU162     -0.2718
     32  CB        52.3160   39.8120   -4.0850 C.3   162  GLU162      0.0402
     33  CG        53.1450   38.6290   -3.5640 C.3   162  GLU162      0.1161
     34  CD        54.5300   38.4870   -4.1910 C.2   162  GLU162      0.3649
     35  OE1       54.8120   39.1080   -5.2430 O.co2 162  GLU162     -0.2457
     36  OE2       55.3360   37.7200   -3.6210 O.co2 162  GLU162     -0.2457
     37  N         50.1970   42.2390   -3.1100 N.am  163  ALA163     -0.1966
     38  CA        49.3940   43.4140   -3.4220 C.3   163  ALA163      0.1728
     39  C         50.1220   44.6880   -3.0550 C.2   163  ALA163      0.2616
     40  O         50.9790   44.7020   -2.1590 O.2   163  ALA163     -0.2715
     41  CB        48.0660   43.3590   -2.6800 C.3   163  ALA163      0.0334
     42  N         49.7650   45.7670   -3.7400 N.am  164  LYS164     -0.1977
     43  CA        50.2730   47.0840   -3.4020 C.3   164  LYS164      0.1596
     44  C         49.2150   48.1080   -3.7470 C.2   164  LYS164      0.2287
     45  O         48.5650   47.9870   -4.7810 O.2   164  LYS164     -0.2864
     46  CB        51.5410   47.3610   -4.2010 C.3   164  LYS164      0.0298
     47  CG        52.2030   48.6900   -3.9330 C.3   164  LYS164      0.0038
     48  CD        53.3950   48.8320   -4.8520 C.3   164  LYS164      0.0206
     49  CE        53.9310   50.2310   -4.8690 C.3   164  LYS164      0.1093
     50  NZ        53.0530   51.1530   -5.6420 N.3   164  LYS164     -0.1314
     51  N         47.6990   47.2290   -7.3180 N.3   223  ASP223     -0.1225
     52  CA        48.2350   46.0980   -8.0630 C.3   223  ASP223      0.1805
     53  C         47.9960   44.8460   -7.2240 C.2   223  ASP223      0.2598
     54  O         48.1320   44.8870   -6.0040 O.2   223  ASP223     -0.2718
     55  CB        49.7400   46.2490   -8.3050 C.3   223  ASP223      0.1424
     56  CG        50.0940   47.4810   -9.1160 C.2   223  ASP223      0.3668
     57  OD1       49.2970   47.8780   -9.9920 O.co2 223  ASP223     -0.2456
     58  OD2       51.1870   48.0460   -8.8800 O.co2 223  ASP223     -0.2456
     59  N         47.6400   43.7410   -7.8690 N.am  224  LEU224     -0.1966
     60  CA        47.3650   42.4900   -7.1680 C.3   224  LEU224      0.1728
     61  C         47.6890   41.3070   -8.0560 C.2   224  LEU224      0.2616
     62  O         47.3720   41.3120   -9.2480 O.2   224  LEU224     -0.2715
     63  CB        45.8900   42.4140   -6.7520 C.3   224  LEU224      0.0311
     64  CG        45.4140   41.1140   -6.0870 C.3   224  LEU224      0.0022
     65  CD1       45.9570   40.9600   -4.6690 C.3   224  LEU224      0.0001
     66  CD2       43.8820   41.0680   -6.0970 C.3   224  LEU224      0.0001
     67  N         48.3060   40.2930   -7.4620 N.am  225  ALA225     -0.1977
     68  CA        48.5320   39.0230   -8.1330 C.3   225  ALA225      0.1597
     69  C         48.2560   37.8600   -7.1860 C.2   225  ALA225      0.2287
     70  O         48.5900   37.9150   -5.9970 O.2   225  ALA225     -0.2864
     71  CB        49.9480   38.9440   -8.6650 C.3   225  ALA225      0.0319
@<TRIPOS>BOND
     1    57    56   ar
     2    62    61    2
     3    56    58   ar
     4    56    55    1
     5    71    68    1
     6    55    52    1
     7    68    67    1
     8    68    69    1
     9    52    51    1
    10    52    53    1
    11    61    67   am
    12    61    60    1
    13    59    53   am
    14    59    60    1
    15    53    54    2
    16    69    70    2
    17    60    63    1
    18    63    64    1
    19    66    64    1
    20    64    65    1
    21    50    49    1
    22    35    34   ar
    23    31    30    2
    24    49    48    1
    25    48    47    1
    26    45    44    2
    27    46    47    1
    28    46    43    1
    29    34    36   ar
    30    34    33    1
    31    32    33    1
    32    32    29    1
    33    30    29    1
    34    30    37   am
    35    44    43    1
    36    42    43    1
    37    42    39   am
    38    28    29    1
    39    38    37    1
    40    38    39    1
    41    38    41    1
    42    20    19    2
    43    39    40    2
    44    19    18    1
    45    22    21    1
    46    22    23    1
    47    21    18    1
    48    18    17    1
    49    26    25    1
    50    23    24    1
    51     8     7    2
    52    16    14    1
    53    25    24    2
    54    25    27    1
    55     2     1    1
    56     2     3    1
    57     5     3   am
    58     5     6    1
    59     7     6    1
    60     7    10   am
    61    14    11    1
    62    14    15    1
    63    11    10    1
    64    11    12    1
    65     3     4    2
    66     6     9    1
    67    12    13    2
