@<TRIPOS>MOLECULE
tmp/4zbpC00.pdb
 116 106 0 0 0
SMALL
GASTEIGER

@<TRIPOS>ATOM
      1  N         21.0420  265.5830   45.7880 N.3   100  GLY100     -0.1210
      2  CA        20.5100  265.1700   47.0880 C.3   100  GLY100      0.1956
      3  C         20.7080  263.6770   47.2910 C.2   100  GLY100      0.2611
      4  O         20.9270  262.9290   46.3290 O.2   100  GLY100     -0.2717
      5  N         20.6160  263.2390   48.5430 N.am  101  ALA101     -0.1979
      6  CA        20.8250  261.8410   48.8960 C.3   101  ALA101      0.1597
      7  C         19.8320  261.3650   49.9350 C.2   101  ALA101      0.2287
      8  O         19.3920  262.1300   50.8110 O.2   101  ALA101     -0.2864
      9  CB        22.2330  261.6370   49.4060 C.3   101  ALA101      0.0319
     10  N         10.1730  259.4100   57.4920 N.3   118  LYS118     -0.1245
     11  CA        10.7600  258.5600   56.4380 C.3   118  LYS118      0.1561
     12  C         12.2720  258.5170   56.6190 C.2   118  LYS118      0.2260
     13  O         12.7870  258.9890   57.6400 O.2   118  LYS118     -0.2867
     14  CB        10.4560  259.1500   55.0540 C.3   118  LYS118      0.0271
     15  CG        10.8010  260.6310   54.9150 C.3   118  LYS118      0.0035
     16  CD        11.1720  260.9780   53.4830 C.3   118  LYS118      0.0206
     17  CE        11.8480  262.3410   53.3880 C.3   118  LYS118      0.1093
     18  NZ        12.3940  262.5650   52.0230 N.3   118  LYS118     -0.1314
     19  N         17.0510  262.4260   54.5110 N.3   121  THR121     -0.1203
     20  CA        17.4700  262.9840   53.2300 C.3   121  THR121      0.1994
     21  C         18.1590  264.3220   53.4370 C.2   121  THR121      0.2618
     22  O         17.8670  265.0460   54.3800 O.2   121  THR121     -0.2717
     23  CB        16.2830  263.1780   52.2630 C.3   121  THR121      0.1784
     24  OG1       15.2440  263.9200   52.9100 O.3   121  THR121     -0.2211
     25  CG2       15.7270  261.8400   51.8100 C.3   121  THR121      0.0376
     26  N         19.0770  264.6480   52.5410 N.am  122  GLY122     -0.1942
     27  CA        19.7970  265.9040   52.6010 C.3   122  GLY122      0.2014
     28  C         20.4930  266.2120   51.2850 C.2   122  GLY122      0.2638
     29  O         20.7410  265.3240   50.4650 O.2   122  GLY122     -0.2714
     30  N         20.8190  267.4830   51.1060 N.am  123  VAL123     -0.1977
     31  CA        21.5950  267.9630   49.9730 C.3   123  VAL123      0.1596
     32  C         23.0820  267.5910   50.0910 C.2   123  VAL123      0.2287
     33  O         23.6960  267.6920   51.1590 O.2   123  VAL123     -0.2864
     34  CB        21.4030  269.4970   49.8130 C.3   123  VAL123      0.0276
     35  CG1       22.3400  270.0910   48.7590 C.3   123  VAL123      0.0022
     36  CG2       19.9530  269.7920   49.4730 C.3   123  VAL123      0.0022
     37  N         24.8870  263.6990   56.7460 N.3   137  GLU137     -0.1245
     38  CA        23.4720  264.0100   57.0070 C.3   137  GLU137      0.1567
     39  C         22.8730  263.1670   58.1150 C.2   137  GLU137      0.2260
     40  O         22.1770  263.6960   58.9840 O.2   137  GLU137     -0.2867
     41  CB        22.6360  263.8460   55.7260 C.3   137  GLU137      0.0388
     42  CG        21.1950  264.3080   55.8380 C.3   137  GLU137      0.1160
     43  CD        21.0440  265.8140   56.0520 C.2   137  GLU137      0.3649
     44  OE1       22.0540  266.5770   55.9810 O.co2 137  GLU137     -0.2457
     45  OE2       19.8960  266.2430   56.2970 O.co2 137  GLU137     -0.2457
     46  N         21.3860  264.5570   61.5640 N.3   141  GLU141     -0.1245
     47  CA        19.9780  264.4010   61.8970 C.3   141  GLU141      0.1567
     48  C         19.7590  263.5080   63.1200 C.2   141  GLU141      0.2260
     49  O         19.0030  263.8720   64.0080 O.2   141  GLU141     -0.2867
     50  CB        19.1930  263.8530   60.7080 C.3   141  GLU141      0.0388
     51  CG        19.0360  264.7890   59.5210 C.3   141  GLU141      0.1160
     52  CD        18.0140  264.2780   58.5020 C.2   141  GLU141      0.3649
     53  OE1       17.0370  263.5630   58.8830 O.co2 141  GLU141     -0.2457
     54  OE2       18.1990  264.5710   57.3010 O.co2 141  GLU141     -0.2457
     55  N         17.2850  259.2660   40.6870 N.3   155  ARG155     -0.1245
     56  CA        16.3490  259.8880   39.7470 C.3   155  ARG155      0.1563
     57  C         16.5670  261.3900   39.6230 C.2   155  ARG155      0.2260
     58  O         17.0130  262.0460   40.5640 O.2   155  ARG155     -0.2867
     59  CB        14.8990  259.5760   40.1300 C.3   155  ARG155      0.0307
     60  CG        14.4180  260.2100   41.4280 C.3   155  ARG155      0.0489
     61  CD        13.5170  261.4050   41.1600 C.3   155  ARG155      0.2205
     62  NE        13.3110  262.2180   42.3610 N.pl3 155  ARG155     -0.0865
     63  CZ        14.1110  263.2130   42.7460 C.cat 155  ARG155      0.5346
     64  NH1       15.1850  263.5360   42.0430 N.pl3 155  ARG155      0.1354
     65  NH2       13.8450  263.8920   43.8520 N.pl3 155  ARG155      0.1354
     66  N         14.7180  272.2610   41.9750 N.3   161  ILE161     -0.1245
     67  CA        15.8420  272.5800   42.8580 C.3   161  ILE161      0.1561
     68  C         16.0230  274.0640   43.1590 C.2   161  ILE161      0.2260
     69  O         16.1480  274.4460   44.3260 O.2   161  ILE161     -0.2867
     70  CB        17.1490  271.9200   42.3740 C.3   161  ILE161      0.0252
     71  CG1       17.3000  270.5400   43.0150 C.3   161  ILE161      0.0019
     72  CG2       18.3560  272.7720   42.7120 C.3   161  ILE161      0.0019
     73  CD1       16.7100  270.4450   44.4140 C.3   161  ILE161      0.0001
     74  N         13.7210  275.7160   41.6710 N.3   163  LYS163     -0.1245
     75  CA        12.3530  275.8640   41.1520 C.3   163  LYS163      0.1561
     76  C         12.3920  276.0650   39.6250 C.2   163  LYS163      0.2260
     77  O         11.3610  276.1640   38.9600 O.2   163  LYS163     -0.2867
     78  CB        11.6070  276.9730   41.9050 C.3   163  LYS163      0.0271
     79  CG        11.3160  276.6550   43.3830 C.3   163  LYS163      0.0035
     80  CD        12.5580  276.6130   44.2900 C.3   163  LYS163      0.0206
     81  CE        13.1290  277.9940   44.6110 C.3   163  LYS163      0.1093
     82  NZ        14.5840  277.9840   44.9620 N.3   163  LYS163     -0.1314
     83  N         16.6710  268.3660   40.3250 N.3   167  ASP167     -0.1239
     84  CA        17.2150  267.6640   41.4830 C.3   167  ASP167      0.1674
     85  C         17.7670  266.3030   41.1030 C.2   167  ASP167      0.2266
     86  O         17.0850  265.5240   40.4560 O.2   167  ASP167     -0.2867
     87  CB        16.1680  267.4730   42.5840 C.3   167  ASP167      0.1410
     88  CG        16.7680  266.8600   43.8680 C.2   167  ASP167      0.3668
     89  OD1       17.7410  267.4080   44.4150 O.co2 167  ASP167     -0.2456
     90  OD2       16.2780  265.8200   44.3520 O.co2 167  ASP167     -0.2456
     91  N         18.5920  262.9870   42.9120 N.3   169  PHE169     -0.1241
     92  CA        18.4330  262.2830   44.1920 C.3   169  PHE169      0.1605
     93  C         19.1330  260.9450   44.0720 C.2   169  PHE169      0.2264
     94  O         19.0140  260.2780   43.0500 O.2   169  PHE169     -0.2867
     95  CB        16.9610  262.1060   44.5700 C.3   169  PHE169      0.0534
     96  CG        16.7260  261.3010   45.8270 C.ar  169  PHE169     -0.0203
     97  CD1       16.7640  261.9160   47.0680 C.ar  169  PHE169     -0.0042
     98  CD2       16.4220  259.9350   45.7630 C.ar  169  PHE169     -0.0042
     99  CE1       16.5250  261.1920   48.2220 C.ar  169  PHE169     -0.0003
    100  CE2       16.1900  259.2080   46.9160 C.ar  169  PHE169     -0.0003
    101  CZ        16.2420  259.8390   48.1460 C.ar  169  PHE169     -0.0000
    102  N         14.9770  271.0360   64.7340 N.3   186  SER186     -0.1202
    103  CA        15.4620  271.8660   63.5790 C.3   186  SER186      0.2020
    104  C         15.2500  271.1390   62.2670 C.2   186  SER186      0.2618
    105  O         15.3970  271.7260   61.1860 O.2   186  SER186     -0.2717
    106  CB        16.9660  272.1130   63.5490 C.3   186  SER186      0.2103
    107  OG        17.4220  272.9060   64.6160 O.3   186  SER186     -0.2182
    108  N         14.9130  269.8600   62.3590 N.am  187  GLU187     -0.1979
    109  CA        14.6370  269.0090   61.2100 C.3   187  GLU187      0.1602
    110  C         13.4920  268.1740   61.7640 C.2   187  GLU187      0.2287
    111  O         13.6850  267.3710   62.6770 O.2   187  GLU187     -0.2864
    112  CB        15.8460  268.1320   60.8290 C.3   187  GLU187      0.0415
    113  CG        17.0150  268.8550   60.1470 C.3   187  GLU187      0.1163
    114  CD        16.8440  268.9470   58.6460 C.2   187  GLU187      0.3649
    115  OE1       16.8270  270.0800   58.1100 O.co2 187  GLU187     -0.2457
    116  OE2       16.7260  267.8760   58.0110 O.co2 187  GLU187     -0.2457
@<TRIPOS>BOND
     1    77    76    2
     2    57    56    1
     3    57    58    2
     4    76    75    1
     5    56    59    1
     6    56    55    1
     7    59    60    1
     8    83    84    1
     9    86    85    2
    10    85    84    1
    11    75    74    1
    12    75    78    1
    13    61    60    1
    14    61    62    1
    15    84    87    1
    16    78    79    1
    17    66    67    1
    18    64    63    1
    19    62    63    2
    20    70    72    1
    21    70    67    1
    22    70    71    1
    23    87    88    1
    24    63    65    1
    25    67    68    1
    26    91    92    1
    27    71    73    1
    28    94    93    2
    29    68    69    2
    30    79    80    1
    31    88    90   ar
    32    88    89   ar
    33    93    92    1
    34    92    95    1
    35    80    81    1
    36    95    96    1
    37    81    82    1
    38    98    96   ar
    39    98   100   ar
    40     1     2    1
    41    96    97   ar
    42     4     3    2
    43   100   101   ar
    44    97    99   ar
    45     2     3    1
    46     3     5   am
    47   101    99   ar
    48     5     6    1
    49    35    34    1
    50     6     9    1
    51     6     7    1
    52    36    34    1
    53    34    31    1
    54     7     8    2
    55    31    32    1
    56    31    30    1
    57    32    33    2
    58    29    28    2
    59    30    28   am
    60    28    27    1
    61    25    23    1
    62    18    17    1
    63    23    24    1
    64    23    20    1
    65    26    27    1
    66    26    21   am
    67    20    21    1
    68    20    19    1
    69    17    16    1
    70    21    22    2
    71    16    15    1
    72    15    14    1
    73    14    11    1
    74    41    42    1
    75    41    38    1
    76    42    43    1
    77    44    43   ar
    78    43    45   ar
    79    11    12    1
    80    11    10    1
    81    12    13    2
    82    37    38    1
    83    38    39    1
    84    54    52   ar
    85   116   114   ar
    86   115   114   ar
    87    39    40    2
    88    52    53   ar
    89    52    51    1
    90   114   113    1
    91    51    50    1
    92   113   112    1
    93    50    47    1
    94   112   109    1
    95   105   104    2
    96   109   110    1
    97   109   108    1
    98    46    47    1
    99   110   111    2
   100    47    48    1
   101   104   108   am
   102   104   103    1
   103    48    49    2
   104   106   103    1
   105   106   107    1
   106   103   102    1
