@<TRIPOS>MOLECULE
tmp/4zbqA03.pdb
 90 82 0 0 0
SMALL
GASTEIGER

@<TRIPOS>ATOM
      1  N         56.4230   38.9850   72.3810 N.3    14  LYS14      -0.1231
      2  CA        56.3430   37.9050   71.4020 C.3    14  LYS14       0.1693
      3  C         55.1360   36.9610   71.6220 C.2    14  LYS14       0.2592
      4  O         54.3380   36.8030   70.7090 O.2    14  LYS14      -0.2718
      5  CB        57.6470   37.1260   71.3470 C.3    14  LYS14       0.0285
      6  CG        57.7290   36.1300   70.2060 C.3    14  LYS14       0.0035
      7  CD        59.0690   35.4030   70.2760 C.3    14  LYS14       0.0206
      8  CE        59.0410   34.1530   69.4050 C.3    14  LYS14       0.1093
      9  NZ        60.3680   33.4950   69.2120 N.3    14  LYS14      -0.1314
     10  N         54.9780   36.3920   72.8180 N.am   15  HIS15      -0.1976
     11  CA        53.8800   35.4860   73.0890 C.3    15  HIS15       0.1656
     12  C         52.5550   36.2250   73.0770 C.2    15  HIS15       0.2291
     13  O         51.5770   35.6940   72.5980 O.2    15  HIS15      -0.2864
     14  CB        54.1130   34.6920   74.3780 C.3    15  HIS15       0.0771
     15  CG        55.2110   33.6770   74.2570 C.ar   15  HIS15       0.0820
     16  ND1       55.7000   32.9810   75.3300 N.ar   15  HIS15      -0.2267
     17  CD2       55.9510   33.2800   73.1880 C.ar   15  HIS15       0.1154
     18  CE1       56.6880   32.1950   74.9440 C.ar   15  HIS15       0.1986
     19  NE2       56.8480   32.3440   73.6430 N.ar   15  HIS15      -0.2212
     20  N         51.6100   36.7820   69.3550 N.3    18  GLY18      -0.1225
     21  CA        51.2610   35.4870   68.8180 C.3    18  GLY18       0.1811
     22  C         49.8740   35.0680   69.2520 C.2    18  GLY18       0.2280
     23  O         49.0510   34.6390   68.4500 O.2    18  GLY18      -0.2866
     24  N         59.6530   36.3930   60.4170 N.3   128  ASP128     -0.1239
     25  CA        58.5830   36.8930   61.3120 C.3   128  ASP128      0.1674
     26  C         57.2450   36.8650   60.6160 C.2   128  ASP128      0.2266
     27  O         56.2790   36.3400   61.1380 O.2   128  ASP128     -0.2867
     28  CB        58.8440   38.3440   61.7840 C.3   128  ASP128      0.1410
     29  CG        59.9140   38.4480   62.8820 C.2   128  ASP128      0.3668
     30  OD1       60.6240   37.4580   63.1400 O.co2 128  ASP128     -0.2456
     31  OD2       60.0510   39.5400   63.4850 O.co2 128  ASP128     -0.2456
     32  N         56.2150   33.0970   59.9580 N.3   131  LEU131     -0.1231
     33  CA        55.6850   32.3910   61.1140 C.3   131  LEU131      0.1693
     34  C         54.3230   32.9220   61.5400 C.2   131  LEU131      0.2592
     35  O         53.4550   32.1390   61.9260 O.2   131  LEU131     -0.2718
     36  CB        56.6730   32.4300   62.2710 C.3   131  LEU131      0.0284
     37  CG        58.0100   31.7640   61.9540 C.3   131  LEU131      0.0019
     38  CD1       58.9700   31.9130   63.1530 C.3   131  LEU131      0.0001
     39  CD2       57.7860   30.2990   61.5120 C.3   131  LEU131      0.0001
     40  N         54.1280   34.2370   61.4480 N.am  132  GLY132     -0.1957
     41  CA        52.8290   34.8380   61.6690 C.3   132  GLY132      0.1869
     42  C         51.8120   34.1630   60.7580 C.2   132  GLY132      0.2309
     43  O         50.7160   33.8100   61.1800 O.2   132  GLY132     -0.2863
     44  N         50.6810   30.8030   61.9540 N.3   135  LEU135     -0.1245
     45  CA        49.7260   30.9280   63.0900 C.3   135  LEU135      0.1561
     46  C         48.3580   31.2460   62.5720 C.2   135  LEU135      0.2260
     47  O         47.4000   30.6270   62.9610 O.2   135  LEU135     -0.2867
     48  CB        50.1140   32.0210   64.1280 C.3   135  LEU135      0.0270
     49  CG        51.3630   31.7530   64.9390 C.3   135  LEU135      0.0019
     50  CD1       51.6810   32.9290   65.8720 C.3   135  LEU135      0.0001
     51  CD2       51.2780   30.4540   65.7280 C.3   135  LEU135      0.0001
     52  N         51.5120   28.0650   69.4770 N.3   151  LEU151     -0.1245
     53  CA        52.8080   28.7490   69.4900 C.3   151  LEU151      0.1561
     54  C         53.8940   27.7260   69.5080 C.2   151  LEU151      0.2260
     55  O         54.9050   27.9150   68.8260 O.2   151  LEU151     -0.2867
     56  CB        53.0040   29.6780   70.7080 C.3   151  LEU151      0.0270
     57  CG        51.9400   30.7320   71.0500 C.3   151  LEU151      0.0019
     58  CD1       52.4390   31.7650   72.0430 C.3   151  LEU151      0.0001
     59  CD2       51.4580   31.4520   69.8000 C.3   151  LEU151      0.0001
     60  N         54.4060   26.3980   66.0370 N.3   154  ALA154     -0.1231
     61  CA        55.1490   27.3820   65.2670 C.3   154  ALA154      0.1694
     62  C         56.6470   27.2640   65.4480 C.2   154  ALA154      0.2591
     63  O         57.3880   27.4100   64.4620 O.2   154  ALA154     -0.2718
     64  CB        54.6790   28.7920   65.5590 C.3   154  ALA154      0.0304
     65  N         57.1090   27.0390   66.6750 N.am  155  GLU155     -0.1979
     66  CA        58.5270   26.7240   66.9330 C.3   155  GLU155      0.1602
     67  C         58.9970   25.5040   66.1410 C.2   155  GLU155      0.2287
     68  O         60.0750   25.4800   65.5860 O.2   155  GLU155     -0.2864
     69  CB        58.7810   26.3800   68.3960 C.3   155  GLU155      0.0415
     70  CG        58.9050   27.4850   69.4370 C.3   155  GLU155      0.1163
     71  CD        59.3830   26.8830   70.8090 C.2   155  GLU155      0.3649
     72  OE1       60.6040   26.5400   70.9650 O.co2 155  GLU155     -0.2457
     73  OE2       58.5400   26.7090   71.7320 O.co2 155  GLU155     -0.2457
     74  N         59.0720   26.5410   62.4420 N.3   158  LYS158     -0.1245
     75  CA        60.3000   27.2910   62.2740 C.3   158  LYS158      0.1561
     76  C         61.5600   26.3900   62.3150 C.2   158  LYS158      0.2260
     77  O         62.4070   26.5340   61.4430 O.2   158  LYS158     -0.2867
     78  CB        60.4110   28.4200   63.2950 C.3   158  LYS158      0.0271
     79  CG        61.5520   29.3910   62.9890 C.3   158  LYS158      0.0035
     80  CD        62.0180   30.2080   64.1780 C.3   158  LYS158      0.0206
     81  CE        63.0690   31.2360   63.7400 C.3   158  LYS158      0.1093
     82  NZ        63.5600   32.0060   64.8980 N.3   158  LYS158     -0.1314
     83  N         57.2320   26.7500   76.6140 N.3   280  LEU280     -0.1245
     84  CA        56.2300   26.1390   75.7430 C.3   280  LEU280      0.1561
     85  C         56.5110   24.6590   75.5470 C.2   280  LEU280      0.2260
     86  O         55.5830   23.8580   75.5850 O.2   280  LEU280     -0.2867
     87  CB        56.1380   26.8630   74.4110 C.3   280  LEU280      0.0270
     88  CG        55.5050   28.2580   74.4960 C.3   280  LEU280      0.0019
     89  CD1       55.6200   28.8600   73.1160 C.3   280  LEU280      0.0001
     90  CD2       54.0350   28.2980   74.9240 C.3   280  LEU280      0.0001
@<TRIPOS>BOND
     1    32    33    1
     2    24    25    1
     3    26    27    2
     4    26    25    1
     5    42    43    2
     6    42    41    1
     7    33    34    1
     8    33    36    1
     9    25    28    1
    10    77    76    2
    11    40    34   am
    12    40    41    1
    13    39    37    1
    14    34    35    2
    15    28    29    1
    16    37    36    1
    17    37    38    1
    18    44    45    1
    19    75    76    1
    20    75    74    1
    21    75    78    1
    22    46    47    2
    23    46    45    1
    24    29    30   ar
    25    29    31   ar
    26    79    78    1
    27    79    80    1
    28    45    48    1
    29    81    80    1
    30    81    82    1
    31    48    49    1
    32    63    62    2
    33    49    51    1
    34    49    50    1
    35    61    62    1
    36    61    64    1
    37    61    60    1
    38    62    65   am
    39    68    67    2
    40    67    66    1
    41    65    66    1
    42    66    69    1
    43    69    70    1
    44    23    22    2
    45    21    22    1
    46    21    20    1
    47    55    54    2
    48     9     8    1
    49     8     7    1
    50    70    71    1
    51    52    53    1
    52    53    54    1
    53    53    56    1
    54    59    57    1
    55     6     7    1
    56     6     5    1
    57    56    57    1
    58     4     3    2
    59    71    72   ar
    60    71    73   ar
    61    57    58    1
    62     5     2    1
    63     2     3    1
    64     2     1    1
    65     3    10   am
    66    13    12    2
    67    10    11    1
    68    12    11    1
    69    11    14    1
    70    89    88    1
    71    17    19   ar
    72    17    15   ar
    73    19    18   ar
    74    15    14    1
    75    15    16   ar
    76    87    88    1
    77    87    84    1
    78    88    90    1
    79    18    16   ar
    80    85    86    2
    81    85    84    1
    82    84    83    1
