@<TRIPOS>MOLECULE
tmp/4zbqA00.pdb
 143 134 0 0 0
SMALL
GASTEIGER

@<TRIPOS>ATOM
      1  N         33.8990   -3.5510   75.2430 N.3   380  PRO380     -0.2116
      2  CA        34.8480   -2.8300   74.4140 C.3   380  PRO380      0.1372
      3  C         36.1420   -3.5940   74.2050 C.2   380  PRO380      0.2244
      4  O         36.7510   -3.4150   73.1400 O.2   380  PRO380     -0.2868
      5  CB        35.1170   -1.5140   75.1680 C.3   380  PRO380      0.0268
      6  CG        34.6910   -1.7800   76.5620 C.3   380  PRO380      0.0207
      7  CD        33.5590   -2.7910   76.4500 C.3   380  PRO380      0.0892
      8  N         35.5900   -5.7030   71.2300 N.3   383  LEU383     -0.1231
      9  CA        35.3740   -4.8820   70.0610 C.3   383  LEU383      0.1693
     10  C         36.7010   -4.4200   69.5020 C.2   383  LEU383      0.2591
     11  O         36.9000   -4.4230   68.3290 O.2   383  LEU383     -0.2718
     12  CB        34.4810   -3.6960   70.3700 C.3   383  LEU383      0.0284
     13  CG        33.0040   -3.9960   70.5290 C.3   383  LEU383      0.0019
     14  CD1       32.2130   -2.8150   71.0010 C.3   383  LEU383      0.0001
     15  CD2       32.4420   -4.5000   69.2360 C.3   383  LEU383      0.0001
     16  N         37.6120   -4.0440   70.3690 N.am  384  VAL384     -0.1980
     17  CA        38.9110   -3.5970   69.9600 C.3   384  VAL384      0.1595
     18  C         39.6920   -4.7330   69.3310 C.2   384  VAL384      0.2287
     19  O         40.3220   -4.5750   68.3280 O.2   384  VAL384     -0.2864
     20  CB        39.6490   -3.0280   71.1590 C.3   384  VAL384      0.0276
     21  CG1       41.1060   -2.8160   70.8780 C.3   384  VAL384      0.0022
     22  CG2       39.0350   -1.7110   71.5390 C.3   384  VAL384      0.0022
     23  N         38.2660   -5.3940   65.9150 N.3   387  ASN387     -0.1225
     24  CA        38.6260   -4.3510   64.9590 C.3   387  ASN387      0.1785
     25  C         40.1040   -4.3740   64.6280 C.2   387  ASN387      0.2597
     26  O         40.4640   -4.2370   63.4950 O.2   387  ASN387     -0.2718
     27  CB        38.1090   -2.9810   65.3400 C.3   387  ASN387      0.1169
     28  CG        36.6390   -2.8440   65.0820 C.2   387  ASN387      0.2627
     29  OD1       36.2240   -2.4730   64.0200 O.2   387  ASN387     -0.2716
     30  ND2       35.8560   -3.1970   66.0420 N.am  387  ASN387     -0.0877
     31  N         40.9540   -4.5810   65.6170 N.am  388  CYS388     -0.1970
     32  CA        42.3780   -4.6410   65.3530 C.3   388  CYS388      0.1712
     33  C         42.7530   -5.8860   64.5600 C.2   388  CYS388      0.2296
     34  O         43.6460   -5.8370   63.7610 O.2   388  CYS388     -0.2864
     35  CB        43.2170   -4.4300   66.5960 C.3   388  CYS388      0.0983
     36  SG        43.2700   -2.7180   67.1480 S.3   388  CYS388     -0.0798
     37  N         40.3680   -1.0870   55.7360 N.3   399  PHE399     -0.1241
     38  CA        39.8200   -0.8850   57.0580 C.3   399  PHE399      0.1605
     39  C         39.0160    0.4070   56.9590 C.2   399  PHE399      0.2264
     40  O         37.8950    0.4400   57.3210 O.2   399  PHE399     -0.2867
     41  CB        40.9360   -0.8020   58.0840 C.3   399  PHE399      0.0534
     42  CG        40.4600   -0.7140   59.4920 C.ar  399  PHE399     -0.0203
     43  CD1       39.6130   -1.6490   60.0030 C.ar  399  PHE399     -0.0042
     44  CD2       40.8550    0.3130   60.2920 C.ar  399  PHE399     -0.0042
     45  CE1       39.1670   -1.5640   61.2930 C.ar  399  PHE399     -0.0003
     46  CE2       40.4140    0.4090   61.5760 C.ar  399  PHE399     -0.0003
     47  CZ        39.5700   -0.5320   62.0770 C.ar  399  PHE399     -0.0000
     48  N         34.9120    0.9460   57.5050 N.3   403  LEU403     -0.1245
     49  CA        34.3540    1.9490   58.3830 C.3   403  LEU403      0.1561
     50  C         33.4490    2.9170   57.6470 C.2   403  LEU403      0.2260
     51  O         32.4170    3.2670   58.1440 O.2   403  LEU403     -0.2867
     52  CB        35.4340    2.6490   59.1500 C.3   403  LEU403      0.0270
     53  CG        36.1980    1.6610   59.9960 C.3   403  LEU403      0.0019
     54  CD1       37.4600    2.2770   60.5210 C.3   403  LEU403      0.0001
     55  CD2       35.3500    1.1420   61.1140 C.3   403  LEU403      0.0001
     56  N         30.3010    1.1870   57.2740 N.3   406  ARG406     -0.1231
     57  CA        29.6600    1.0780   58.5440 C.3   406  ARG406      0.1694
     58  C         28.9230    2.3400   58.9040 C.2   406  ARG406      0.2592
     59  O         27.7980    2.3080   59.2840 O.2   406  ARG406     -0.2718
     60  CB        30.7030    0.7570   59.5970 C.3   406  ARG406      0.0321
     61  CG        30.1310    0.1770   60.8490 C.3   406  ARG406      0.0489
     62  CD        31.1620    0.0310   61.9430 C.3   406  ARG406      0.2205
     63  NE        32.0780   -1.0630   61.7160 N.pl3 406  ARG406     -0.0865
     64  CZ        33.1560   -1.2760   62.4470 C.cat 406  ARG406      0.5346
     65  NH1       33.4430   -0.4670   63.4350 N.pl3 406  ARG406      0.1354
     66  NH2       33.9500   -2.2810   62.1730 N.pl3 406  ARG406      0.1354
     67  N         29.5950    3.4570   58.7720 N.am  407  TYR407     -0.1976
     68  CA        29.0290    4.7480   59.1360 C.3   407  TYR407      0.1639
     69  C         28.0150    5.2850   58.1310 C.2   407  TYR407      0.2290
     70  O         27.0670    5.9880   58.5280 O.2   407  TYR407     -0.2864
     71  CB        30.1310    5.7340   59.4870 C.3   407  TYR407      0.0560
     72  CG        30.6020    5.5090   60.9290 C.ar  407  TYR407     -0.0198
     73  CD1       29.9670    6.1910   62.0180 C.ar  407  TYR407     -0.0009
     74  CD2       31.5650    4.5550   61.2190 C.ar  407  TYR407     -0.0009
     75  CE1       30.3240    5.9100   63.3400 C.ar  407  TYR407      0.0417
     76  CE2       31.9280    4.2810   62.5270 C.ar  407  TYR407      0.0417
     77  CZ        31.2950    4.9570   63.5790 C.ar  407  TYR407      0.1957
     78  OH        31.7370    4.6900   64.8510 O.3   407  TYR407     -0.2866
     79  N         39.1460    7.1540   61.2140 N.3   426  LEU426     -0.1245
     80  CA        39.0470    5.9250   61.9800 C.3   426  LEU426      0.1561
     81  C         40.0800    4.9120   61.5480 C.2   426  LEU426      0.2260
     82  O         40.6250    4.2490   62.3670 O.2   426  LEU426     -0.2867
     83  CB        37.6420    5.3840   61.9860 C.3   426  LEU426      0.0270
     84  CG        36.7660    6.3010   62.8040 C.3   426  LEU426      0.0019
     85  CD1       35.3330    5.8680   62.8010 C.3   426  LEU426      0.0001
     86  CD2       37.2880    6.3730   64.2110 C.3   426  LEU426      0.0001
     87  N         43.3130    5.6640   63.0740 N.3   429  VAL429     -0.1231
     88  CA        43.3260    5.2960   64.4730 C.3   429  VAL429      0.1692
     89  C         43.8470    3.8780   64.5500 C.2   429  VAL429      0.2592
     90  O         44.6370    3.5600   65.3740 O.2   429  VAL429     -0.2718
     91  CB        41.9550    5.4160   65.1100 C.3   429  VAL429      0.0266
     92  CG1       41.9710    4.8420   66.4960 C.3   429  VAL429      0.0020
     93  CG2       41.5410    6.8640   65.1510 C.3   429  VAL429      0.0020
     94  N         43.3970    3.0400   63.6450 N.am  430  GLY430     -0.1957
     95  CA        43.8440    1.6780   63.6000 C.3   430  GLY430      0.1869
     96  C         45.3360    1.6090   63.4410 C.2   430  GLY430      0.2309
     97  O         45.9790    0.8850   64.1190 O.2   430  GLY430     -0.2863
     98  N         46.4190   -0.1710   66.8140 N.3   434  CYS434     -0.1235
     99  CA        46.4840   -1.6140   66.7240 C.3   434  CYS434      0.1677
    100  C         47.8290   -2.2730   66.8480 C.2   434  CYS434      0.2270
    101  O         47.9130   -3.4180   67.1810 O.2   434  CYS434     -0.2867
    102  CB        45.7200   -2.1060   65.5210 C.3   434  CYS434      0.0956
    103  SG        44.0010   -1.6470   65.6240 S.3   434  CYS434     -0.0801
    104  N         42.5510    3.1890   71.2440 N.3   445  SER445     -0.1202
    105  CA        41.4480    3.1120   70.3380 C.3   445  SER445      0.2020
    106  C         40.2230    3.8930   70.7380 C.2   445  SER445      0.2618
    107  O         39.7660    4.6970   69.9880 O.2   445  SER445     -0.2717
    108  CB        41.0760    1.6670   70.0990 C.3   445  SER445      0.2103
    109  OG        42.0890    1.0250   69.4070 O.3   445  SER445     -0.2182
    110  N         39.6940    3.6400   71.9160 N.am  446  GLU446     -0.1979
    111  CA        38.5060    4.3310   72.3470 C.3   446  GLU446      0.1602
    112  C         38.7270    5.8090   72.5540 C.2   446  GLU446      0.2287
    113  O         37.8880    6.5840   72.2180 O.2   446  GLU446     -0.2864
    114  CB        37.8450    3.6730   73.5510 C.3   446  GLU446      0.0415
    115  CG        36.4250    4.1580   73.7570 C.3   446  GLU446      0.1163
    116  CD        35.5550    3.2690   74.6160 C.2   446  GLU446      0.3649
    117  OE1       36.0610    2.5190   75.4180 O.co2 446  GLU446     -0.2457
    118  OE2       34.3450    3.3640   74.4970 O.co2 446  GLU446     -0.2457
    119  N         38.8700    7.2840   69.1360 N.3   449  LEU449     -0.1245
    120  CA        37.5490    7.1720   68.5970 C.3   449  LEU449      0.1561
    121  C         36.6860    8.3360   69.0580 C.2   449  LEU449      0.2260
    122  O         35.9850    8.9170   68.2930 O.2   449  LEU449     -0.2867
    123  CB        36.9100    5.8850   68.6790 C.3   449  LEU449      0.0270
    124  CG        35.4900    5.5610   68.2430 C.3   449  LEU449      0.0019
    125  CD1       35.1360    5.9630   66.8240 C.3   449  LEU449      0.0001
    126  CD2       35.2830    4.0650   68.4340 C.3   449  LEU449      0.0001
    127  N         30.2430    6.5960   72.3580 N.3   481  ARG481     -0.1245
    128  CA        30.7990    5.5460   71.5310 C.3   481  ARG481      0.1563
    129  C         29.8690    4.3320   71.4730 C.2   481  ARG481      0.2260
    130  O         29.5290    3.8640   70.4430 O.2   481  ARG481     -0.2867
    131  CB        32.1930    5.1890   71.9780 C.3   481  ARG481      0.0307
    132  CG        33.0160    4.5320   70.9120 C.3   481  ARG481      0.0489
    133  CD        32.6750    3.0740   70.8220 C.3   481  ARG481      0.2205
    134  NE        32.8430    2.4680   72.1100 N.pl3 481  ARG481     -0.0865
    135  CZ        32.2310    1.3750   72.5110 C.cat 481  ARG481      0.5346
    136  NH1       31.4060    0.7420   71.7190 N.pl3 481  ARG481      0.1354
    137  NH2       32.4500    0.9280   73.7140 N.pl3 481  ARG481      0.1354
    138  N         28.1910    2.6870   68.1980 N.3   485  SER485     -0.1217
    139  CA        28.4040    1.2870   67.9240 C.3   485  SER485      0.1889
    140  C         27.0820    0.5340   67.7970 C.2   485  SER485      0.2288
    141  O         26.9870   -0.3750   67.0410 O.2   485  SER485     -0.2866
    142  CB        29.2130    0.6550   69.0370 C.3   485  SER485      0.2089
    143  OG        30.4850    1.2000   69.1200 O.3   485  SER485     -0.2183
@<TRIPOS>BOND
     1    37    38    1
     2    39    38    1
     3    39    40    2
     4    38    41    1
     5    56    57    1
     6    48    49    1
     7    50    51    2
     8    50    49    1
     9    41    42    1
    10    69    70    2
    11    69    68    1
    12    49    52    1
    13    57    58    1
    14    57    60    1
    15    67    58   am
    16    67    68    1
    17    58    59    2
    18    68    71    1
    19    52    53    1
    20    71    72    1
    21    42    43   ar
    22    42    44   ar
    23    60    61    1
    24    53    54    1
    25    53    55    1
    26    43    45   ar
    27    44    46   ar
    28    61    62    1
    29    72    74   ar
    30    72    73   ar
    31    79    80    1
    32    74    76   ar
    33    45    47   ar
    34    81    80    1
    35    81    82    2
    36    46    47   ar
    37    63    62    1
    38    63    64    2
    39    80    83    1
    40    83    84    1
    41    73    75   ar
    42    66    64    1
    43    64    65    1
    44    76    77   ar
    45    85    84    1
    46    84    86    1
    47    87    88    1
    48    75    77   ar
    49    96    95    1
    50    96    97    2
    51    26    25    2
    52    77    78    1
    53    95    94    1
    54    94    89   am
    55    34    33    2
    56    29    28    2
    57    88    89    1
    58    88    91    1
    59    89    90    2
    60    33    32    1
    61    25    24    1
    62    25    31   am
    63    24    27    1
    64    24    23    1
    65    28    27    1
    66    28    30   am
    67    91    93    1
    68    91    92    1
    69    32    31    1
    70    32    35    1
    71   102   103    1
    72   102    99    1
    73   103    36    1
    74    35    36    1
    75    99    98    1
    76    99   100    1
    77   125   124    1
    78   100   101    2
    79   141   140    2
    80   140   139    1
    81   139   138    1
    82   139   142    1
    83   124   126    1
    84   124   123    1
    85   122   121    2
    86    19    18    2
    87    11    10    2
    88   120   123    1
    89   120   121    1
    90   120   119    1
    91   142   143    1
    92    15    13    1
    93    18    17    1
    94   109   108    1
    95    10     9    1
    96    10    16   am
    97    17    16    1
    98    17    20    1
    99   107   106    2
   100     9    12    1
   101     9     8    1
   102   108   105    1
   103   105   106    1
   104   105   104    1
   105    12    13    1
   106   130   129    2
   107    13    14    1
   108   106   110   am
   109   133   132    1
   110   133   134    1
   111    21    20    1
   112   132   131    1
   113    20    22    1
   114   129   128    1
   115   128   131    1
   116   128   127    1
   117   136   135    1
   118   110   111    1
   119   134   135    2
   120   113   112    2
   121   111   112    1
   122   111   114    1
   123   135   137    1
   124     4     3    2
   125   114   115    1
   126   115   116    1
   127     3     2    1
   128     2     5    1
   129     2     1    1
   130   118   116   ar
   131   116   117   ar
   132     5     6    1
   133     1     7    1
   134     7     6    1
