@<TRIPOS>MOLECULE
tmp/4zbrA04.pdb
 106 99 0 0 0
SMALL
GASTEIGER

@<TRIPOS>ATOM
      1  N         45.7000   15.8750   65.1760 N.3   187  LEU187     -0.1245
      2  CA        45.4430   15.1770   66.4410 C.3   187  LEU187      0.1561
      3  C         45.2590   16.1490   67.6580 C.2   187  LEU187      0.2260
      4  O         44.2780   16.0970   68.3880 O.2   187  LEU187     -0.2867
      5  CB        46.5770   14.2120   66.6740 C.3   187  LEU187      0.0270
      6  CG        46.4540   13.2980   67.8690 C.3   187  LEU187      0.0019
      7  CD1       45.1710   12.5020   67.8110 C.3   187  LEU187      0.0001
      8  CD2       47.6460   12.3600   67.7920 C.3   187  LEU187      0.0001
      9  N         42.0030   16.7180   70.0060 N.3   191  LYS191     -0.1245
     10  CA        41.9760   16.6170   71.4950 C.3   191  LYS191      0.1561
     11  C         41.4090   17.8370   72.0950 C.2   191  LYS191      0.2260
     12  O         40.5200   17.7300   72.9040 O.2   191  LYS191     -0.2867
     13  CB        43.3290   16.3900   72.1230 C.3   191  LYS191      0.0271
     14  CG        44.0000   15.1520   71.6060 C.3   191  LYS191      0.0035
     15  CD        44.9430   14.4890   72.5630 C.3   191  LYS191      0.0206
     16  CE        46.0890   15.3510   73.0250 C.3   191  LYS191      0.1093
     17  NZ        46.7290   14.6710   74.2120 N.3   191  LYS191     -0.1314
     18  N         37.6840   18.5730   74.4080 N.3   195  LYS195     -0.1245
     19  CA        37.5620   19.3650   75.6300 C.3   195  LYS195      0.1561
     20  C         36.5740   20.4910   75.5260 C.2   195  LYS195      0.2260
     21  O         35.7230   20.6580   76.4570 O.2   195  LYS195     -0.2867
     22  CB        38.9090   19.9920   76.0970 C.3   195  LYS195      0.0271
     23  CG        39.9790   18.9540   76.4130 C.3   195  LYS195      0.0035
     24  CD        41.2580   19.6260   76.8560 C.3   195  LYS195      0.0206
     25  CE        42.4040   18.6910   77.2680 C.3   195  LYS195      0.1093
     26  NZ        42.3280   17.3080   76.7570 N.3   195  LYS195     -0.1314
     27  N         36.3780   13.5870   83.4540 N.3   210  TRP210     -0.1241
     28  CA        37.3430   13.1030   82.4470 C.3   210  TRP210      0.1605
     29  C         38.7970   13.2990   82.8910 C.2   210  TRP210      0.2264
     30  O         39.6710   12.4650   82.7530 O.2   210  TRP210     -0.2867
     31  CB        37.1340   13.8340   81.1220 C.3   210  TRP210      0.0550
     32  CG        37.7530   13.2130   79.9770 C.ar  210  TRP210      0.0003
     33  CD1       37.1540   12.3270   79.1460 C.ar  210  TRP210      0.0946
     34  CD2       39.1010   13.3200   79.5610 C.ar  210  TRP210      0.0152
     35  NE1       38.0530   11.8640   78.2200 N.ar  210  TRP210     -0.2442
     36  CE2       39.2530   12.4980   78.4310 C.ar  210  TRP210      0.0810
     37  CE3       40.1790   14.0860   79.9820 C.ar  210  TRP210      0.0012
     38  CZ2       40.4930   12.3710   77.7300 C.ar  210  TRP210      0.0191
     39  CZ3       41.3960   13.9950   79.3120 C.ar  210  TRP210      0.0001
     40  CH2       41.5590   13.1340   78.1840 C.ar  210  TRP210      0.0015
     41  N         41.7860   10.6870   83.6580 N.3   214  ARG214     -0.1245
     42  CA        43.0290   10.7210   82.8900 C.3   214  ARG214      0.1563
     43  C         44.2390   10.9850   83.7530 C.2   214  ARG214      0.2260
     44  O         45.2100   10.2350   83.6930 O.2   214  ARG214     -0.2867
     45  CB        42.9930   11.7300   81.7300 C.3   214  ARG214      0.0307
     46  CG        44.1470   11.5430   80.7680 C.3   214  ARG214      0.0489
     47  CD        44.0150   10.1850   80.0210 C.3   214  ARG214      0.2205
     48  NE        45.2210    9.8520   79.2800 N.pl3 214  ARG214     -0.0865
     49  CZ        46.1500    8.9340   79.5850 C.cat 214  ARG214      0.5346
     50  NH1       46.0250    8.1660   80.6580 N.pl3 214  ARG214      0.1354
     51  NH2       47.1880    8.7990   78.7860 N.pl3 214  ARG214      0.1354
     52  N         47.7530    8.8190   84.7120 N.3   218  LYS218     -0.1245
     53  CA        49.0940    9.3400   84.4310 C.3   218  LYS218      0.1561
     54  C         50.0320    9.4760   85.6310 C.2   218  LYS218      0.2260
     55  O         51.2660    9.2350   85.5270 O.2   218  LYS218     -0.2867
     56  CB        49.0200   10.6870   83.7110 C.3   218  LYS218      0.0271
     57  CG        48.8350   10.5550   82.1990 C.3   218  LYS218      0.0035
     58  CD        49.0500   11.8840   81.5040 C.3   218  LYS218      0.0206
     59  CE        48.6290   11.8110   80.0380 C.3   218  LYS218      0.1093
     60  NZ        49.4060   12.7360   79.1360 N.3   218  LYS218     -0.1314
     61  N         51.7840   17.9810   79.2860 N.3   287  ALA287     -0.1231
     62  CA        50.5540   17.5910   78.5950 C.3   287  ALA287      0.1694
     63  C         50.5520   16.2420   77.8930 C.2   287  ALA287      0.2591
     64  O         49.5270   15.6400   77.7600 O.2   287  ALA287     -0.2718
     65  CB        50.1560   18.6690   77.6020 C.3   287  ALA287      0.0304
     66  N         51.6880   15.7780   77.4190 N.am  288  GLU288     -0.1979
     67  CA        51.7930   14.5630   76.5970 C.3   288  GLU288      0.1602
     68  C         52.5220   13.4920   77.3510 C.2   288  GLU288      0.2287
     69  O         52.8490   12.4710   76.8040 O.2   288  GLU288     -0.2864
     70  CB        52.5600   14.8870   75.2700 C.3   288  GLU288      0.0415
     71  CG        51.7850   15.7130   74.2080 C.3   288  GLU288      0.1163
     72  CD        50.2930   15.3210   74.0710 C.2   288  GLU288      0.3649
     73  OE1       49.9360   14.1130   73.8690 O.co2 288  GLU288     -0.2457
     74  OE2       49.4230   16.2260   74.1970 O.co2 288  GLU288     -0.2457
     75  N         44.2770    3.2650   73.9420 N.3   444  CYS444     -0.1235
     76  CA        44.5860    3.9640   72.7150 C.3   444  CYS444      0.1677
     77  C         43.3090    4.0350   71.8510 C.2   444  CYS444      0.2270
     78  O         42.8970    5.1340   71.3500 O.2   444  CYS444     -0.2867
     79  CB        45.6950    3.2900   71.9340 C.3   444  CYS444      0.0956
     80  SG        46.2480    4.2760   70.4970 S.3   444  CYS444     -0.0801
     81  N         40.2520    6.1780   73.4670 N.3   447  ASN447     -0.1225
     82  CA        40.5630    7.5890   73.6200 C.3   447  ASN447      0.1785
     83  C         40.6160    8.2400   72.2660 C.2   447  ASN447      0.2597
     84  O         40.1930    9.3730   72.1150 O.2   447  ASN447     -0.2718
     85  CB        41.8490    7.8280   74.4100 C.3   447  ASN447      0.1169
     86  CG        41.7990    7.2550   75.8620 C.2   447  ASN447      0.2627
     87  OD1       40.7340    6.9110   76.4530 O.2   447  ASN447     -0.2716
     88  ND2       42.9880    7.1810   76.4400 N.am  447  ASN447     -0.0877
     89  N         41.1000    7.5260   71.2600 N.am  448  HIS448     -0.1975
     90  CA        41.1640    8.1220   69.9200 C.3   448  HIS448      0.1656
     91  C         39.7960    8.1340   69.2470 C.2   448  HIS448      0.2291
     92  O         39.4590    9.1100   68.6230 O.2   448  HIS448     -0.2864
     93  CB        42.2420    7.4800   69.0710 C.3   448  HIS448      0.0771
     94  CG        43.5900    7.9280   69.4680 C.ar  448  HIS448      0.0820
     95  ND1       44.2470    7.4010   70.5560 N.ar  448  HIS448     -0.2267
     96  CD2       44.3440    8.9570   69.0280 C.ar  448  HIS448      0.1154
     97  CE1       45.3930    8.0340   70.7130 C.ar  448  HIS448      0.1986
     98  NE2       45.4610    9.0000   69.8140 N.ar  448  HIS448     -0.2212
     99  N         37.9100   11.1150   69.9980 N.3   451  LEU451     -0.1245
    100  CA        38.3260   12.2820   69.1950 C.3   451  LEU451      0.1561
    101  C         37.5960   12.2590   67.8030 C.2   451  LEU451      0.2260
    102  O         37.1100   13.2800   67.3250 O.2   451  LEU451     -0.2867
    103  CB        39.8590   12.2310   69.0060 C.3   451  LEU451      0.0270
    104  CG        40.7790   12.2110   70.2410 C.3   451  LEU451      0.0019
    105  CD1       42.2260   12.5170   69.8010 C.3   451  LEU451      0.0001
    106  CD2       40.3600   13.2090   71.3050 C.3   451  LEU451      0.0001
@<TRIPOS>BOND
     1     1     2    1
     2     2     5    1
     3     2     3    1
     4     5     6    1
     5   102   101    2
     6     3     4    2
     7     8     6    1
     8   101   100    1
     9     7     6    1
    10    92    91    2
    11   103   100    1
    12   103   104    1
    13    96    94   ar
    14    96    98   ar
    15    93    94    1
    16    93    90    1
    17   100    99    1
    18    91    90    1
    19    94    95   ar
    20   105   104    1
    21    98    97   ar
    22    90    89    1
    23     9    10    1
    24   104   106    1
    25    80    79    1
    26    95    97   ar
    27    89    83   am
    28    78    77    2
    29    10    11    1
    30    10    13    1
    31    14    13    1
    32    14    15    1
    33    77    76    1
    34    79    76    1
    35    11    12    2
    36    84    83    2
    37    83    82    1
    38    15    16    1
    39    76    75    1
    40    16    17    1
    41    81    82    1
    42    82    85    1
    43    73    72   ar
    44    72    74   ar
    45    72    71    1
    46    71    70    1
    47    18    19    1
    48    85    86    1
    49    70    67    1
    50    20    19    1
    51    20    21    2
    52    19    22    1
    53    86    88   am
    54    86    87    2
    55    22    23    1
    56    23    24    1
    57    67    68    1
    58    67    66    1
    59    26    25    1
    60    69    68    2
    61    24    25    1
    62    66    63   am
    63    65    62    1
    64    38    40   ar
    65    38    36   ar
    66    64    63    2
    67    63    62    1
    68    40    39   ar
    69    35    36   ar
    70    35    33   ar
    71    36    34   ar
    72    62    61    1
    73    51    49    1
    74    60    59    1
    75    33    32   ar
    76    48    49    2
    77    48    47    1
    78    39    37   ar
    79    34    32   ar
    80    34    37   ar
    81    49    50    1
    82    32    31    1
    83    47    46    1
    84    59    58    1
    85    46    45    1
    86    31    28    1
    87    58    57    1
    88    45    42    1
    89    57    56    1
    90    28    29    1
    91    28    27    1
    92    30    29    2
    93    42    41    1
    94    42    43    1
    95    44    43    2
    96    56    53    1
    97    53    52    1
    98    53    54    1
    99    55    54    2
