@<TRIPOS>MOLECULE
tmp/4zbrA01.pdb
 144 133 0 0 0
SMALL
GASTEIGER

@<TRIPOS>ATOM
      1  N         35.6170   -5.7250   71.3200 N.3   383  LEU383     -0.1231
      2  CA        35.4960   -4.8970   70.1660 C.3   383  LEU383      0.1693
      3  C         36.8440   -4.4700   69.5590 C.2   383  LEU383      0.2591
      4  O         37.0730   -4.5580   68.3220 O.2   383  LEU383     -0.2718
      5  CB        34.6290   -3.7210   70.5280 C.3   383  LEU383      0.0284
      6  CG        34.1820   -2.9240   69.3290 C.3   383  LEU383      0.0019
      7  CD1       33.0540   -3.6820   68.6190 C.3   383  LEU383      0.0001
      8  CD2       33.7750   -1.5200   69.7610 C.3   383  LEU383      0.0001
      9  N         37.7470   -4.0690   70.4220 N.am  384  VAL384     -0.1980
     10  CA        39.0510   -3.6680   70.0330 C.3   384  VAL384      0.1595
     11  C         39.8640   -4.8380   69.4260 C.2   384  VAL384      0.2287
     12  O         40.6380   -4.6610   68.4600 O.2   384  VAL384     -0.2864
     13  CB        39.7350   -2.9800   71.2520 C.3   384  VAL384      0.0276
     14  CG1       41.2100   -2.7640   71.0050 C.3   384  VAL384      0.0022
     15  CG2       39.1000   -1.6080   71.5270 C.3   384  VAL384      0.0022
     16  N         38.2970   -5.5720   65.9130 N.3   387  ASN387     -0.1225
     17  CA        38.6290   -4.5850   64.8710 C.3   387  ASN387      0.1785
     18  C         40.1090   -4.6140   64.6170 C.2   387  ASN387      0.2597
     19  O         40.5960   -4.3510   63.4950 O.2   387  ASN387     -0.2718
     20  CB        38.1500   -3.1530   65.2050 C.3   387  ASN387      0.1169
     21  CG        36.6330   -2.9610   65.0290 C.2   387  ASN387      0.2627
     22  OD1       36.1380   -2.7060   63.9670 O.2   387  ASN387     -0.2716
     23  ND2       35.9280   -3.0940   66.0610 N.am  387  ASN387     -0.0877
     24  N         40.8930   -4.8950   65.6320 N.am  388  CYS388     -0.1970
     25  CA        42.3410   -4.9780   65.3680 C.3   388  CYS388      0.1712
     26  C         42.6270   -6.2280   64.5290 C.2   388  CYS388      0.2296
     27  O         43.5250   -6.1690   63.6320 O.2   388  CYS388     -0.2864
     28  CB        43.1850   -4.9200   66.6340 C.3   388  CYS388      0.0983
     29  SG        43.5020   -3.2880   67.3470 S.3   388  CYS388     -0.0798
     30  N         40.2300   -1.3650   55.8800 N.3   399  PHE399     -0.1241
     31  CA        39.6440   -1.1120   57.1710 C.3   399  PHE399      0.1605
     32  C         38.8720    0.2220   57.1540 C.2   399  PHE399      0.2264
     33  O         37.7560    0.2900   57.6770 O.2   399  PHE399     -0.2867
     34  CB        40.7640   -1.1270   58.1940 C.3   399  PHE399      0.0534
     35  CG        40.3230   -0.9950   59.6220 C.ar  399  PHE399     -0.0203
     36  CD1       39.4810   -1.8890   60.1830 C.ar  399  PHE399     -0.0042
     37  CD2       40.8400   -0.0200   60.4040 C.ar  399  PHE399     -0.0042
     38  CE1       39.0890   -1.7920   61.5000 C.ar  399  PHE399     -0.0003
     39  CE2       40.4330    0.1240   61.7130 C.ar  399  PHE399     -0.0003
     40  CZ        39.5670   -0.7800   62.2790 C.ar  399  PHE399     -0.0000
     41  N         34.8940    0.7430   57.5460 N.3   403  LEU403     -0.1245
     42  CA        34.2710    1.6850   58.4680 C.3   403  LEU403      0.1561
     43  C         33.3680    2.7250   57.8010 C.2   403  LEU403      0.2260
     44  O         32.3120    3.1530   58.3510 O.2   403  LEU403     -0.2867
     45  CB        35.3790    2.3110   59.3510 C.3   403  LEU403      0.0270
     46  CG        35.9530    1.2540   60.3580 C.3   403  LEU403      0.0019
     47  CD1       37.2930    1.7420   60.7940 C.3   403  LEU403      0.0001
     48  CD2       35.0880    1.1150   61.5610 C.3   403  LEU403      0.0001
     49  N         30.2560    0.9390   57.3060 N.3   406  ARG406     -0.1231
     50  CA        29.6130    0.8880   58.5880 C.3   406  ARG406      0.1694
     51  C         28.8690    2.1960   58.9230 C.2   406  ARG406      0.2592
     52  O         27.7120    2.1830   59.2380 O.2   406  ARG406     -0.2718
     53  CB        30.6510    0.5040   59.6480 C.3   406  ARG406      0.0321
     54  CG        30.0210   -0.2590   60.7670 C.3   406  ARG406      0.0489
     55  CD        30.9950   -0.7300   61.8630 C.3   406  ARG406      0.2205
     56  NE        32.0700   -1.6700   61.4780 N.pl3 406  ARG406     -0.0865
     57  CZ        33.1970   -1.8670   62.1880 C.cat 406  ARG406      0.5346
     58  NH1       33.4520   -1.2030   63.3550 N.pl3 406  ARG406      0.1354
     59  NH2       34.1380   -2.6780   61.7080 N.pl3 406  ARG406      0.1354
     60  N         29.5510    3.3310   58.7810 N.am  407  TYR407     -0.1976
     61  CA        29.0310    4.6590   59.1700 C.3   407  TYR407      0.1639
     62  C         27.9480    5.1510   58.2080 C.2   407  TYR407      0.2290
     63  O         26.9260    5.6980   58.6640 O.2   407  TYR407     -0.2864
     64  CB        30.2190    5.6570   59.4980 C.3   407  TYR407      0.0560
     65  CG        30.5390    5.4170   60.9480 C.ar  407  TYR407     -0.0198
     66  CD1       31.2670    4.2740   61.3450 C.ar  407  TYR407     -0.0009
     67  CD2       29.8970    6.1970   61.9460 C.ar  407  TYR407     -0.0009
     68  CE1       31.3940    3.9570   62.6980 C.ar  407  TYR407      0.0417
     69  CE2       29.9990    5.8990   63.2950 C.ar  407  TYR407      0.0417
     70  CZ        30.7230    4.7850   63.6730 C.ar  407  TYR407      0.1957
     71  OH        30.7900    4.4710   64.9990 O.3   407  TYR407     -0.2866
     72  N         24.8140    3.4970   59.1670 N.3   410  LYS410     -0.1245
     73  CA        24.2810    4.0500   60.4120 C.3   410  LYS410      0.1561
     74  C         23.6660    5.4160   60.1480 C.2   410  LYS410      0.2260
     75  O         22.6220    5.8070   60.7520 O.2   410  LYS410     -0.2867
     76  CB        25.3890    4.1820   61.4440 C.3   410  LYS410      0.0271
     77  CG        25.9310    2.8900   62.0540 C.3   410  LYS410      0.0035
     78  CD        27.2530    3.1510   62.8080 C.3   410  LYS410      0.0206
     79  CE        27.9680    1.9210   63.3080 C.3   410  LYS410      0.1093
     80  NZ        27.2250    1.2590   64.4080 N.3   410  LYS410     -0.1314
     81  N         38.6030    7.1250   61.6210 N.3   426  LEU426     -0.1245
     82  CA        38.3570    5.9060   62.3720 C.3   426  LEU426      0.1561
     83  C         39.3350    4.8100   62.0100 C.2   426  LEU426      0.2260
     84  O         39.8980    4.1690   62.8830 O.2   426  LEU426     -0.2867
     85  CB        36.9360    5.3960   62.1270 C.3   426  LEU426      0.0270
     86  CG        35.7710    6.1280   62.7750 C.3   426  LEU426      0.0019
     87  CD1       34.4300    5.5890   62.2870 C.3   426  LEU426      0.0001
     88  CD2       35.8430    5.9780   64.2950 C.3   426  LEU426      0.0001
     89  N         42.7110    5.0250   63.5530 N.3   429  VAL429     -0.1231
     90  CA        42.8100    4.4950   64.9000 C.3   429  VAL429      0.1692
     91  C         43.4390    3.0830   64.8770 C.2   429  VAL429      0.2592
     92  O         44.2730    2.7730   65.7120 O.2   429  VAL429     -0.2718
     93  CB        41.4820    4.5050   65.6480 C.3   429  VAL429      0.0266
     94  CG1       41.6620    4.0240   67.1000 C.3   429  VAL429      0.0020
     95  CG2       40.8630    5.8940   65.6200 C.3   429  VAL429      0.0020
     96  N         43.0600    2.2140   63.9460 N.am  430  GLY430     -0.1957
     97  CA        43.7150    0.8840   63.8790 C.3   430  GLY430      0.1869
     98  C         45.2420    0.9920   63.7120 C.2   430  GLY430      0.2309
     99  O         45.9870    0.4430   64.4700 O.2   430  GLY430     -0.2863
    100  N         46.6380   -0.5460   67.0620 N.3   434  CYS434     -0.1235
    101  CA        46.6650   -2.0450   67.0170 C.3   434  CYS434      0.1677
    102  C         48.0640   -2.6220   67.1370 C.2   434  CYS434      0.2270
    103  O         48.2360   -3.7200   67.5760 O.2   434  CYS434     -0.2867
    104  CB        45.9700   -2.5840   65.7600 C.3   434  CYS434      0.0956
    105  SG        44.1810   -2.2000   65.7380 S.3   434  CYS434     -0.0801
    106  N         42.6490    2.8880   71.7070 N.3   445  SER445     -0.1217
    107  CA        41.5500    2.8350   70.7660 C.3   445  SER445      0.1889
    108  C         40.4090    3.7390   71.1650 C.2   445  SER445      0.2288
    109  O         40.0350    4.6120   70.3970 O.2   445  SER445     -0.2866
    110  CB        41.0850    1.4000   70.5230 C.3   445  SER445      0.2089
    111  OG        42.1550    0.6750   70.0180 O.3   445  SER445     -0.2183
    112  N         39.0140    7.0960   69.4160 N.3   449  LEU449     -0.1245
    113  CA        37.6690    7.0950   68.9130 C.3   449  LEU449      0.1561
    114  C         36.8750    8.2360   69.4540 C.2   449  LEU449      0.2260
    115  O         36.0460    8.8030   68.7410 O.2   449  LEU449     -0.2867
    116  CB        36.9620    5.8060   69.3160 C.3   449  LEU449      0.0270
    117  CG        37.4420    4.5470   68.5190 C.3   449  LEU449      0.0019
    118  CD1       36.7040    3.2680   68.9130 C.3   449  LEU449      0.0001
    119  CD2       37.3380    4.6270   67.0130 C.3   449  LEU449      0.0001
    120  N         34.7640   10.5620   66.9240 N.3   453  LEU453     -0.1245
    121  CA        33.2980   10.6870   67.0680 C.3   453  LEU453      0.1561
    122  C         32.9040   12.1080   67.4230 C.2   453  LEU453      0.2260
    123  O         31.8340   12.5820   66.9870 O.2   453  LEU453     -0.2867
    124  CB        32.7600    9.6890   68.1030 C.3   453  LEU453      0.0270
    125  CG        33.0120    8.2380   67.7360 C.3   453  LEU453      0.0019
    126  CD1       32.5910    7.3710   68.9060 C.3   453  LEU453      0.0001
    127  CD2       32.1880    7.8600   66.4740 C.3   453  LEU453      0.0001
    128  N         30.5290    6.3020   72.4710 N.3   481  ARG481     -0.1245
    129  CA        31.0660    5.2220   71.7090 C.3   481  ARG481      0.1563
    130  C         30.1770    4.0110   71.7560 C.2   481  ARG481      0.2260
    131  O         29.8600    3.4550   70.6930 O.2   481  ARG481     -0.2867
    132  CB        32.5170    4.8980   72.1270 C.3   481  ARG481      0.0307
    133  CG        33.3630    4.1250   71.1190 C.3   481  ARG481      0.0489
    134  CD        33.0610    2.6410   71.0620 C.3   481  ARG481      0.2205
    135  NE        33.0720    2.0510   72.3810 N.pl3 481  ARG481     -0.0865
    136  CZ        32.3780    0.9880   72.7530 C.cat 481  ARG481      0.5346
    137  NH1       31.5640    0.3810   71.9030 N.pl3 481  ARG481      0.1354
    138  NH2       32.5080    0.5310   73.9780 N.pl3 481  ARG481      0.1354
    139  N         28.4260    2.5680   68.3730 N.3   485  SER485     -0.1217
    140  CA        28.6560    1.1310   68.0640 C.3   485  SER485      0.1889
    141  C         27.3350    0.3940   67.8940 C.2   485  SER485      0.2288
    142  O         27.2510   -0.4340   67.0240 O.2   485  SER485     -0.2866
    143  CB        29.3720    0.4250   69.2030 C.3   485  SER485      0.2089
    144  OG        30.7410    0.7380   69.1690 O.3   485  SER485     -0.2183
@<TRIPOS>BOND
     1    30    31    1
     2    32    31    1
     3    32    33    2
     4    31    34    1
     5    49    50    1
     6    41    42    1
     7    43    44    2
     8    43    42    1
     9    34    35    1
    10    62    63    2
    11    62    61    1
    12    42    45    1
    13    50    51    1
    14    50    53    1
    15    60    51   am
    16    60    61    1
    17    51    52    2
    18    72    73    1
    19    61    64    1
    20    45    46    1
    21    64    65    1
    22    35    36   ar
    23    35    37   ar
    24    53    54    1
    25    74    73    1
    26    74    75    2
    27    36    38   ar
    28    46    47    1
    29    46    48    1
    30    37    39   ar
    31    73    76    1
    32    54    55    1
    33    65    66   ar
    34    65    67   ar
    35    66    68   ar
    36    76    77    1
    37    56    55    1
    38    56    57    2
    39    38    40   ar
    40    81    82    1
    41    59    57    1
    42    39    40   ar
    43    67    69   ar
    44    83    82    1
    45    83    84    2
    46    77    78    1
    47    85    82    1
    48    85    86    1
    49    57    58    1
    50    87    86    1
    51    68    70   ar
    52    86    88    1
    53    78    79    1
    54    69    70   ar
    55    79    80    1
    56    19    18    2
    57    89    90    1
    58    27    26    2
    59    70    71    1
    60    98    97    1
    61    98    99    2
    62    97    96    1
    63    96    91   am
    64    22    21    2
    65    26    25    1
    66    18    17    1
    67    18    24   am
    68    17    20    1
    69    17    16    1
    70    91    90    1
    71    91    92    2
    72    90    93    1
    73    21    20    1
    74    21    23   am
    75    25    24    1
    76    25    28    1
    77    95    93    1
    78    93    94    1
    79   105   104    1
    80   105    29    1
    81   104   101    1
    82   127   125    1
    83    28    29    1
    84   120   121    1
    85   123   122    2
    86   119   117    1
    87   101   100    1
    88   101   102    1
    89   142   141    2
    90   121   122    1
    91   121   124    1
    92   102   103    2
    93   125   124    1
    94   125   126    1
    95   141   140    1
    96   140   139    1
    97   140   143    1
    98     4     3    2
    99    12    11    2
   100   117   118    1
   101   117   116    1
   102     7     6    1
   103   115   114    2
   104   113   116    1
   105   113   112    1
   106   113   114    1
   107   144   143    1
   108     6     8    1
   109     6     5    1
   110    11    10    1
   111     3     2    1
   112     3     9   am
   113   111   110    1
   114    10     9    1
   115    10    13    1
   116     2     5    1
   117     2     1    1
   118   109   108    2
   119   110   107    1
   120   131   130    2
   121   107   108    1
   122   107   106    1
   123    14    13    1
   124   134   133    1
   125   134   135    1
   126   133   132    1
   127    13    15    1
   128   129   130    1
   129   129   132    1
   130   129   128    1
   131   137   136    1
   132   135   136    2
   133   136   138    1
