@<TRIPOS>MOLECULE
tmp/4zbrA00.pdb
 105 96 0 0 0
SMALL
GASTEIGER

@<TRIPOS>ATOM
      1  N         40.6950   -7.5250   62.1800 N.3   390  LEU390     -0.1245
      2  CA        40.3190   -7.0650   60.8570 C.3   390  LEU390      0.1561
      3  C         41.3710   -6.1700   60.2920 C.2   390  LEU390      0.2260
      4  O         41.8750   -6.4400   59.1820 O.2   390  LEU390     -0.2867
      5  CB        39.0240   -6.3330   60.9220 C.3   390  LEU390      0.0270
      6  CG        38.5050   -5.7110   59.6240 C.3   390  LEU390      0.0019
      7  CD1       38.2350   -6.7590   58.5200 C.3   390  LEU390      0.0001
      8  CD2       37.2640   -4.8910   59.9490 C.3   390  LEU390      0.0001
      9  N         43.4670   -6.9590   56.7990 N.3   394  VAL394     -0.1245
     10  CA        43.1430   -6.2830   55.5350 C.3   394  VAL394      0.1561
     11  C         43.9210   -5.0050   55.2900 C.2   394  VAL394      0.2260
     12  O         43.9850   -4.5220   54.1310 O.2   394  VAL394     -0.2867
     13  CB        41.6350   -6.0200   55.3390 C.3   394  VAL394      0.0252
     14  CG1       40.8010   -7.3200   55.4050 C.3   394  VAL394      0.0019
     15  CG2       41.1040   -4.9280   56.2840 C.3   394  VAL394      0.0019
     16  N         41.4910   -0.8930   53.4700 N.3   398  ASP398     -0.1239
     17  CA        40.2720   -1.6670   53.4800 C.3   398  ASP398      0.1674
     18  C         39.4970   -1.6340   54.8090 C.2   398  ASP398      0.2266
     19  O         38.2710   -1.8250   54.8180 O.2   398  ASP398     -0.2867
     20  CB        40.5430   -3.0810   53.0460 C.3   398  ASP398      0.1410
     21  CG        40.4460   -3.2280   51.5380 C.2   398  ASP398      0.3668
     22  OD1       39.4890   -2.6900   50.9200 O.co2 398  ASP398     -0.2456
     23  OD2       41.3320   -3.8860   51.0100 O.co2 398  ASP398     -0.2456
     24  N         37.6880    1.3780   54.4680 N.3   401  ASN401     -0.1225
     25  CA        36.5180    1.0260   53.6650 C.3   401  ASN401      0.1785
     26  C         35.4160    0.3780   54.4580 C.2   401  ASN401      0.2597
     27  O         34.2700    0.7660   54.3380 O.2   401  ASN401     -0.2718
     28  CB        36.9380    0.2020   52.4320 C.3   401  ASN401      0.1169
     29  CG        37.8080    1.0240   51.4750 C.2   401  ASN401      0.2627
     30  OD1       37.8770    2.2510   51.5670 O.2   401  ASN401     -0.2716
     31  ND2       38.5440    0.3570   50.6590 N.am  401  ASN401     -0.0877
     32  N         35.7720   -0.5930   55.2810 N.am  402  ALA402     -0.1979
     33  CA        34.8270   -1.2520   56.1250 C.3   402  ALA402      0.1597
     34  C         34.1530   -0.2380   57.0520 C.2   402  ALA402      0.2287
     35  O         32.9630   -0.3040   57.2740 O.2   402  ALA402     -0.2864
     36  CB        35.5430   -2.2750   56.9590 C.3   402  ALA402      0.0319
     37  N         31.6890    1.9760   55.0970 N.3   405  VAL405     -0.1231
     38  CA        30.4360    1.2670   54.8970 C.3   405  VAL405      0.1692
     39  C         29.5970    1.2360   56.2000 C.2   405  VAL405      0.2591
     40  O         28.4170    1.5470   56.2210 O.2   405  VAL405     -0.2718
     41  CB        30.6810   -0.1280   54.3790 C.3   405  VAL405      0.0266
     42  CG1       29.3960   -0.9370   54.4030 C.3   405  VAL405      0.0020
     43  CG2       31.3070   -0.0760   52.9750 C.3   405  VAL405      0.0020
     44  N         30.2560    0.9390   57.3060 N.am  406  ARG406     -0.1980
     45  CA        29.6130    0.8880   58.5880 C.3   406  ARG406      0.1597
     46  C         28.8690    2.1960   58.9230 C.2   406  ARG406      0.2287
     47  O         27.7120    2.1830   59.2380 O.2   406  ARG406     -0.2864
     48  CB        30.6510    0.5040   59.6480 C.3   406  ARG406      0.0334
     49  CG        30.0210   -0.2590   60.7670 C.3   406  ARG406      0.0492
     50  CD        30.9950   -0.7300   61.8630 C.3   406  ARG406      0.2205
     51  NE        32.0700   -1.6700   61.4780 N.pl3 406  ARG406     -0.0865
     52  CZ        33.1970   -1.8670   62.1880 C.cat 406  ARG406      0.5346
     53  NH1       33.4520   -1.2030   63.3550 N.pl3 406  ARG406      0.1354
     54  NH2       34.1380   -2.6780   61.7080 N.pl3 406  ARG406      0.1354
     55  N         32.3580    4.5390   47.0140 N.3   525  LEU525     -0.1245
     56  CA        31.8900    3.4990   47.9770 C.3   525  LEU525      0.1561
     57  C         30.7210    3.9670   48.8580 C.2   525  LEU525      0.2260
     58  O         29.7280    3.2880   48.9820 O.2   525  LEU525     -0.2867
     59  CB        33.0430    3.0540   48.8530 C.3   525  LEU525      0.0270
     60  CG        32.7990    1.9880   49.9060 C.3   525  LEU525      0.0019
     61  CD1       32.3810    0.6190   49.3600 C.3   525  LEU525      0.0001
     62  CD2       34.0500    1.8540   50.7900 C.3   525  LEU525      0.0001
     63  N         28.7350   -6.1900   53.1770 N.3   537  LYS537     -0.1231
     64  CA        30.1230   -5.7610   53.1530 C.3   537  LYS537      0.1693
     65  C         31.0130   -6.5130   52.1880 C.2   537  LYS537      0.2591
     66  O         31.8800   -5.9320   51.5060 O.2   537  LYS537     -0.2718
     67  CB        30.6930   -5.7490   54.5720 C.3   537  LYS537      0.0285
     68  CG        30.6830   -6.9840   55.3980 C.3   537  LYS537      0.0035
     69  CD        30.4850   -6.5190   56.8320 C.3   537  LYS537      0.0206
     70  CE        31.1270   -7.4310   57.8200 C.3   537  LYS537      0.1093
     71  NZ        30.4380   -8.7380   57.8380 N.3   537  LYS537     -0.1314
     72  N         30.7320   -7.7870   52.0810 N.am  538  GLU538     -0.1979
     73  CA        31.3670   -8.6590   51.1670 C.3   538  GLU538      0.1602
     74  C         31.0090   -8.2690   49.6930 C.2   538  GLU538      0.2287
     75  O         31.8800   -8.2060   48.7950 O.2   538  GLU538     -0.2864
     76  CB        30.9070  -10.0780   51.5390 C.3   538  GLU538      0.0415
     77  CG        31.2850  -10.5720   52.9730 C.3   538  GLU538      0.1163
     78  CD        30.2050  -10.5390   54.0650 C.2   538  GLU538      0.3649
     79  OE1       29.1260   -9.9500   53.8100 O.co2 538  GLU538     -0.2457
     80  OE2       30.4900  -11.0880   55.2010 O.co2 538  GLU538     -0.2457
     81  N         30.1470   -5.1820   48.7370 N.3   540  LEU540     -0.1231
     82  CA        30.7240   -3.8610   48.4430 C.3   540  LEU540      0.1693
     83  C         32.1950   -3.9680   48.2050 C.2   540  LEU540      0.2591
     84  O         32.7610   -3.3080   47.3060 O.2   540  LEU540     -0.2718
     85  CB        30.4660   -2.8870   49.5760 C.3   540  LEU540      0.0284
     86  CG        28.9650   -2.6020   49.6420 C.3   540  LEU540      0.0019
     87  CD1       28.5240   -2.2020   51.0030 C.3   540  LEU540      0.0001
     88  CD2       28.5990   -1.5340   48.6890 C.3   540  LEU540      0.0001
     89  N         32.8130   -4.8790   48.9250 N.am  541  LYS541     -0.1980
     90  CA        34.2040   -5.0570   48.7670 C.3   541  LYS541      0.1596
     91  C         34.5570   -5.5770   47.3810 C.2   541  LYS541      0.2287
     92  O         35.5330   -5.1110   46.7480 O.2   541  LYS541     -0.2864
     93  CB        34.7230   -5.9340   49.8740 C.3   541  LYS541      0.0298
     94  CG        36.1790   -6.2280   49.7130 C.3   541  LYS541      0.0038
     95  CD        36.7660   -6.9320   50.9390 C.3   541  LYS541      0.0206
     96  CE        37.9670   -7.7390   50.5050 C.3   541  LYS541      0.1093
     97  NZ        38.7490   -8.0160   51.7090 N.3   541  LYS541     -0.1314
     98  N         33.8490   -2.6950   44.8020 N.3   544  LEU544     -0.1245
     99  CA        34.9530   -1.7060   44.8190 C.3   544  LEU544      0.1561
    100  C         36.2930   -2.2100   44.2570 C.2   544  LEU544      0.2260
    101  O         37.0000   -1.4420   43.6240 O.2   544  LEU544     -0.2867
    102  CB        35.1750   -1.1310   46.2270 C.3   544  LEU544      0.0270
    103  CG        36.0230    0.1520   46.3020 C.3   544  LEU544      0.0019
    104  CD1       35.2650    1.3440   45.8410 C.3   544  LEU544      0.0001
    105  CD2       36.4080    0.3480   47.7490 C.3   544  LEU544      0.0001
@<TRIPOS>BOND
     1   101   100    2
     2   100    99    1
     3    98    99    1
     4    99   102    1
     5   104   103    1
     6   102   103    1
     7   103   105    1
     8    92    91    2
     9    55    56    1
    10    84    83    2
    11    91    90    1
    12    56    59    1
    13    56    57    1
    14    83    82    1
    15    83    89   am
    16    82    81    1
    17    82    85    1
    18    88    86    1
    19    90    89    1
    20    90    93    1
    21    75    74    2
    22    59    60    1
    23    57    58    2
    24    61    60    1
    25    85    86    1
    26    86    87    1
    27    74    73    1
    28    94    93    1
    29    94    95    1
    30    60    62    1
    31    96    95    1
    32    96    97    1
    33    31    29   am
    34    22    21   ar
    35    23    21   ar
    36    73    76    1
    37    73    72    1
    38    29    30    2
    39    29    28    1
    40    66    65    2
    41    21    20    1
    42    76    77    1
    43    72    65   am
    44    65    64    1
    45    28    25    1
    46    77    78    1
    47    43    41    1
    48    20    17    1
    49    64    63    1
    50    64    67    1
    51    16    17    1
    52    17    18    1
    53    25    26    1
    54    25    24    1
    55    79    78   ar
    56    78    80   ar
    57    12    11    2
    58    27    26    2
    59    41    42    1
    60    41    38    1
    61    26    32   am
    62    67    68    1
    63    18    19    2
    64    38    37    1
    65    38    39    1
    66    32    33    1
    67    11    10    1
    68    13    14    1
    69    13    10    1
    70    13    15    1
    71    68    69    1
    72    10     9    1
    73    33    36    1
    74    33    34    1
    75    39    40    2
    76    39    44   am
    77    69    70    1
    78    34    35    2
    79    44    45    1
    80    70    71    1
    81     7     6    1
    82    45    46    1
    83    45    48    1
    84    46    47    2
    85     4     3    2
    86     6     8    1
    87     6     5    1
    88    48    49    1
    89     3     2    1
    90    49    50    1
    91     2     5    1
    92     2     1    1
    93    51    50    1
    94    51    52    2
    95    54    52    1
    96    52    53    1
