@<TRIPOS>MOLECULE
tmp/4zbrA05.pdb
 89 81 0 0 0
SMALL
GASTEIGER

@<TRIPOS>ATOM
      1  N         50.0820   15.8830   60.8160 N.3   183  GLU183     -0.1245
      2  CA        49.4120   14.8420   61.5870 C.3   183  GLU183      0.1567
      3  C         49.2740   15.3840   63.0470 C.2   183  GLU183      0.2260
      4  O         48.1890   15.3620   63.6140 O.2   183  GLU183     -0.2867
      5  CB        50.1600   13.4990   61.5630 C.3   183  GLU183      0.0388
      6  CG        50.2810   12.8070   60.2070 C.3   183  GLU183      0.1160
      7  CD        50.9670   11.4050   60.2830 C.2   183  GLU183      0.3649
      8  OE1       50.5240   10.5420   61.0960 O.co2 183  GLU183     -0.2457
      9  OE2       51.9320   11.1390   59.5070 O.co2 183  GLU183     -0.2457
     10  N         46.5650   17.9570   63.5470 N.3   186  LEU186     -0.1231
     11  CA        45.2020   17.4380   63.4360 C.3   186  LEU186      0.1693
     12  C         44.8160   16.7210   64.6960 C.2   186  LEU186      0.2591
     13  O         43.7660   16.9450   65.2440 O.2   186  LEU186     -0.2718
     14  CB        45.1020   16.4770   62.2550 C.3   186  LEU186      0.0284
     15  CG        45.1850   17.1630   60.8720 C.3   186  LEU186      0.0019
     16  CD1       45.0320   16.1280   59.7630 C.3   186  LEU186      0.0001
     17  CD2       44.1490   18.2930   60.6890 C.3   186  LEU186      0.0001
     18  N         45.7000   15.8750   65.1760 N.am  187  LEU187     -0.1980
     19  CA        45.4430   15.1770   66.4410 C.3   187  LEU187      0.1596
     20  C         45.2590   16.1490   67.6580 C.2   187  LEU187      0.2287
     21  O         44.2780   16.0970   68.3880 O.2   187  LEU187     -0.2864
     22  CB        46.5770   14.2120   66.6740 C.3   187  LEU187      0.0297
     23  CG        46.4540   13.2980   67.8690 C.3   187  LEU187      0.0022
     24  CD1       45.1710   12.5020   67.8110 C.3   187  LEU187      0.0001
     25  CD2       47.6460   12.3600   67.7920 C.3   187  LEU187      0.0001
     26  N         42.0650   17.9260   67.4000 N.3   190  ALA190     -0.1245
     27  CA        40.9400   17.0380   67.7910 C.3   190  ALA190      0.1562
     28  C         40.8650   16.8240   69.2900 C.2   190  ALA190      0.2260
     29  O         39.7660   16.7930   69.7760 O.2   190  ALA190     -0.2867
     30  CB        40.9400   15.6880   67.0470 C.3   190  ALA190      0.0290
     31  N         35.8640   11.3290   55.3580 N.3   421  GLU421     -0.1245
     32  CA        36.7480   11.8860   56.3990 C.3   421  GLU421      0.1567
     33  C         36.6540   11.0540   57.6790 C.2   421  GLU421      0.2260
     34  O         37.6650   10.6550   58.2430 O.2   421  GLU421     -0.2867
     35  CB        36.3860   13.3700   56.7490 C.3   421  GLU421      0.0388
     36  CG        37.4460   14.0510   57.6640 C.3   421  GLU421      0.1160
     37  CD        36.9510   15.3060   58.3960 C.2   421  GLU421      0.3649
     38  OE1       36.5530   16.3100   57.7790 O.co2 421  GLU421     -0.2457
     39  OE2       36.9290   15.2770   59.6400 O.co2 421  GLU421     -0.2457
     40  N         39.4010    8.5920   59.3420 N.3   425  THR425     -0.1218
     41  CA        39.9730    8.8800   60.6390 C.3   425  THR425      0.1862
     42  C         39.8060    7.6950   61.5880 C.2   425  THR425      0.2287
     43  O         40.7460    7.3320   62.2910 O.2   425  THR425     -0.2866
     44  CB        39.2930   10.1020   61.2430 C.3   425  THR425      0.1770
     45  OG1       39.4480   11.1850   60.3290 O.3   425  THR425     -0.2211
     46  CG2       39.8530   10.4570   62.6710 C.3   425  THR425      0.0375
     47  N         42.4480    5.0300   60.7540 N.3   428  LYS428     -0.1245
     48  CA        43.7080    5.3800   61.3620 C.3   428  LYS428      0.1561
     49  C         43.8300    5.0820   62.8210 C.2   428  LYS428      0.2260
     50  O         44.9370    4.8810   63.2990 O.2   428  LYS428     -0.2867
     51  CB        43.9730    6.8900   61.2280 C.3   428  LYS428      0.0271
     52  CG        44.9120    7.2130   60.1060 C.3   428  LYS428      0.0035
     53  CD        44.6890    8.5550   59.4850 C.3   428  LYS428      0.0206
     54  CE        45.2760    8.4380   58.0840 C.3   428  LYS428      0.1093
     55  NZ        45.2380    9.7460   57.3570 N.3   428  LYS428     -0.1314
     56  N         41.1000    7.5260   71.2600 N.3   448  HIS448     -0.1241
     57  CA        41.1640    8.1220   69.9200 C.3   448  HIS448      0.1621
     58  C         39.7960    8.1340   69.2470 C.2   448  HIS448      0.2264
     59  O         39.4590    9.1100   68.6230 O.2   448  HIS448     -0.2867
     60  CB        42.2420    7.4800   69.0710 C.3   448  HIS448      0.0745
     61  CG        43.5900    7.9280   69.4680 C.ar  448  HIS448      0.0817
     62  ND1       44.2470    7.4010   70.5560 N.ar  448  HIS448     -0.2268
     63  CD2       44.3440    8.9570   69.0280 C.ar  448  HIS448      0.1154
     64  CE1       45.3930    8.0340   70.7130 C.ar  448  HIS448      0.1986
     65  NE2       45.4610    9.0000   69.8140 N.ar  448  HIS448     -0.2212
     66  N         37.9100   11.1150   69.9980 N.3   451  LEU451     -0.1231
     67  CA        38.3260   12.2820   69.1950 C.3   451  LEU451      0.1693
     68  C         37.5960   12.2590   67.8030 C.2   451  LEU451      0.2591
     69  O         37.1100   13.2800   67.3250 O.2   451  LEU451     -0.2718
     70  CB        39.8590   12.2310   69.0060 C.3   451  LEU451      0.0284
     71  CG        40.7790   12.2110   70.2410 C.3   451  LEU451      0.0019
     72  CD1       42.2260   12.5170   69.8010 C.3   451  LEU451      0.0001
     73  CD2       40.3600   13.2090   71.3050 C.3   451  LEU451      0.0001
     74  N         37.5350   11.0970   67.1700 N.am  452  ALA452     -0.1980
     75  CA        36.8980   10.9810   65.8600 C.3   452  ALA452      0.1597
     76  C         35.4030   11.1790   65.9340 C.2   452  ALA452      0.2287
     77  O         34.8290   11.8770   65.1090 O.2   452  ALA452     -0.2864
     78  CB        37.1820    9.6450   65.2850 C.3   452  ALA452      0.0319
     79  N         34.4150   14.7380   66.3600 N.3   455  ARG455     -0.1245
     80  CA        34.5270   15.4350   65.1220 C.3   455  ARG455      0.1563
     81  C         33.2300   15.2610   64.3620 C.2   455  ARG455      0.2260
     82  O         32.6750   16.2730   63.8730 O.2   455  ARG455     -0.2867
     83  CB        35.7500   14.9750   64.3440 C.3   455  ARG455      0.0307
     84  CG        35.9600   15.4680   62.9210 C.3   455  ARG455      0.0489
     85  CD        36.0080   16.9520   62.7980 C.3   455  ARG455      0.2205
     86  NE        36.3400   17.3710   61.4350 N.pl3 455  ARG455     -0.0865
     87  CZ        36.3880   18.6380   61.0140 C.cat 455  ARG455      0.5346
     88  NH1       36.0700   19.6520   61.8090 N.pl3 455  ARG455      0.1354
     89  NH2       36.6710   18.9120   59.7680 N.pl3 455  ARG455      0.1354
@<TRIPOS>BOND
     1    31    32    1
     2    32    35    1
     3    32    33    1
     4    35    36    1
     5    55    54    1
     6    36    37    1
     7    33    34    2
     8    38    37   ar
     9    54    53    1
    10    37    39   ar
    11    40    41    1
    12    53    52    1
    13     9     7   ar
    14    16    15    1
    15    89    87    1
    16    52    51    1
    17     6     7    1
    18     6     5    1
    19     7     8   ar
    20    45    44    1
    21    41    44    1
    22    41    42    1
    23    17    15    1
    24    47    48    1
    25     1     2    1
    26    15    14    1
    27    87    86    2
    28    87    88    1
    29    51    48    1
    30    44    46    1
    31    48    49    1
    32    86    85    1
    33     5     2    1
    34     2     3    1
    35    42    43    2
    36    14    11    1
    37    85    84    1
    38    49    50    2
    39    84    83    1
    40     3     4    2
    41    11    10    1
    42    11    12    1
    43    82    81    2
    44    83    80    1
    45    81    80    1
    46    12    18   am
    47    12    13    2
    48    77    76    2
    49    80    79    1
    50    18    19    1
    51    78    75    1
    52    75    76    1
    53    75    74    1
    54    19    22    1
    55    19    20    1
    56    22    23    1
    57    30    27    1
    58    74    68   am
    59    69    68    2
    60    26    27    1
    61    20    21    2
    62    27    28    1
    63    25    23    1
    64    68    67    1
    65    24    23    1
    66    59    58    2
    67    70    67    1
    68    70    71    1
    69    63    61   ar
    70    63    65   ar
    71    60    61    1
    72    60    57    1
    73    67    66    1
    74    58    57    1
    75    28    29    2
    76    61    62   ar
    77    72    71    1
    78    65    64   ar
    79    57    56    1
    80    71    73    1
    81    62    64   ar
