@<TRIPOS>MOLECULE
tmp/4zbrA06.pdb
 83 75 0 0 0
SMALL
GASTEIGER

@<TRIPOS>ATOM
      1  N         31.5540   19.7910   85.1010 N.3   205  ARG205     -0.1245
      2  CA        31.6200   18.5700   85.9330 C.3   205  ARG205      0.1563
      3  C         32.0510   17.3070   85.1150 C.2   205  ARG205      0.2260
      4  O         32.8020   16.4350   85.6140 O.2   205  ARG205     -0.2867
      5  CB        30.2710   18.3710   86.6180 C.3   205  ARG205      0.0307
      6  CG        30.2160   17.2160   87.6230 C.3   205  ARG205      0.0489
      7  CD        28.9200   17.2080   88.4700 C.3   205  ARG205      0.2205
      8  NE        28.7100   15.8910   89.1150 N.pl3 205  ARG205     -0.0865
      9  CZ        28.3410   14.7680   88.4790 C.cat 205  ARG205      0.5346
     10  NH1       28.2000   13.6350   89.1520 N.pl3 205  ARG205      0.1354
     11  NH2       28.1070   14.7610   87.1750 N.pl3 205  ARG205      0.1354
     12  N         35.8600   17.9250   84.3820 N.3   208  LYS208     -0.1231
     13  CA        36.5830   17.4970   85.5690 C.3   208  LYS208      0.1693
     14  C         36.6830   15.9570   85.8020 C.2   208  LYS208      0.2591
     15  O         37.7570   15.4200   86.0900 O.2   208  LYS208     -0.2718
     16  CB        35.9940   18.1740   86.7940 C.3   208  LYS208      0.0285
     17  CG        36.3520   19.6460   86.8740 C.3   208  LYS208      0.0035
     18  CD        35.7970   20.3400   88.1200 C.3   208  LYS208      0.0206
     19  CE        36.2800   21.7930   88.1410 C.3   208  LYS208      0.1093
     20  NZ        35.4740   22.7250   89.0180 N.3   208  LYS208     -0.1314
     21  N         35.5560   15.2670   85.6560 N.am  209  ALA209     -0.1980
     22  CA        35.4980   13.8260   85.7240 C.3   209  ALA209      0.1597
     23  C         36.4040   13.1570   84.7280 C.2   209  ALA209      0.2287
     24  O         37.1930   12.2890   85.1280 O.2   209  ALA209     -0.2864
     25  CB        34.0740   13.3510   85.5570 C.3   209  ALA209      0.0319
     26  N         40.0100   13.9690   85.9750 N.3   212  VAL212     -0.1245
     27  CA        40.4110   13.1420   87.1170 C.3   212  VAL212      0.1561
     28  C         40.8100   11.7570   86.6730 C.2   212  VAL212      0.2260
     29  O         41.8840   11.2440   87.0320 O.2   212  VAL212     -0.2867
     30  CB        39.3370   13.0210   88.1990 C.3   212  VAL212      0.0252
     31  CG1       39.7360   11.9150   89.1950 C.3   212  VAL212      0.0019
     32  CG2       39.1280   14.3440   88.9300 C.3   212  VAL212      0.0019
     33  N         45.2570   12.2910   95.9960 N.3   224  PHE224     -0.1241
     34  CA        43.9950   12.8050   95.5250 C.3   224  PHE224      0.1605
     35  C         43.9050   14.2860   95.6340 C.2   224  PHE224      0.2264
     36  O         43.3170   14.9380   94.7670 O.2   224  PHE224     -0.2867
     37  CB        42.8460   12.2130   96.3120 C.3   224  PHE224      0.0534
     38  CG        41.4830   12.6680   95.8540 C.ar  224  PHE224     -0.0203
     39  CD1       40.9740   12.2480   94.6460 C.ar  224  PHE224     -0.0042
     40  CD2       40.7050   13.5190   96.6510 C.ar  224  PHE224     -0.0042
     41  CE1       39.7380   12.6660   94.1990 C.ar  224  PHE224     -0.0003
     42  CE2       39.4520   13.9220   96.2300 C.ar  224  PHE224     -0.0003
     43  CZ        38.9610   13.4790   94.9930 C.ar  224  PHE224     -0.0000
     44  N         43.3670   16.6900   92.4150 N.3   228  SER228     -0.1217
     45  CA        42.2530   17.6360   92.3870 C.3   228  SER228      0.1889
     46  C         42.7340   19.0140   92.1690 C.2   228  SER228      0.2288
     47  O         42.1150   19.8130   91.5130 O.2   228  SER228     -0.2866
     48  CB        41.5100   17.6790   93.7310 C.3   228  SER228      0.2089
     49  OG        41.0270   16.4170   94.0510 O.3   228  SER228     -0.2183
     50  N         43.6870   19.1380   88.4610 N.3   231  VAL231     -0.1245
     51  CA        42.4670   19.1080   87.6700 C.3   231  VAL231      0.1561
     52  C         41.7010   20.4430   87.7870 C.2   231  VAL231      0.2260
     53  O         41.2870   20.9990   86.7720 O.2   231  VAL231     -0.2867
     54  CB        41.5810   17.8990   88.0440 C.3   231  VAL231      0.0252
     55  CG1       40.2010   18.0480   87.5010 C.3   231  VAL231      0.0019
     56  CG2       42.1760   16.5930   87.5370 C.3   231  VAL231      0.0019
     57  N         29.6510   14.0840   95.0960 N.3   320  ASP320     -0.1225
     58  CA        30.7580   14.4260   94.1760 C.3   320  ASP320      0.1805
     59  C         32.1990   14.1160   94.6830 C.2   320  ASP320      0.2597
     60  O         33.0980   13.7700   93.8780 O.2   320  ASP320     -0.2718
     61  CB        30.5900   15.8630   93.5900 C.3   320  ASP320      0.1424
     62  CG        29.6760   15.8750   92.3100 C.2   320  ASP320      0.3668
     63  OD1       28.9640   14.8460   92.0610 O.co2 320  ASP320     -0.2456
     64  OD2       29.6720   16.8770   91.5280 O.co2 320  ASP320     -0.2456
     65  N         32.3880   14.1540   96.0010 N.am  321  VAL321     -0.1980
     66  CA        33.6900   13.8850   96.6330 C.3   321  VAL321      0.1595
     67  C         33.9530   12.4150   96.8000 C.2   321  VAL321      0.2287
     68  O         35.0450   11.9480   96.5210 O.2   321  VAL321     -0.2864
     69  CB        33.7480   14.4760   98.0510 C.3   321  VAL321      0.0276
     70  CG1       35.0790   14.1440   98.7390 C.3   321  VAL321      0.0022
     71  CG2       33.4930   15.9880   98.0020 C.3   321  VAL321      0.0022
     72  N         34.3190   11.0900   93.3920 N.3   324  GLY324     -0.1225
     73  CA        35.5410   11.5470   92.7530 C.3   324  GLY324      0.1811
     74  C         36.6920   10.7800   93.2950 C.2   324  GLY324      0.2280
     75  O         37.6340   10.4500   92.6000 O.2   324  GLY324     -0.2866
     76  N         36.7490    7.4110   91.7240 N.3   327  LEU327     -0.1245
     77  CA        37.2380    7.5180   90.3880 C.3   327  LEU327      0.1561
     78  C         38.7210    7.6680   90.3210 C.2   327  LEU327      0.2260
     79  O         39.3830    7.0770   89.4660 O.2   327  LEU327     -0.2867
     80  CB        36.5230    8.6370   89.6520 C.3   327  LEU327      0.0270
     81  CG        36.8750    8.9160   88.1920 C.3   327  LEU327      0.0019
     82  CD1       36.5980    7.7120   87.3120 C.3   327  LEU327      0.0001
     83  CD2       36.1370   10.1800   87.7240 C.3   327  LEU327      0.0001
@<TRIPOS>BOND
     1    12    13    1
     2    23    24    2
     3    23    22    1
     4     1     2    1
     5     3     4    2
     6     3     2    1
     7    25    22    1
     8    13    14    1
     9    13    16    1
    10    21    22    1
    11    21    14   am
    12    14    15    2
    13     2     5    1
    14    26    27    1
    15     5     6    1
    16    28    29    2
    17    28    27    1
    18    53    52    2
    19    16    17    1
    20    17    18    1
    21    27    30    1
    22    11     9    1
    23    82    81    1
    24    55    54    1
    25    56    54    1
    26     6     7    1
    27    51    52    1
    28    51    54    1
    29    51    50    1
    30    83    81    1
    31    18    19    1
    32    19    20    1
    33    81    80    1
    34    30    32    1
    35    30    31    1
    36     7     8    1
    37     9     8    2
    38     9    10    1
    39    79    78    2
    40    80    77    1
    41    78    77    1
    42    77    76    1
    43    47    46    2
    44    64    62   ar
    45    63    62   ar
    46    46    45    1
    47    62    61    1
    48    45    44    1
    49    45    48    1
    50    75    74    2
    51    73    74    1
    52    73    72    1
    53    61    58    1
    54    48    49    1
    55    60    59    2
    56    58    59    1
    57    58    57    1
    58    41    39   ar
    59    41    43   ar
    60    39    38   ar
    61    59    65   am
    62    36    35    2
    63    43    42   ar
    64    34    35    1
    65    34    33    1
    66    34    37    1
    67    38    37    1
    68    38    40   ar
    69    65    66    1
    70    42    40   ar
    71    68    67    2
    72    66    67    1
    73    66    69    1
    74    71    69    1
    75    69    70    1
