@<TRIPOS>MOLECULE
tmp/4zbrA02.pdb
 110 101 0 0 0
SMALL
GASTEIGER

@<TRIPOS>ATOM
      1  N         28.1950   19.2390   77.7360 N.3   202  PHE202     -0.1241
      2  CA        27.9960   18.5000   78.9860 C.3   202  PHE202      0.1605
      3  C         28.3370   19.2470   80.2670 C.2   202  PHE202      0.2264
      4  O         27.9090   18.8410   81.3270 O.2   202  PHE202     -0.2867
      5  CB        28.7940   17.1810   78.9180 C.3   202  PHE202      0.0534
      6  CG        28.3620   16.2860   77.7690 C.ar  202  PHE202     -0.0203
      7  CD1       27.1810   15.5610   77.8550 C.ar  202  PHE202     -0.0042
      8  CD2       29.1040   16.2210   76.5970 C.ar  202  PHE202     -0.0042
      9  CE1       26.7660   14.7490   76.8030 C.ar  202  PHE202     -0.0003
     10  CE2       28.6890   15.4270   75.5360 C.ar  202  PHE202     -0.0003
     11  CZ        27.5130   14.7040   75.6390 C.ar  202  PHE202     -0.0000
     12  N         31.5540   19.7910   85.1010 N.3   205  ARG205     -0.1231
     13  CA        31.6200   18.5700   85.9330 C.3   205  ARG205      0.1694
     14  C         32.0510   17.3070   85.1150 C.2   205  ARG205      0.2591
     15  O         32.8020   16.4350   85.6140 O.2   205  ARG205     -0.2718
     16  CB        30.2710   18.3710   86.6180 C.3   205  ARG205      0.0321
     17  CG        30.2160   17.2160   87.6230 C.3   205  ARG205      0.0489
     18  CD        28.9200   17.2080   88.4700 C.3   205  ARG205      0.2205
     19  NE        28.7100   15.8910   89.1150 N.pl3 205  ARG205     -0.0865
     20  CZ        28.3410   14.7680   88.4790 C.cat 205  ARG205      0.5346
     21  NH1       28.2000   13.6350   89.1520 N.pl3 205  ARG205      0.1354
     22  NH2       28.1070   14.7610   87.1750 N.pl3 205  ARG205      0.1354
     23  N         31.5980   17.2700   83.8540 N.am  206  ALA206     -0.1980
     24  CA        32.0320   16.3020   82.8760 C.3   206  ALA206      0.1597
     25  C         33.5000   16.4450   82.4870 C.2   206  ALA206      0.2287
     26  O         34.2400   15.4340   82.4330 O.2   206  ALA206     -0.2864
     27  CB        31.1430   16.3340   81.6300 C.3   206  ALA206      0.0319
     28  N         35.5560   15.2670   85.6560 N.3   209  ALA209     -0.1245
     29  CA        35.4980   13.8260   85.7240 C.3   209  ALA209      0.1562
     30  C         36.4040   13.1570   84.7280 C.2   209  ALA209      0.2260
     31  O         37.1930   12.2890   85.1280 O.2   209  ALA209     -0.2867
     32  CB        34.0740   13.3510   85.5570 C.3   209  ALA209      0.0290
     33  N         29.6510   14.0840   95.0960 N.3   320  ASP320     -0.1239
     34  CA        30.7580   14.4260   94.1760 C.3   320  ASP320      0.1674
     35  C         32.1990   14.1160   94.6830 C.2   320  ASP320      0.2266
     36  O         33.0980   13.7700   93.8780 O.2   320  ASP320     -0.2867
     37  CB        30.5900   15.8630   93.5900 C.3   320  ASP320      0.1410
     38  CG        29.6760   15.8750   92.3100 C.2   320  ASP320      0.3668
     39  OD1       28.9640   14.8460   92.0610 O.co2 320  ASP320     -0.2456
     40  OD2       29.6720   16.8770   91.5280 O.co2 320  ASP320     -0.2456
     41  N         32.5020    9.9860   95.2150 N.3   323  LEU323     -0.1231
     42  CA        32.6300    9.4640   93.8830 C.3   323  LEU323      0.1693
     43  C         33.8890    9.8560   93.1790 C.2   323  LEU323      0.2592
     44  O         34.4460    9.0780   92.3980 O.2   323  LEU323     -0.2718
     45  CB        31.5270    9.9580   93.0270 C.3   323  LEU323      0.0284
     46  CG        30.1460    9.4230   93.2610 C.3   323  LEU323      0.0019
     47  CD1       29.2530    9.9980   92.1270 C.3   323  LEU323      0.0001
     48  CD2       30.1090    7.8850   93.3020 C.3   323  LEU323      0.0001
     49  N         34.3190   11.0900   93.3920 N.am  324  GLY324     -0.1957
     50  CA        35.5410   11.5470   92.7530 C.3   324  GLY324      0.1869
     51  C         36.6920   10.7800   93.2950 C.2   324  GLY324      0.2309
     52  O         37.6340   10.4500   92.6000 O.2   324  GLY324     -0.2863
     53  N         36.7490    7.4110   91.7240 N.3   327  LEU327     -0.1245
     54  CA        37.2380    7.5180   90.3880 C.3   327  LEU327      0.1561
     55  C         38.7210    7.6680   90.3210 C.2   327  LEU327      0.2260
     56  O         39.3830    7.0770   89.4660 O.2   327  LEU327     -0.2867
     57  CB        36.5230    8.6370   89.6520 C.3   327  LEU327      0.0270
     58  CG        36.8750    8.9160   88.1920 C.3   327  LEU327      0.0019
     59  CD1       36.5980    7.7120   87.3120 C.3   327  LEU327      0.0001
     60  CD2       36.1370   10.1800   87.7240 C.3   327  LEU327      0.0001
     61  N         34.9170    6.2520   83.1570 N.3   343  LEU343     -0.1245
     62  CA        33.7420    7.0660   83.4970 C.3   343  LEU343      0.1561
     63  C         32.4770    6.2230   83.4790 C.2   343  LEU343      0.2260
     64  O         31.6080    6.4170   84.3260 O.2   343  LEU343     -0.2867
     65  CB        33.6080    8.2430   82.5920 C.3   343  LEU343      0.0270
     66  CG        34.7570    9.2750   82.6550 C.3   343  LEU343      0.0019
     67  CD1       34.5700   10.2130   81.4800 C.3   343  LEU343      0.0001
     68  CD2       34.7580   10.1010   83.9230 C.3   343  LEU343      0.0001
     69  N         32.4740    4.4290   86.8650 N.3   346  ALA346     -0.1231
     70  CA        32.0520    5.3840   87.9100 C.3   346  ALA346      0.1694
     71  C         30.5630    5.5990   87.8970 C.2   346  ALA346      0.2591
     72  O         29.9640    5.6120   88.9790 O.2   346  ALA346     -0.2718
     73  CB        32.7760    6.7340   87.8190 C.3   346  ALA346      0.0304
     74  N         29.9500    5.7640   86.7190 N.am  347  LYS347     -0.1980
     75  CA        28.4740    5.9750   86.6760 C.3   347  LYS347      0.1596
     76  C         27.6660    4.7490   87.1480 C.2   347  LYS347      0.2287
     77  O         26.6200    4.8680   87.7920 O.2   347  LYS347     -0.2864
     78  CB        28.0040    6.4300   85.2970 C.3   347  LYS347      0.0298
     79  CG        28.5390    7.8020   84.9330 C.3   347  LYS347      0.0038
     80  CD        27.4340    8.7540   84.4430 C.3   347  LYS347      0.0206
     81  CE        26.4740    9.2430   85.5650 C.3   347  LYS347      0.1093
     82  NZ        26.7830   10.5850   86.1840 N.3   347  LYS347     -0.1314
     83  N         27.9720    4.7100   91.0370 N.3   350  GLU350     -0.1245
     84  CA        26.9950    5.6600   91.4090 C.3   350  GLU350      0.1567
     85  C         25.5990    5.1030   91.3580 C.2   350  GLU350      0.2260
     86  O         24.8650    5.1480   92.3580 O.2   350  GLU350     -0.2867
     87  CB        27.0820    6.8480   90.4940 C.3   350  GLU350      0.0388
     88  CG        26.1020    7.9340   90.8650 C.3   350  GLU350      0.1160
     89  CD        26.1370    9.1350   89.9580 C.2   350  GLU350      0.3649
     90  OE1       26.3230    9.0880   88.6980 O.co2 350  GLU350     -0.2457
     91  OE2       25.9100   10.1830   90.5260 O.co2 350  GLU350     -0.2457
     92  N         25.0760   11.3120   76.3650 N.3   476  SER476     -0.1202
     93  CA        25.9930   10.9410   77.4550 C.3   476  SER476      0.2020
     94  C         27.3140   10.9250   76.8760 C.2   476  SER476      0.2619
     95  O         27.5360   10.1950   75.9290 O.2   476  SER476     -0.2717
     96  CB        25.6930    9.5250   77.9830 C.3   476  SER476      0.2103
     97  OG        26.7350    8.9730   78.7890 O.3   476  SER476     -0.2182
     98  N         28.2140   11.7180   77.4190 N.am  477  LEU477     -0.1965
     99  CA        29.5550   11.7560   76.8480 C.3   477  LEU477      0.1728
    100  C         30.1880   10.3900   76.9980 C.2   477  LEU477      0.2616
    101  O         30.7470    9.8460   76.0480 O.2   477  LEU477     -0.2715
    102  CB        30.4100   12.7950   77.5420 C.3   477  LEU477      0.0311
    103  CG        31.8290   12.8530   76.9810 C.3   477  LEU477      0.0022
    104  CD1       31.8420   13.2180   75.5090 C.3   477  LEU477      0.0001
    105  CD2       32.6110   13.8530   77.7720 C.3   477  LEU477      0.0001
    106  N         30.0350    9.7960   78.1840 N.am  478  ALA478     -0.1977
    107  CA        30.7200    8.5370   78.4320 C.3   478  ALA478      0.1597
    108  C         30.1960    7.3940   77.5750 C.2   478  ALA478      0.2287
    109  O         30.9260    6.4590   77.2860 O.2   478  ALA478     -0.2864
    110  CB        30.6730    8.1680   79.9070 C.3   478  ALA478      0.0319
@<TRIPOS>BOND
     1   104   103    1
     2    10    11   ar
     3    10     8   ar
     4    11     9   ar
     5    95    94    2
     6   101   100    2
     7    92    93    1
     8     8     6   ar
     9     9     7   ar
    10    99   100    1
    11    99    98    1
    12    99   102    1
    13    94    98   am
    14    94    93    1
    15   103   102    1
    16   103   105    1
    17   100   106   am
    18   109   108    2
    19    93    96    1
    20   108   107    1
    21     1     2    1
    22     6     7   ar
    23     6     5    1
    24    96    97    1
    25   106   107    1
    26   107   110    1
    27     5     2    1
    28     2     3    1
    29     3     4    2
    30    67    66    1
    31    27    24    1
    32    26    25    2
    33    25    24    1
    34    65    66    1
    35    65    62    1
    36    66    68    1
    37    24    23    1
    38    61    62    1
    39    63    62    1
    40    63    64    2
    41    23    14   am
    42    80    79    1
    43    80    81    1
    44    30    31    2
    45    30    29    1
    46    79    78    1
    47    12    13    1
    48    14    15    2
    49    14    13    1
    50    78    75    1
    51    32    29    1
    52    81    82    1
    53    28    29    1
    54    13    16    1
    55    16    17    1
    56    75    74    1
    57    75    76    1
    58    74    71   am
    59    69    70    1
    60    76    77    2
    61    22    20    1
    62    59    58    1
    63    17    18    1
    64    60    58    1
    65    73    70    1
    66    71    70    1
    67    71    72    2
    68    58    57    1
    69    18    19    1
    70    20    19    2
    71    20    21    1
    72    90    89   ar
    73    56    55    2
    74    57    54    1
    75    89    91   ar
    76    89    88    1
    77    55    54    1
    78    54    53    1
    79    87    88    1
    80    87    84    1
    81    83    84    1
    82    85    84    1
    83    85    86    2
    84    40    38   ar
    85    39    38   ar
    86    47    46    1
    87    38    37    1
    88    44    43    2
    89    52    51    2
    90    50    51    1
    91    50    49    1
    92    45    46    1
    93    45    42    1
    94    43    49   am
    95    43    42    1
    96    46    48    1
    97    37    34    1
    98    36    35    2
    99    42    41    1
   100    34    35    1
   101    34    33    1
