@<TRIPOS>MOLECULE
tmp/4zbyA00.pdb
 79 77 0 0 0
SMALL
GASTEIGER

@<TRIPOS>ATOM
      1  N        -24.8800   -3.3590   12.6650 N.3    42  GLU42      -0.1231
      2  CA       -25.8020   -4.2420   13.3770 C.3    42  GLU42       0.1699
      3  C        -26.6530   -3.4980   14.4210 C.2    42  GLU42       0.2592
      4  O        -27.8800   -3.3720   14.2840 O.2    42  GLU42      -0.2718
      5  CB       -25.0090   -5.3600   14.0600 C.3    42  GLU42       0.0402
      6  CG       -25.8730   -6.2900   14.9170 C.3    42  GLU42       0.1161
      7  CD       -25.0560   -7.3240   15.6760 C.2    42  GLU42       0.3649
      8  OE1      -23.8200   -7.4070   15.4600 O.co2  42  GLU42      -0.2457
      9  OE2      -25.6610   -8.0530   16.4940 O.co2  42  GLU42      -0.2457
     10  N        -25.9880   -3.0380   15.4700 N.am   43  ALA43      -0.1966
     11  CA       -26.6510   -2.3500   16.5760 C.3    43  ALA43       0.1713
     12  C        -25.5960   -1.6040   17.3720 C.2    43  ALA43       0.2458
     13  O        -24.4000   -1.9500   17.3120 O.2    43  ALA43      -0.2730
     14  CB       -27.4300   -3.3540   17.4680 C.3    43  ALA43       0.0333
     15  N        -26.0210   -0.5920   18.1310 N.am   44  PRO44      -0.2716
     16  CA       -25.1040    0.1390   19.0060 C.3    44  PRO44       0.1536
     17  C        -24.3880   -0.7600   19.9920 C.2    44  PRO44       0.2599
     18  O        -24.9810   -1.6980   20.5410 O.2    44  PRO44      -0.2715
     19  CB       -26.0310    1.0980   19.7800 C.3    44  PRO44       0.0310
     20  CG       -27.2420    1.2100   18.9810 C.3    44  PRO44       0.0237
     21  CD       -27.3870   -0.0320   18.1560 C.3    44  PRO44       0.0939
     22  N        -23.1230   -0.4580   20.2540 N.am   45  GLY45      -0.1955
     23  CA       -22.4780   -1.0530   21.4020 C.3    45  GLY45       0.1869
     24  C        -22.5000   -0.1220   22.6010 C.2    45  GLY45       0.2309
     25  O        -23.3010    0.8140   22.6780 O.2    45  GLY45      -0.2863
     26  N        -21.6070    3.6600   21.9300 N.3    48  GLU48      -0.1245
     27  CA       -22.6850    4.2310   21.1220 C.3    48  GLU48       0.1567
     28  C        -23.8920    4.5730   21.9870 C.2    48  GLU48       0.2260
     29  O        -24.4940    5.6240   21.8530 O.2    48  GLU48      -0.2867
     30  CB       -23.0890    3.2490   20.0140 C.3    48  GLU48       0.0388
     31  CG       -22.0370    3.1120   18.9140 C.3    48  GLU48       0.1160
     32  CD       -20.8220    2.3190   19.3410 C.2    48  GLU48       0.3649
     33  OE1      -20.9130    1.4650   20.2760 O.co2  48  GLU48      -0.2457
     34  OE2      -19.7500    2.5560   18.7490 O.co2  48  GLU48      -0.2457
     35  N        -23.5730    6.5390   16.3470 N.3    54  PRO54      -0.2102
     36  CA       -23.1420    5.2370   15.8390 C.3    54  PRO54       0.1504
     37  C        -21.6160    5.1600   15.6840 C.2    54  PRO54       0.2575
     38  O        -20.9550    6.1800   15.4420 O.2    54  PRO54      -0.2718
     39  CB       -23.8440    5.1440   14.4810 C.3    54  PRO54       0.0282
     40  CG       -23.9060    6.5620   14.0320 C.3    54  PRO54       0.0208
     41  CD       -24.1060    7.4080   15.2760 C.3    54  PRO54       0.0893
     42  N        -21.0810    3.9520   15.8250 N.am   55  PHE55      -0.1977
     43  CA       -19.6840    3.6830   15.5070 C.3    55  PHE55       0.1639
     44  C        -18.7070    4.7210   16.1120 C.2    55  PHE55       0.2290
     45  O        -17.9920    5.4600   15.4000 O.2    55  PHE55      -0.2864
     46  CB       -19.5320    3.5660   13.9760 C.3    55  PHE55       0.0560
     47  CG       -20.0270    2.2450   13.4220 C.ar   55  PHE55      -0.0200
     48  CD1      -19.3270    1.0730   13.6720 C.ar   55  PHE55      -0.0042
     49  CD2      -21.1950    2.1690   12.6750 C.ar   55  PHE55      -0.0042
     50  CE1      -19.7590   -0.1370   13.1620 C.ar   55  PHE55      -0.0003
     51  CE2      -21.6440    0.9620   12.1830 C.ar   55  PHE55      -0.0003
     52  CZ       -20.9300   -0.1860   12.4110 C.ar   55  PHE55      -0.0000
     53  N        -14.3280   -0.2590   17.3040 N.3    59  ALA59      -0.1231
     54  CA       -14.6960   -0.6730   15.9560 C.3    59  ALA59       0.1694
     55  C        -15.0770    0.5460   15.1410 C.2    59  ALA59       0.2592
     56  O        -14.7410    0.6480   13.9650 O.2    59  ALA59      -0.2718
     57  CB       -15.8400   -1.6530   15.9760 C.3    59  ALA59       0.0304
     58  N        -15.7980    1.4670   15.7620 N.am   60  GLY60      -0.1957
     59  CA       -16.1580    2.6820   15.0660 C.3    60  GLY60       0.1869
     60  C        -14.9910    3.5710   14.6610 C.2    60  GLY60       0.2309
     61  O        -15.0280    4.1990   13.5860 O.2    60  GLY60      -0.2863
     62  N        -27.5400    1.8620   11.8150 N.3    82  ASN82      -0.1240
     63  CA       -27.6020    0.4290   12.1030 C.3    82  ASN82       0.1653
     64  C        -28.9980   -0.0910   11.8420 C.2    82  ASN82       0.2266
     65  O        -29.9490    0.6740   11.8510 O.2    82  ASN82      -0.2867
     66  CB       -27.2440    0.1210   13.5610 C.3    82  ASN82       0.1155
     67  CG       -25.8090    0.4750   13.9100 C.2    82  ASN82       0.2627
     68  OD1      -24.8810   -0.1990   13.5010 O.2    82  ASN82      -0.2716
     69  ND2      -25.6290    1.5390   14.6790 N.am   82  ASN82      -0.0877
     70  N        -17.7600   -6.9220    9.4990 N.3   164  HIS164     -0.1241
     71  CA       -17.9670   -5.8410   10.4240 C.3   164  HIS164      0.1621
     72  C        -16.6140   -5.3570   10.9200 C.2   164  HIS164      0.2264
     73  O        -15.7100   -6.1580   11.1210 O.2   164  HIS164     -0.2867
     74  CB       -18.8290   -6.3350   11.5770 C.3   164  HIS164      0.0745
     75  CG       -19.3050   -5.2520   12.4730 C.ar  164  HIS164      0.0817
     76  ND1      -18.4940   -4.6590   13.4170 N.ar  164  HIS164     -0.2268
     77  CD2      -20.5200   -4.6660   12.5880 C.ar  164  HIS164      0.1154
     78  CE1      -19.1890   -3.7470   14.0750 C.ar  164  HIS164      0.1986
     79  NE2      -20.4210   -3.7340   13.5910 N.ar  164  HIS164     -0.2212
@<TRIPOS>BOND
     1    70    71    1
     2    71    72    1
     3    71    74    1
     4    72    73    2
     5    74    75    1
     6    62    63    1
     7    64    65    2
     8    64    63    1
     9    63    66    1
    10    51    52   ar
    11    51    49   ar
    12    52    50   ar
    13    75    77   ar
    14    75    76   ar
    15    77    79   ar
    16     1     2    1
    17    49    47   ar
    18    50    48   ar
    19     2     5    1
    20     2     3    1
    21    76    78   ar
    22    47    48   ar
    23    47    46    1
    24    68    67    2
    25    66    67    1
    26    61    60    2
    27    79    78   ar
    28    67    69   am
    29    56    55    2
    30    46    43    1
    31    40    39    1
    32    40    41    1
    33     5     6    1
    34     4     3    2
    35     3    10   am
    36    39    36    1
    37    60    59    1
    38     6     7    1
    39    59    58    1
    40    55    58   am
    41    55    54    1
    42    41    35    1
    43    45    44    2
    44    38    37    2
    45     8     7   ar
    46    10    11    1
    47    43    42    1
    48    43    44    1
    49     7     9   ar
    50    37    42   am
    51    37    36    1
    52    36    35    1
    53    54    57    1
    54    54    53    1
    55    11    12    1
    56    11    14    1
    57    13    12    2
    58    12    15   am
    59    15    21    1
    60    15    16    1
    61    21    20    1
    62    34    32   ar
    63    31    32    1
    64    31    30    1
    65    20    19    1
    66    16    19    1
    67    16    17    1
    68    32    33   ar
    69    17    22   am
    70    17    18    2
    71    30    27    1
    72    22    23    1
    73    27    26    1
    74    27    28    1
    75    23    24    1
    76    29    28    2
    77    24    25    2
