@<TRIPOS>MOLECULE
tmp/4zc6B00.pdb
 71 63 0 0 0
SMALL
GASTEIGER

@<TRIPOS>ATOM
      1  N        -22.6920  -29.0360  -13.8530 N.3     1  THR1       -0.1218
      2  CA       -22.6170  -27.5560  -14.0640 C.3     1  THR1        0.1862
      3  C        -21.6050  -27.2130  -15.1800 C.2     1  THR1        0.2287
      4  O        -20.6140  -27.9400  -15.3770 O.2     1  THR1       -0.2866
      5  CB       -22.2460  -26.8440  -12.7340 C.3     1  THR1        0.1770
      6  OG1      -23.1400  -27.2680  -11.6940 O.3     1  THR1       -0.2211
      7  CG2      -22.2910  -25.3120  -12.8620 C.3     1  THR1        0.0375
      8  N        -26.8270  -25.5370  -15.1100 N.3    19  THR19      -0.1218
      9  CA       -26.6070  -26.8290  -14.4880 C.3    19  THR19       0.1862
     10  C        -27.8250  -27.7300  -14.4940 C.2    19  THR19       0.2287
     11  O        -28.9520  -27.2470  -14.3700 O.2    19  THR19      -0.2866
     12  CB       -26.0750  -26.6660  -13.0250 C.3    19  THR19       0.1770
     13  OG1      -25.6810  -27.9450  -12.4850 O.3    19  THR19      -0.2211
     14  CG2      -27.1010  -26.0110  -12.1160 C.3    19  THR19       0.0375
     15  N        -27.3160  -30.1200  -12.1350 N.3    21  ASN21      -0.1240
     16  CA       -26.8400  -30.5780  -10.8190 C.3    21  ASN21       0.1653
     17  C        -25.8420  -31.7350  -10.8770 C.2    21  ASN21       0.2266
     18  O        -24.7390  -31.5400  -11.3740 O.2    21  ASN21      -0.2867
     19  CB       -27.9580  -30.8010   -9.7950 C.3    21  ASN21       0.1155
     20  CG       -27.4020  -30.8430   -8.3860 C.2    21  ASN21       0.2627
     21  OD1      -26.3300  -30.3010   -8.1390 O.2    21  ASN21      -0.2716
     22  ND2      -28.0910  -31.5130   -7.4820 N.am   21  ASN21      -0.0877
     23  N        -32.0190  -30.9740   -9.5330 N.3    40  GLU40      -0.1245
     24  CA       -31.8300  -29.7830   -8.7430 C.3    40  GLU40       0.1567
     25  C        -32.5650  -29.7780   -7.3730 C.2    40  GLU40       0.2260
     26  O        -32.2150  -28.9420   -6.5010 O.2    40  GLU40      -0.2867
     27  CB       -32.2800  -28.5610   -9.5500 C.3    40  GLU40       0.0388
     28  CG       -31.3420  -27.3730   -9.4040 C.3    40  GLU40       0.1160
     29  CD       -29.9920  -27.5950  -10.1110 C.2    40  GLU40       0.3649
     30  OE1      -28.9400  -27.4430   -9.4480 O.co2  40  GLU40      -0.2457
     31  OE2      -29.9890  -27.9150  -11.3300 O.co2  40  GLU40      -0.2457
     32  N        -30.4320  -29.8500   -4.3710 N.3    43  ASP43      -0.1239
     33  CA       -29.8270  -28.6580   -3.7840 C.3    43  ASP43       0.1674
     34  C        -30.6130  -28.0600   -2.6510 C.2    43  ASP43       0.2266
     35  O        -30.1260  -27.1450   -2.0090 O.2    43  ASP43      -0.2867
     36  CB       -29.4980  -27.5960   -4.8230 C.3    43  ASP43       0.1410
     37  CG       -28.1560  -27.8990   -5.5510 C.2    43  ASP43       0.3668
     38  OD1      -27.4900  -28.9100   -5.1890 O.co2  43  ASP43      -0.2456
     39  OD2      -27.7900  -27.1430   -6.4760 O.co2  43  ASP43      -0.2456
     40  N        -27.9780  -22.0720   -4.5100 N.3    71  SER71      -0.1202
     41  CA       -26.9360  -22.4610   -5.4850 C.3    71  SER71       0.2020
     42  C        -25.5790  -21.8550   -5.1240 C.2    71  SER71       0.2619
     43  O        -25.5250  -20.7360   -4.6150 O.2    71  SER71      -0.2717
     44  CB       -27.3110  -22.0040   -6.9000 C.3    71  SER71       0.2103
     45  OG       -26.3230  -22.3890   -7.8630 O.3    71  SER71      -0.2182
     46  N        -24.4950  -22.5780   -5.4270 N.am   72  SER72      -0.1937
     47  CA       -23.1180  -22.0540   -5.2760 C.3    72  SER72       0.2055
     48  C        -22.6690  -21.2680   -6.4970 C.2    72  SER72       0.2642
     49  O        -21.6030  -20.6130   -6.4810 O.2    72  SER72      -0.2714
     50  CB       -22.1520  -23.1980   -5.0000 C.3    72  SER72       0.2130
     51  OG       -22.6170  -23.9120   -3.8570 O.3    72  SER72      -0.2179
     52  N        -23.4910  -21.3110   -7.5520 N.am   73  MET73      -0.1976
     53  CA       -23.1520  -20.6540   -8.8130 C.3    73  MET73       0.1605
     54  C        -22.9920  -19.1540   -8.6050 C.2    73  MET73       0.2287
     55  O        -23.6980  -18.5780   -7.8100 O.2    73  MET73      -0.2864
     56  CB       -24.2140  -20.9210   -9.8840 C.3    73  MET73       0.0413
     57  CG       -24.2830  -22.3760  -10.3520 C.3    73  MET73       0.0598
     58  SD       -25.3200  -22.5640  -11.8230 S.3    73  MET73      -0.1393
     59  CE       -26.9270  -22.1290  -11.1430 C.3    73  MET73       0.0692
     60  N        -20.1190  -27.6600   -7.8810 N.3    94  GLY94      -0.1225
     61  CA       -20.8290  -27.6980   -6.5900 C.3    94  GLY94       0.1811
     62  C        -20.3950  -26.5880   -5.6560 C.2    94  GLY94       0.2280
     63  O        -20.2790  -25.4430   -6.0860 O.2    94  GLY94      -0.2866
     64  N        -17.5730  -24.0260   -6.5690 N.3    97  ILE97      -0.1245
     65  CA       -17.7140  -22.9170   -7.5290 C.3    97  ILE97       0.1561
     66  C        -17.3190  -21.5510   -6.9420 C.2    97  ILE97       0.2260
     67  O        -16.6100  -20.7830   -7.5720 O.2    97  ILE97      -0.2867
     68  CB       -19.1650  -22.7900   -8.0710 C.3    97  ILE97       0.0252
     69  CG1      -19.5300  -23.9680   -8.9680 C.3    97  ILE97       0.0019
     70  CG2      -19.3670  -21.4570   -8.7910 C.3    97  ILE97       0.0019
     71  CD1      -21.0430  -24.0770   -9.2060 C.3    97  ILE97       0.0001
@<TRIPOS>BOND
     1     4     3    2
     2     3     2    1
     3     8     9    1
     4    10     9    1
     5    10    11    2
     6     9    12    1
     7     2     1    1
     8     2     5    1
     9    12    13    1
    10    12    14    1
    11     7     5    1
    12     5     6    1
    13    15    16    1
    14    58    59    1
    15    58    57    1
    16    18    17    2
    17    31    29   ar
    18    17    16    1
    19    16    19    1
    20    57    56    1
    21    29    30   ar
    22    29    28    1
    23    56    53    1
    24    19    20    1
    25    27    28    1
    26    27    24    1
    27    23    24    1
    28    71    69    1
    29    69    68    1
    30    53    54    1
    31    53    52    1
    32    70    68    1
    33    24    25    1
    34    54    55    2
    35    20    21    2
    36    20    22   am
    37    68    65    1
    38    60    61    1
    39    45    44    1
    40    67    66    2
    41    52    48   am
    42    65    66    1
    43    65    64    1
    44    25    26    2
    45    44    41    1
    46    61    62    1
    47    48    49    2
    48    48    47    1
    49    39    37   ar
    50    63    62    2
    51    37    38   ar
    52    37    36    1
    53    41    42    1
    54    41    40    1
    55    46    47    1
    56    46    42   am
    57    47    50    1
    58    42    43    2
    59    50    51    1
    60    36    33    1
    61    32    33    1
    62    33    34    1
    63    34    35    2
