@<TRIPOS>MOLECULE
tmp/4zc9A00.pdb
 142 138 0 0 0
SMALL
GASTEIGER

@<TRIPOS>ATOM
      1  N         -2.7910    0.0830   -2.7130 N.3    40  TRP40      -0.1228
      2  CA        -2.6400   -1.3050   -3.1560 C.3    40  TRP40       0.1722
      3  C         -3.9440   -2.1280   -3.2250 C.2    40  TRP40       0.2437
      4  O         -4.0990   -2.8790   -4.1690 O.2    40  TRP40      -0.2733
      5  CB        -1.5280   -2.0470   -2.3690 C.3    40  TRP40       0.0563
      6  CG        -1.7720   -2.1230   -0.8900 C.ar   40  TRP40       0.0003
      7  CD1       -1.4380   -1.1940    0.0500 C.ar   40  TRP40       0.0946
      8  CD2       -2.4450   -3.1710   -0.1850 C.ar   40  TRP40       0.0152
      9  NE1       -1.8800   -1.5890    1.2920 N.ar   40  TRP40      -0.2442
     10  CE2       -2.5010   -2.8020    1.1690 C.ar   40  TRP40       0.0810
     11  CE3       -3.0210   -4.3790   -0.5750 C.ar   40  TRP40       0.0012
     12  CZ2       -3.0760   -3.6180    2.1390 C.ar   40  TRP40       0.0191
     13  CZ3       -3.5940   -5.1840    0.3860 C.ar   40  TRP40       0.0001
     14  CH2       -3.6350   -4.7890    1.7200 C.ar   40  TRP40       0.0015
     15  N         -4.8920   -1.9850   -2.2750 N.am   41  PRO41      -0.2718
     16  CA        -6.1060   -2.8070   -2.4270 C.3    41  PRO41       0.1535
     17  C         -6.9590   -2.4280   -3.6330 C.2    41  PRO41       0.2598
     18  O         -7.8150   -3.2050   -4.0490 O.2    41  PRO41      -0.2715
     19  CB        -6.8930   -2.5240   -1.1400 C.3    41  PRO41       0.0310
     20  CG        -5.8650   -2.0040   -0.1610 C.3    41  PRO41       0.0237
     21  CD        -4.9480   -1.1950   -1.0320 C.3    41  PRO41       0.0939
     22  N         -6.7250   -1.2250   -4.1460 N.am   42  PHE42      -0.1974
     23  CA        -7.5370   -0.6400   -5.2000 C.3    42  PHE42       0.1639
     24  C         -6.8630   -0.7000   -6.5690 C.2    42  PHE42       0.2290
     25  O         -7.4190   -0.1900   -7.5350 O.2    42  PHE42      -0.2864
     26  CB        -7.8720    0.8130   -4.8320 C.3    42  PHE42       0.0560
     27  CG        -8.5580    0.9290   -3.5120 C.ar   42  PHE42      -0.0200
     28  CD1       -9.9110    0.6690   -3.3980 C.ar   42  PHE42      -0.0042
     29  CD2       -7.8440    1.2320   -2.3620 C.ar   42  PHE42      -0.0042
     30  CE1      -10.5420    0.7210   -2.1630 C.ar   42  PHE42      -0.0003
     31  CE2       -8.4770    1.2870   -1.1280 C.ar   42  PHE42      -0.0003
     32  CZ        -9.8280    1.0240   -1.0320 C.ar   42  PHE42      -0.0000
     33  N         -6.3220   -3.2370   -8.5280 N.3    44  GLN44      -0.1245
     34  CA        -6.8340   -4.3080   -9.3730 C.3    44  GLN44       0.1566
     35  C         -8.2250   -4.6680   -8.8600 C.2    44  GLN44       0.2260
     36  O         -8.5750   -4.3230   -7.7310 O.2    44  GLN44      -0.2867
     37  CB        -5.9090   -5.5330   -9.3510 C.3    44  GLN44       0.0367
     38  CG        -5.6730   -6.1330   -7.9830 C.3    44  GLN44       0.0905
     39  CD        -4.7490   -5.2890   -7.1180 C.2    44  GLN44       0.2608
     40  OE1       -3.6510   -4.9000   -7.5420 O.2    44  GLN44      -0.2717
     41  NE2       -5.1920   -4.9890   -5.9020 N.am   44  GLN44      -0.0878
     42  N        -11.2880   -6.4970   -7.0910 N.3    46  VAL46      -0.1231
     43  CA       -11.3780   -7.3240   -5.9040 C.3    46  VAL46       0.1692
     44  C        -11.4160   -8.7930   -6.3290 C.2    46  VAL46       0.2592
     45  O        -12.2950   -9.2200   -7.0850 O.2    46  VAL46      -0.2718
     46  CB       -12.6230   -6.9620   -5.0770 C.3    46  VAL46       0.0266
     47  CG1      -12.8510   -7.9750   -3.9550 C.3    46  VAL46       0.0020
     48  CG2      -12.4580   -5.5810   -4.4860 C.3    46  VAL46       0.0020
     49  N        -10.4450   -9.5580   -5.8350 N.am   47  ASP47      -0.1974
     50  CA       -10.3440  -10.9790   -6.1210 C.3    47  ASP47       0.1709
     51  C        -11.0600  -11.6880   -4.9830 C.2    47  ASP47       0.2293
     52  O        -10.4730  -12.0270   -3.9500 O.2    47  ASP47      -0.2864
     53  CB        -8.8790  -11.3900   -6.2290 C.3    47  ASP47       0.1436
     54  CG        -8.6980  -12.8170   -6.6700 C.2    47  ASP47       0.3671
     55  OD1       -9.6350  -13.6240   -6.5150 O.co2  47  ASP47      -0.2456
     56  OD2       -7.5950  -13.1460   -7.1440 O.co2  47  ASP47      -0.2456
     57  N         -9.5990  -13.7480   -1.6550 N.3    51  LEU51      -0.1245
     58  CA        -9.8910  -13.1500   -0.3580 C.3    51  LEU51       0.1561
     59  C        -11.0020  -13.8800    0.4150 C.2    51  LEU51       0.2260
     60  O        -11.3740  -13.4690    1.5190 O.2    51  LEU51      -0.2867
     61  CB       -10.2670  -11.6830   -0.5450 C.3    51  LEU51       0.0270
     62  CG        -9.1700  -10.8060   -1.1490 C.3    51  LEU51       0.0019
     63  CD1       -9.7100   -9.4140   -1.3880 C.3    51  LEU51       0.0001
     64  CD2       -7.9300  -10.7490   -0.2600 C.3    51  LEU51       0.0001
     65  N        -14.3060  -14.0840   -0.1420 N.3    53  LEU53      -0.1245
     66  CA       -15.4670  -13.2010    0.0130 C.3    53  LEU53       0.1561
     67  C        -16.5760  -13.6450   -0.9400 C.2    53  LEU53       0.2260
     68  O        -16.8580  -12.9550   -1.9230 O.2    53  LEU53      -0.2867
     69  CB       -15.0860  -11.7470   -0.2850 C.3    53  LEU53       0.0270
     70  CG       -13.9380  -11.1640    0.5360 C.3    53  LEU53       0.0019
     71  CD1      -13.5690   -9.7810    0.0140 C.3    53  LEU53       0.0001
     72  CD2      -14.2800  -11.1220    2.0150 C.3    53  LEU53       0.0001
     73  N        -19.1580  -11.0660   -2.1090 N.3    56  TYR56      -0.1241
     74  CA       -18.7740   -9.7300   -2.5710 C.3    56  TYR56       0.1605
     75  C        -19.5480   -9.3390   -3.8320 C.2    56  TYR56       0.2264
     76  O        -20.1340   -8.2610   -3.9010 O.2    56  TYR56      -0.2867
     77  CB       -17.2550   -9.6280   -2.8040 C.3    56  TYR56       0.0534
     78  CG       -16.8360   -8.2160   -3.1570 C.ar   56  TYR56      -0.0201
     79  CD1      -16.5430   -7.2850   -2.1680 C.ar   56  TYR56      -0.0009
     80  CD2      -16.7760   -7.8000   -4.4880 C.ar   56  TYR56      -0.0009
     81  CE1      -16.2040   -5.9780   -2.4870 C.ar   56  TYR56       0.0417
     82  CE2      -16.4390   -6.5090   -4.8220 C.ar   56  TYR56       0.0417
     83  CZ       -16.1540   -5.5930   -3.8230 C.ar   56  TYR56       0.1957
     84  OH       -15.8530   -4.3020   -4.1930 O.3    56  TYR56      -0.2866
     85  N        -16.6360    0.2620   -1.7600 N.3    95  CYS95      -0.1235
     86  CA       -15.8940   -0.0650   -0.5590 C.3    95  CYS95       0.1677
     87  C        -16.7240    0.2720    0.6780 C.2    95  CYS95       0.2270
     88  O        -16.7890   -0.5170    1.6350 O.2    95  CYS95      -0.2867
     89  CB       -14.5700    0.6880   -0.5580 C.3    95  CYS95       0.0956
     90  SG       -13.4630    0.2530    0.7770 S.3    95  CYS95      -0.0801
     91  N        -19.6850   -2.3330    0.9980 N.3    98  TYR98      -0.1227
     92  CA       -19.3430   -3.7000    1.3790 C.3    98  TYR98       0.1736
     93  C        -18.8250   -3.7990    2.8140 C.2    98  TYR98       0.2595
     94  O        -19.0750   -4.7870    3.5110 O.2    98  TYR98      -0.2718
     95  CB       -18.3230   -4.3200    0.4050 C.3    98  TYR98       0.0548
     96  CG       -18.1090   -5.7770    0.7120 C.ar   98  TYR98      -0.0200
     97  CD1      -19.0840   -6.7080    0.4090 C.ar   98  TYR98      -0.0009
     98  CD2      -16.9750   -6.2180    1.3790 C.ar   98  TYR98      -0.0009
     99  CE1      -18.9270   -8.0440    0.7400 C.ar   98  TYR98       0.0417
    100  CE2      -16.8070   -7.5490    1.7000 C.ar   98  TYR98       0.0417
    101  CZ       -17.7920   -8.4620    1.4000 C.ar   98  TYR98       0.1957
    102  OH       -17.5990   -9.7790    1.7520 O.3    98  TYR98      -0.2866
    103  N        -18.0920   -2.7760    3.2380 N.am   99  ASN99      -0.1974
    104  CA       -17.4020   -2.7760    4.5160 C.3    99  ASN99       0.1688
    105  C        -18.1370   -1.9150    5.5230 C.2    99  ASN99       0.2292
    106  O        -19.1610   -1.3470    5.2110 O.2    99  ASN99      -0.2864
    107  CB       -15.9650   -2.3260    4.2780 C.3    99  ASN99       0.1181
    108  CG       -15.2310   -3.2880    3.3740 C.2    99  ASN99       0.2629
    109  OD1      -14.8810   -4.3890    3.7850 O.2    99  ASN99      -0.2716
    110  ND2      -15.0430   -2.9060    2.1190 N.am   99  ASN99      -0.0877
    111  N        -13.7940    0.5320    9.4760 N.3   103  ASP103     -0.1225
    112  CA       -12.9180   -0.5670    9.0520 C.3   103  ASP103      0.1805
    113  C        -11.6550    0.0240    8.4390 C.2   103  ASP103      0.2598
    114  O        -11.6970    1.0720    7.7940 O.2   103  ASP103     -0.2718
    115  CB       -13.5700   -1.4530    7.9820 C.3   103  ASP103      0.1424
    116  CG       -14.5830   -2.4390    8.5280 C.2   103  ASP103      0.3668
    117  OD1      -14.7000   -2.5800    9.7660 O.co2 103  ASP103     -0.2456
    118  OD2      -15.2470   -3.0890    7.6780 O.co2 103  ASP103     -0.2456
    119  N        -10.5420   -0.6870    8.5860 N.am  104  ASP104     -0.1960
    120  CA        -9.2900   -0.2540    8.0030 C.3   104  ASP104      0.1840
    121  C         -9.4250    0.0820    6.5140 C.2   104  ASP104      0.2621
    122  O         -8.9310    1.1170    6.0710 O.2   104  ASP104     -0.2715
    123  CB        -8.2270   -1.3390    8.1820 C.3   104  ASP104      0.1450
    124  CG        -7.8340   -1.5540    9.6290 C.2   104  ASP104      0.3671
    125  OD1       -7.9430   -0.6210   10.4390 O.co2 104  ASP104     -0.2456
    126  OD2       -7.3900   -2.6740    9.9370 O.co2 104  ASP104     -0.2456
    127  N        -10.0690   -0.7790    5.7320 N.am  105  ILE105     -0.1977
    128  CA       -10.1350   -0.5350    4.2910 C.3   105  ILE105      0.1596
    129  C        -10.9720    0.7050    3.9760 C.2   105  ILE105      0.2287
    130  O        -10.7020    1.4020    3.0040 O.2   105  ILE105     -0.2864
    131  CB       -10.6300   -1.7840    3.5290 C.3   105  ILE105      0.0276
    132  CG1      -10.5000   -1.6320    2.0140 C.3   105  ILE105      0.0022
    133  CG2      -12.0680   -2.1150    3.8630 C.3   105  ILE105      0.0022
    134  CD1       -9.1170   -1.3520    1.5070 C.3   105  ILE105      0.0001
    135  N         -8.7990    3.6700    4.5150 N.3   108  MET108     -0.1245
    136  CA        -7.9240    3.7820    3.3560 C.3   108  MET108      0.1570
    137  C         -8.6520    4.4290    2.1810 C.2   108  MET108      0.2261
    138  O         -8.1310    5.3670    1.5650 O.2   108  MET108     -0.2867
    139  CB        -7.3780    2.4060    2.9710 C.3   108  MET108      0.0387
    140  CG        -6.4620    1.8320    4.0290 C.3   108  MET108      0.0595
    141  SD        -5.9660    0.1580    3.6950 S.3   108  MET108     -0.1393
    142  CE        -4.7760    0.3620    2.4210 C.3   108  MET108      0.0692
@<TRIPOS>BOND
     1    34    37    1
     2    34    35    1
     3    34    33    1
     4    37    38    1
     5    35    36    2
     6    38    39    1
     7    40    39    2
     8    25    24    2
     9    56    54   ar
    10    39    41   am
    11    42    43    1
    12    45    44    2
    13    54    55   ar
    14    54    53    1
    15    24    23    1
    16    44    43    1
    17    44    49   am
    18    53    50    1
    19    50    49    1
    20    50    51    1
    21    43    46    1
    22    23    26    1
    23    23    22    1
    24    46    48    1
    25    46    47    1
    26    51    52    2
    27    26    27    1
    28    82    80   ar
    29    82    83   ar
    30    80    78   ar
    31    84    83    1
    32     4     3    2
    33    22    17   am
    34    18    17    2
    35    76    75    2
    36    75    74    1
    37    83    81   ar
    38    17    16    1
    39    27    28   ar
    40    27    29   ar
    41    28    30   ar
    42     3     2    1
    43     3    15   am
    44    78    77    1
    45    78    79   ar
    46     2     1    1
    47     2     5    1
    48    77    74    1
    49    74    73    1
    50    81    79   ar
    51    16    15    1
    52    16    19    1
    53     5     6    1
    54    29    31   ar
    55    15    21    1
    56    30    32   ar
    57    68    67    2
    58    85    86    1
    59    57    58    1
    60    63    62    1
    61    62    61    1
    62    62    64    1
    63    19    20    1
    64    31    32   ar
    65    21    20    1
    66    67    66    1
    67     6     8   ar
    68     6     7   ar
    69    11     8   ar
    70    11    13   ar
    71    86    89    1
    72    86    87    1
    73    89    90    1
    74    61    58    1
    75    58    59    1
    76    69    66    1
    77    69    70    1
    78     8    10   ar
    79    65    66    1
    80    71    70    1
    81     7     9   ar
    82    13    14   ar
    83    95    96    1
    84    95    92    1
    85    97    96   ar
    86    97    99   ar
    87    59    60    2
    88    70    72    1
    89    87    88    2
    90    96    98   ar
    91    99   101   ar
    92    91    92    1
    93    10     9   ar
    94    10    12   ar
    95    98   100   ar
    96    92    93    1
    97   101   100   ar
    98   101   102    1
    99   134   132    1
   100   138   137    2
   101    14    12   ar
   102   132   131    1
   103   110   108   am
   104   137   136    1
   105   142   141    1
   106    93   103   am
   107    93    94    2
   108   139   136    1
   109   139   140    1
   110   130   129    2
   111   103   104    1
   112   136   135    1
   113   108   109    2
   114   108   107    1
   115   131   133    1
   116   131   128    1
   117   141   140    1
   118   129   128    1
   119   107   104    1
   120   128   127    1
   121   104   105    1
   122   106   105    2
   123   127   121   am
   124   122   121    2
   125   121   120    1
   126   118   116   ar
   127   114   113    2
   128   115   116    1
   129   115   112    1
   130   120   123    1
   131   120   119    1
   132   123   124    1
   133   113   119   am
   134   113   112    1
   135   116   117   ar
   136   112   111    1
   137   124   126   ar
   138   124   125   ar
