@<TRIPOS>MOLECULE
tmp/4zcaB00.pdb
 138 132 0 0 0
SMALL
GASTEIGER

@<TRIPOS>ATOM
      1  N         46.0380   33.1290  -31.5710 N.3     9  ARG9       -0.1231
      2  CA        47.4300   33.4390  -31.2930 C.3     9  ARG9        0.1694
      3  C         47.4920   34.4620  -30.1640 C.2     9  ARG9        0.2592
      4  O         47.0220   35.5970  -30.3160 O.2     9  ARG9       -0.2718
      5  CB        48.1410   34.0020  -32.5270 C.3     9  ARG9        0.0321
      6  CG        49.6240   34.2380  -32.2880 C.3     9  ARG9        0.0489
      7  CD        50.3350   34.8920  -33.4640 C.3     9  ARG9        0.2205
      8  NE        51.7710   34.9180  -33.2290 N.pl3   9  ARG9       -0.0865
      9  CZ        52.6740   35.4720  -34.0370 C.cat   9  ARG9        0.5346
     10  NH1       52.2930   36.0740  -35.1640 N.pl3   9  ARG9        0.1354
     11  NH2       53.9720   35.3850  -33.7380 N.pl3   9  ARG9        0.1354
     12  N         48.0640   34.0470  -29.0350 N.am   10  CYS10      -0.1956
     13  CA        48.2100   34.9040  -27.8690 C.3    10  CYS10       0.1843
     14  C         49.6020   35.5160  -27.8720 C.2    10  CYS10       0.2625
     15  O         50.5920   34.8160  -28.0570 O.2    10  CYS10      -0.2714
     16  CB        48.0140   34.0880  -26.5940 C.3    10  CYS10       0.0997
     17  SG        48.1950   35.0160  -25.0610 S.3    10  CYS10      -0.0797
     18  N         49.6760   36.8250  -27.6720 N.am   11  ARG11      -0.1964
     19  CA        50.9530   37.5320  -27.6600 C.3    11  ARG11       0.1714
     20  C         51.5180   37.5920  -26.2370 C.2    11  ARG11       0.2458
     21  O         50.8080   37.3240  -25.2750 O.2    11  ARG11      -0.2730
     22  CB        50.7550   38.9570  -28.1800 C.3    11  ARG11       0.0347
     23  CG        49.8970   39.8440  -27.2630 C.3    11  ARG11       0.0492
     24  CD        50.1820   41.3140  -27.5270 C.3    11  ARG11       0.2205
     25  NE        49.2520   42.2130  -26.8480 N.pl3  11  ARG11      -0.0865
     26  CZ        49.2440   42.4730  -25.5380 C.cat  11  ARG11       0.5346
     27  NH1       50.1300   41.8990  -24.7280 N.pl3  11  ARG11       0.1354
     28  NH2       48.3570   43.3310  -25.0410 N.pl3  11  ARG11       0.1354
     29  N         52.8110   37.9330  -26.0900 N.am   12  PRO12      -0.2727
     30  CA        53.4100   38.0180  -24.7470 C.3    12  PRO12       0.1402
     31  C         52.8540   39.2560  -24.0460 C.2    12  PRO12       0.2269
     32  O         52.1420   40.0400  -24.6690 O.2    12  PRO12      -0.2865
     33  CB        54.9090   38.1830  -25.0260 C.3    12  PRO12       0.0296
     34  CG        55.0880   37.7840  -26.4790 C.3    12  PRO12       0.0237
     35  CD        53.8120   38.1660  -27.1510 C.3    12  PRO12       0.0939
     36  N         52.8900   43.0270  -22.5410 N.3    14  ASN14      -0.1240
     37  CA        53.5960   44.2130  -23.0280 C.3    14  ASN14       0.1653
     38  C         53.9980   45.0340  -21.8020 C.2    14  ASN14       0.2266
     39  O         53.6950   44.6540  -20.6670 O.2    14  ASN14      -0.2867
     40  CB        52.7540   45.0580  -24.0080 C.3    14  ASN14       0.1155
     41  CG        51.4320   45.5100  -23.4320 C.2    14  ASN14       0.2627
     42  OD1       51.3030   45.7390  -22.2290 O.2    14  ASN14      -0.2716
     43  ND2       50.4390   45.6740  -24.3050 N.am   14  ASN14      -0.0877
     44  N         52.3170   32.4110  -26.4000 N.3    59  ALA59      -0.1245
     45  CA        53.0440   33.6650  -26.5250 C.3    59  ALA59       0.1562
     46  C         54.4510   33.4950  -27.0770 C.2    59  ALA59       0.2260
     47  O         54.9960   34.4240  -27.6680 O.2    59  ALA59      -0.2867
     48  CB        53.0970   34.3730  -25.1720 C.3    59  ALA59       0.0290
     49  N         55.2610   31.5400  -29.4570 N.3    61  THR61      -0.1218
     50  CA        55.1650   31.1450  -30.8520 C.3    61  THR61       0.1862
     51  C         55.8860   32.1560  -31.7460 C.2    61  THR61       0.2287
     52  O         55.6930   33.3640  -31.6200 O.2    61  THR61      -0.2866
     53  CB        53.6850   31.0260  -31.2950 C.3    61  THR61       0.1770
     54  OG1       53.0680   29.9190  -30.6230 O.3    61  THR61      -0.2211
     55  CG2       53.5950   30.8000  -32.7940 C.3    61  THR61       0.0375
     56  N         41.3150   42.3800  -30.9050 N.3    91  GLN91      -0.1231
     57  CA        41.4730   43.6840  -30.2830 C.3    91  GLN91       0.1698
     58  C         42.7230   44.4290  -30.7180 C.2    91  GLN91       0.2593
     59  O         43.7670   43.8290  -30.9440 O.2    91  GLN91      -0.2718
     60  CB        41.5060   43.5190  -28.7690 C.3    91  GLN91       0.0381
     61  CG        41.9550   44.7500  -28.0130 C.3    91  GLN91       0.0905
     62  CD        42.0900   44.4860  -26.5270 C.2    91  GLN91       0.2608
     63  OE1       42.5380   43.4180  -26.1310 O.2    91  GLN91      -0.2717
     64  NE2       41.7150   45.4610  -25.7010 N.am   91  GLN91      -0.0878
     65  N         42.6130   45.7460  -30.8220 N.am   92  THR92      -0.1939
     66  CA        43.7610   46.5720  -31.1930 C.3    92  THR92       0.2028
     67  C         44.9340   46.2920  -30.2450 C.2    92  THR92       0.2643
     68  O         44.7480   46.1840  -29.0360 O.2    92  THR92      -0.2714
     69  CB        43.4210   48.0790  -31.1070 C.3    92  THR92       0.1808
     70  OG1       42.4490   48.4060  -32.1090 O.3    92  THR92      -0.2208
     71  CG2       44.6810   48.9310  -31.3270 C.3    92  THR92       0.0379
     72  N         46.1330   46.1570  -30.7940 N.am   93  GLY93      -0.1939
     73  CA        47.2980   45.9100  -29.9530 C.3    93  GLY93       0.2014
     74  C         47.5720   44.4650  -29.5360 C.2    93  GLY93       0.2640
     75  O         48.4340   44.2160  -28.6900 O.2    93  GLY93      -0.2714
     76  N         46.8570   43.5070  -30.1150 N.am   94  THR94      -0.1936
     77  CA        47.0670   42.0960  -29.7660 C.3    94  THR94       0.2028
     78  C         47.9640   41.3760  -30.7740 C.2    94  THR94       0.2643
     79  O         48.3700   40.2410  -30.5430 O.2    94  THR94      -0.2714
     80  CB        45.7310   41.3520  -29.6620 C.3    94  THR94       0.1808
     81  OG1       45.0470   41.4480  -30.9140 O.3    94  THR94      -0.2208
     82  CG2       44.8720   41.9660  -28.5790 C.3    94  THR94       0.0379
     83  N         48.2550   42.0330  -31.8990 N.am   95  GLY95      -0.1939
     84  CA        49.1400   41.4370  -32.8860 C.3    95  GLY95       0.2014
     85  C         48.6200   41.1060  -34.2680 C.2    95  GLY95       0.2639
     86  O         49.2040   40.2530  -34.9380 O.2    95  GLY95      -0.2714
     87  N         47.5470   41.7650  -34.7120 N.am   96  LYS96      -0.1963
     88  CA        46.9910   41.5010  -36.0250 C.3    96  LYS96       0.1728
     89  C         47.9900   41.9000  -37.1090 C.2    96  LYS96       0.2617
     90  O         48.2740   41.1240  -38.0250 O.2    96  LYS96      -0.2715
     91  CB        45.6640   42.2580  -36.2230 C.3    96  LYS96       0.0311
     92  CG        44.4890   41.7130  -35.4170 C.3    96  LYS96       0.0038
     93  CD        43.1490   42.3470  -35.8420 C.3    96  LYS96       0.0206
     94  CE        43.1450   43.8940  -35.6930 C.3    96  LYS96       0.1093
     95  NZ        43.4990   44.3800  -34.3130 N.3    96  LYS96      -0.1314
     96  N         48.5200   43.1120  -37.0220 N.am   97  THR97      -0.1937
     97  CA        49.4910   43.5500  -38.0190 C.3    97  THR97       0.2028
     98  C         50.8500   42.8630  -37.8200 C.2    97  THR97       0.2642
     99  O         51.5400   42.5740  -38.7820 O.2    97  THR97      -0.2714
    100  CB        49.6480   45.0940  -38.0100 C.3    97  THR97       0.1808
    101  OG1       48.4100   45.6850  -38.4330 O.3    97  THR97      -0.2208
    102  CG2       50.7740   45.5440  -38.9510 C.3    97  THR97       0.0379
    103  N         51.2310   42.5880  -36.5800 N.am   98  PHE98      -0.1973
    104  CA        52.5050   41.8940  -36.3320 C.3    98  PHE98       0.1639
    105  C         52.4280   40.5540  -37.0830 C.2    98  PHE98       0.2290
    106  O         53.4120   40.0850  -37.6770 O.2    98  PHE98      -0.2864
    107  CB        52.6900   41.6180  -34.8250 C.3    98  PHE98       0.0560
    108  CG        53.9760   40.8850  -34.4850 C.ar   98  PHE98      -0.0200
    109  CD1       55.2050   41.5440  -34.5240 C.ar   98  PHE98      -0.0042
    110  CD2       53.9580   39.5210  -34.1820 C.ar   98  PHE98      -0.0042
    111  CE1       56.3980   40.8480  -34.2710 C.ar   98  PHE98      -0.0003
    112  CE2       55.1340   38.8180  -33.9310 C.ar   98  PHE98      -0.0003
    113  CZ        56.3550   39.4760  -33.9750 C.ar   98  PHE98      -0.0000
    114  N         57.4660   42.9160  -38.6890 N.3   103  GLU103     -0.1245
    115  CA        58.4020   44.0300  -38.6540 C.3   103  GLU103      0.1567
    116  C         59.7960   43.5600  -39.0740 C.2   103  GLU103      0.2260
    117  O         59.9790   42.3270  -39.1920 O.2   103  GLU103     -0.2867
    118  CB        58.4540   44.6040  -37.2350 C.3   103  GLU103      0.0388
    119  CG        57.1350   45.1770  -36.7320 C.3   103  GLU103      0.1160
    120  CD        56.9120   44.9070  -35.2490 C.2   103  GLU103      0.3649
    121  OE1       57.8780   45.0360  -34.4650 O.co2 103  GLU103     -0.2457
    122  OE2       55.7720   44.5700  -34.8640 O.co2 103  GLU103     -0.2457
    123  N         61.3050   38.6150  -37.7010 N.3   111  LEU111     -0.1245
    124  CA        60.0850   39.3320  -37.3480 C.3   111  LEU111      0.1561
    125  C         59.1480   39.5580  -38.5350 C.2   111  LEU111      0.2260
    126  O         58.1390   40.2500  -38.4100 O.2   111  LEU111     -0.2867
    127  CB        60.4260   40.6830  -36.7100 C.3   111  LEU111      0.0270
    128  CG        61.1890   40.6790  -35.3820 C.3   111  LEU111      0.0019
    129  CD1       61.3520   42.1060  -34.8830 C.3   111  LEU111      0.0001
    130  CD2       60.4360   39.8460  -34.3600 C.3   111  LEU111      0.0001
    131  N         43.9240   42.2110  -42.7590 N.3   244  ASP244     -0.1239
    132  CA        44.2660   42.7470  -41.4450 C.3   244  ASP244      0.1674
    133  C         43.0110   43.5180  -40.9900 C.2   244  ASP244      0.2266
    134  O         42.8250   44.6920  -41.3290 O.2   244  ASP244     -0.2867
    135  CB        45.4850   43.6700  -41.6050 C.3   244  ASP244      0.1410
    136  CG        46.0520   44.1390  -40.2870 C.2   244  ASP244      0.3668
    137  OD1       45.3600   44.0500  -39.2540 O.co2 244  ASP244     -0.2456
    138  OD2       47.1940   44.6210  -40.2780 O.co2 244  ASP244     -0.2456
@<TRIPOS>BOND
     1   131   132    1
     2   135   132    1
     3   135   136    1
     4   132   133    1
     5   134   133    2
     6   136   138   ar
     7   136   137   ar
     8   117   116    2
     9   116   115    1
    10   102   100    1
    11    99    98    2
    12   114   115    1
    13   115   118    1
    14   125   126    2
    15   125   124    1
    16   101   100    1
    17    90    89    2
    18    97   100    1
    19    97    98    1
    20    97    96    1
    21    98   103   am
    22   123   124    1
    23   106   105    2
    24   124   127    1
    25   118   119    1
    26    89    96   am
    27    89    88    1
    28   105   104    1
    29   119   120    1
    30   127   128    1
    31   103   104    1
    32   104   107    1
    33    91    88    1
    34    91    92    1
    35    88    87    1
    36    93    94    1
    37    93    92    1
    38    94    95    1
    39   128   129    1
    40   128   130    1
    41   120   122   ar
    42   120   121   ar
    43    10     9    1
    44    86    85    2
    45   107   108    1
    46    87    85   am
    47   109   108   ar
    48   109   111   ar
    49   108   110   ar
    50   111   113   ar
    51    85    84    1
    52   110   112   ar
    53     9    11    1
    54     9     8    2
    55   113   112   ar
    56     7     8    1
    57     7     6    1
    58    84    83    1
    59    55    53    1
    60     5     6    1
    61     5     2    1
    62    70    69    1
    63    83    78   am
    64    51    52    2
    65    51    50    1
    66     1     2    1
    67    71    69    1
    68    53    50    1
    69    53    54    1
    70     2     3    1
    71    66    69    1
    72    66    65    1
    73    66    67    1
    74    59    58    2
    75    81    80    1
    76    56    57    1
    77    50    49    1
    78    65    58   am
    79    72    67   am
    80    72    73    1
    81    78    79    2
    82    78    77    1
    83    58    57    1
    84     4     3    2
    85    57    60    1
    86    67    68    2
    87     3    12   am
    88    76    77    1
    89    76    74   am
    90    73    74    1
    91    77    80    1
    92    80    82    1
    93    74    75    2
    94    12    13    1
    95    60    61    1
    96    22    19    1
    97    22    23    1
    98    15    14    2
    99    61    62    1
   100    14    13    1
   101    14    18   am
   102    13    16    1
   103    18    19    1
   104    47    46    2
   105    19    20    1
   106    24    23    1
   107    24    25    1
   108    35    34    1
   109    35    29    1
   110    46    45    1
   111    25    26    2
   112    16    17    1
   113    62    63    2
   114    62    64   am
   115    45    44    1
   116    45    48    1
   117    34    33    1
   118    20    29   am
   119    20    21    2
   120    29    30    1
   121    26    28    1
   122    26    27    1
   123    33    30    1
   124    30    31    1
   125    32    31    2
   126    43    41   am
   127    40    41    1
   128    40    37    1
   129    41    42    2
   130    37    36    1
   131    37    38    1
   132    38    39    2
