@<TRIPOS>MOLECULE
tmp/4zccD01.pdb
 199 191 0 0 0
SMALL
GASTEIGER

@<TRIPOS>ATOM
      1  N         26.5720  -11.5230 -114.4230 N.3    55  TYR55      -0.1227
      2  CA        27.9030  -11.2100 -114.9090 C.3    55  TYR55       0.1736
      3  C         28.3040   -9.9810 -114.1140 C.2    55  TYR55       0.2595
      4  O         27.4710   -9.3420 -113.5000 O.2    55  TYR55      -0.2718
      5  CB        27.9270  -10.9140 -116.4110 C.3    55  TYR55       0.0548
      6  CG        27.1440   -9.6790 -116.7510 C.ar   55  TYR55      -0.0200
      7  CD1       27.7160   -8.4180 -116.6610 C.ar   55  TYR55      -0.0009
      8  CD2       25.8220   -9.7770 -117.1500 C.ar   55  TYR55      -0.0009
      9  CE1       26.9800   -7.2990 -116.9150 C.ar   55  TYR55       0.0417
     10  CE2       25.0950   -8.6700 -117.4310 C.ar   55  TYR55       0.0417
     11  CZ        25.6740   -7.4390 -117.3210 C.ar   55  TYR55       0.1957
     12  OH        24.8890   -6.3710 -117.6060 O.3    55  TYR55      -0.2866
     13  N         29.5690   -9.6220 -114.1350 N.am   56  PHE56      -0.1962
     14  CA        29.9470   -8.3800 -113.5040 C.3    56  PHE56       0.1771
     15  C         31.0160   -7.7160 -114.3000 C.2    56  PHE56       0.2620
     16  O         31.6990   -8.3710 -115.1100 O.2    56  PHE56      -0.2715
     17  CB        30.4120   -8.5980 -112.0350 C.3    56  PHE56       0.0574
     18  CG        31.4860   -9.6110 -111.8770 C.ar   56  PHE56      -0.0200
     19  CD1       31.1760  -10.9670 -111.7250 C.ar   56  PHE56      -0.0042
     20  CD2       32.8320   -9.2120 -111.8990 C.ar   56  PHE56      -0.0042
     21  CE1       32.1890  -11.9030 -111.5890 C.ar   56  PHE56      -0.0003
     22  CE2       33.8540  -10.1180 -111.7510 C.ar   56  PHE56      -0.0003
     23  CZ        33.5460  -11.4810 -111.6050 C.ar   56  PHE56      -0.0000
     24  N         31.1180   -6.4080 -114.0820 N.am   57  THR57      -0.1951
     25  CA        32.1440   -5.5830 -114.6790 C.3    57  THR57       0.1897
     26  C         33.1500   -5.2080 -113.6200 C.2    57  THR57       0.2313
     27  O         32.8650   -5.2610 -112.4200 O.2    57  THR57      -0.2863
     28  CB        31.5950   -4.3010 -115.2960 C.3    57  THR57       0.1794
     29  OG1       30.8810   -3.5650 -114.2880 O.3    57  THR57      -0.2208
     30  CG2       30.6240   -4.5880 -116.4540 C.3    57  THR57       0.0378
     31  N         35.6190   -2.0200 -112.8980 N.3    59  ARG59      -0.1245
     32  CA        36.0140   -0.6830 -113.3200 C.3    59  ARG59       0.1563
     33  C         37.1100   -0.0980 -112.4290 C.2    59  ARG59       0.2260
     34  O         37.9250    0.7240 -112.8610 O.2    59  ARG59      -0.2867
     35  CB        34.7590    0.1970 -113.3510 C.3    59  ARG59       0.0307
     36  CG        33.7370   -0.3240 -114.3820 C.3    59  ARG59       0.0489
     37  CD        32.4090    0.4390 -114.4320 C.3    59  ARG59       0.2205
     38  NE        31.5810   -0.0060 -115.5640 N.pl3  59  ARG59      -0.0865
     39  CZ        30.2830   -0.3250 -115.5030 C.cat  59  ARG59       0.5346
     40  NH1       29.6090   -0.2940 -114.3580 N.pl3  59  ARG59       0.1354
     41  NH2       29.6490   -0.7090 -116.6040 N.pl3  59  ARG59       0.1354
     42  N         25.0290  -10.3150 -127.5900 N.3    83  LEU83      -0.1245
     43  CA        24.0720   -9.6110 -126.7760 C.3    83  LEU83       0.1561
     44  C         23.1460   -8.9050 -127.7090 C.2    83  LEU83       0.2260
     45  O         23.5730   -8.3400 -128.7040 O.2    83  LEU83      -0.2867
     46  CB        24.7650   -8.6220 -125.8230 C.3    83  LEU83       0.0270
     47  CG        25.5840   -9.3190 -124.7370 C.3    83  LEU83       0.0019
     48  CD1       26.3960   -8.3230 -123.9080 C.3    83  LEU83       0.0001
     49  CD2       24.6680  -10.1900 -123.8380 C.3    83  LEU83       0.0001
     50  N         19.3230   -6.3940 -127.8940 N.3    85  ASN85      -0.1240
     51  CA        18.4840   -5.4490 -127.1760 C.3    85  ASN85       0.1653
     52  C         17.0300   -5.6000 -127.6320 C.2    85  ASN85       0.2266
     53  O         16.7700   -5.8520 -128.8090 O.2    85  ASN85      -0.2867
     54  CB        18.9900   -4.0310 -127.3710 C.3    85  ASN85       0.1155
     55  CG        18.3870   -3.0810 -126.3780 C.2    85  ASN85       0.2627
     56  OD1       18.7710   -3.0730 -125.2140 O.2    85  ASN85      -0.2716
     57  ND2       17.4720   -2.2330 -126.8420 N.am   85  ASN85      -0.0877
     58  N         23.1080   -5.8700 -129.8760 N.3    94  SER94      -0.1203
     59  CA        23.5500   -4.7210 -129.1310 C.3    94  SER94       0.2005
     60  C         24.9920   -4.9240 -128.6600 C.2    94  SER94       0.2461
     61  O         25.2450   -4.9870 -127.4780 O.2    94  SER94      -0.2732
     62  CB        22.6390   -4.4950 -127.9300 C.3    94  SER94       0.2103
     63  OG        22.8420   -3.2070 -127.4300 O.3    94  SER94      -0.2182
     64  N         25.9390   -5.0480 -129.6040 N.am   95  PRO95      -0.2717
     65  CA        27.3560   -5.2320 -129.2670 C.3    95  PRO95       0.1535
     66  C         27.8370   -3.9800 -128.5600 C.2    95  PRO95       0.2598
     67  O         27.3690   -2.9150 -128.9070 O.2    95  PRO95      -0.2715
     68  CB        28.0380   -5.4260 -130.6180 C.3    95  PRO95       0.0310
     69  CG        27.0910   -4.7640 -131.6320 C.3    95  PRO95       0.0237
     70  CD        25.7040   -4.9730 -131.0580 C.3    95  PRO95       0.0939
     71  N         28.8230   -4.0790 -127.6840 N.am   96  ASP96      -0.1972
     72  CA        29.3280   -2.9080 -126.9980 C.3    96  ASP96       0.1709
     73  C         30.7950   -3.0820 -126.6820 C.2    96  ASP96       0.2293
     74  O         31.4610   -3.9920 -127.2120 O.2    96  ASP96      -0.2864
     75  CB        28.4910   -2.6060 -125.7570 C.3    96  ASP96       0.1436
     76  CG        28.6370   -3.6490 -124.6500 C.2    96  ASP96       0.3671
     77  OD1       29.6240   -4.4280 -124.5910 O.co2  96  ASP96      -0.2456
     78  OD2       27.7430   -3.6580 -123.8010 O.co2  96  ASP96      -0.2456
     79  N         32.0910   -3.0150 -123.4550 N.3    98  GLN98      -0.1245
     80  CA        32.1890   -3.3760 -122.0530 C.3    98  GLN98       0.1566
     81  C         32.7170   -4.8220 -121.8820 C.2    98  GLN98       0.2260
     82  O         32.1660   -5.7230 -122.4910 O.2    98  GLN98      -0.2867
     83  CB        30.8320   -3.2040 -121.3850 C.3    98  GLN98       0.0367
     84  CG        30.8460   -3.5860 -119.9380 C.3    98  GLN98       0.0905
     85  CD        31.6190   -2.5360 -119.1590 C.2    98  GLN98       0.2608
     86  OE1       31.1820   -1.3890 -119.0630 O.2    98  GLN98      -0.2717
     87  NE2       32.7710   -2.9260 -118.5940 N.am   98  GLN98      -0.0878
     88  N         32.8230   -8.2140 -119.7290 N.3   100  ARG100     -0.1245
     89  CA        31.9550   -8.7970 -118.7030 C.3   100  ARG100      0.1563
     90  C         32.5540  -10.1240 -118.2530 C.2   100  ARG100      0.2260
     91  O         33.1050  -10.8680 -119.0540 O.2   100  ARG100     -0.2867
     92  CB        30.5230   -8.9890 -119.2250 C.3   100  ARG100      0.0307
     93  CG        29.8620   -7.7320 -119.5630 C.3   100  ARG100      0.0489
     94  CD        28.4610   -7.9340 -120.0920 C.3   100  ARG100      0.2205
     95  NE        27.8030   -6.6360 -120.1870 N.pl3 100  ARG100     -0.0865
     96  CZ        27.8440   -5.8450 -121.2480 C.cat 100  ARG100      0.5346
     97  NH1       28.4980   -6.2260 -122.3380 N.pl3 100  ARG100      0.1354
     98  NH2       27.2310   -4.6760 -121.2090 N.pl3 100  ARG100      0.1354
     99  N         13.8060   -8.0280 -106.7750 N.3   183  THR183     -0.1218
    100  CA        13.8840   -8.6060 -108.1110 C.3   183  THR183      0.1862
    101  C         13.3600  -10.0230 -108.1160 C.2   183  THR183      0.2287
    102  O         13.7940  -10.8490 -107.3180 O.2   183  THR183     -0.2866
    103  CB        15.3190   -8.6280 -108.6630 C.3   183  THR183      0.1770
    104  OG1       15.7800   -7.2780 -108.8210 O.3   183  THR183     -0.2211
    105  CG2       15.3300   -9.3630 -110.0770 C.3   183  THR183      0.0375
    106  N         19.3260   -7.2860 -123.1970 N.3   202  PHE202     -0.1241
    107  CA        18.8260   -6.1870 -122.4020 C.3   202  PHE202      0.1605
    108  C         17.4180   -5.8660 -122.9050 C.2   202  PHE202      0.2264
    109  O         17.2190   -5.7430 -124.1170 O.2   202  PHE202     -0.2867
    110  CB        19.7240   -4.9860 -122.5380 C.3   202  PHE202      0.0534
    111  CG        21.1460   -5.2600 -122.1570 C.ar  202  PHE202     -0.0203
    112  CD1       21.5340   -5.2200 -120.8270 C.ar  202  PHE202     -0.0042
    113  CD2       22.0970   -5.5490 -123.1350 C.ar  202  PHE202     -0.0042
    114  CE1       22.8390   -5.4710 -120.4710 C.ar  202  PHE202     -0.0003
    115  CE2       23.4000   -5.7980 -122.7890 C.ar  202  PHE202     -0.0003
    116  CZ        23.7760   -5.7490 -121.4430 C.ar  202  PHE202     -0.0000
    117  N         13.7420   -3.5980 -122.6720 N.3   204  GLN204     -0.1245
    118  CA        12.9700   -2.4380 -122.1850 C.3   204  GLN204      0.1566
    119  C         11.4860   -2.5930 -122.4700 C.2   204  GLN204      0.2260
    120  O         11.1010   -3.4210 -123.2950 O.2   204  GLN204     -0.2867
    121  CB        13.4750   -1.1470 -122.8210 C.3   204  GLN204      0.0367
    122  CG        14.9320   -0.8480 -122.5050 C.3   204  GLN204      0.0905
    123  CD        15.8810   -1.2540 -123.6260 C.2   204  GLN204      0.2608
    124  OE1       15.6040   -1.0210 -124.8010 O.2   204  GLN204     -0.2717
    125  NE2       17.0100   -1.8690 -123.2610 N.am  204  GLN204     -0.0878
    126  N         13.9340   -7.2030 -117.6070 N.3   209  ASP209     -0.1225
    127  CA        14.9870   -6.3160 -118.1150 C.3   209  ASP209      0.1805
    128  C         16.2110   -7.0990 -118.5760 C.2   209  ASP209      0.2597
    129  O         17.0850   -6.5340 -119.2050 O.2   209  ASP209     -0.2718
    130  CB        15.3950   -5.2590 -117.0990 C.3   209  ASP209      0.1424
    131  CG        15.9370   -5.8440 -115.8260 C.2   209  ASP209      0.3668
    132  OD1       16.1710   -7.0570 -115.7620 O.co2 209  ASP209     -0.2456
    133  OD2       16.1210   -5.0750 -114.8680 O.co2 209  ASP209     -0.2456
    134  N         16.2820   -8.3970 -118.2870 N.am  210  TRP210     -0.1976
    135  CA        17.4380   -9.1720 -118.7050 C.3   210  TRP210      0.1640
    136  C         17.1480  -10.6500 -118.9110 C.2   210  TRP210      0.2290
    137  O         16.3350  -11.2820 -118.2060 O.2   210  TRP210     -0.2864
    138  CB        18.5400   -9.0400 -117.6610 C.3   210  TRP210      0.0576
    139  CG        19.6660   -9.9920 -117.8310 C.ar  210  TRP210      0.0006
    140  CD1       19.8370  -11.1620 -117.1570 C.ar  210  TRP210      0.0946
    141  CD2       20.7960   -9.8700 -118.7140 C.ar  210  TRP210      0.0152
    142  NE1       20.9950  -11.7850 -117.5640 N.ar  210  TRP210     -0.2442
    143  CE2       21.5950  -11.0210 -118.5290 C.ar  210  TRP210      0.0810
    144  CE3       21.2020   -8.9150 -119.6490 C.ar  210  TRP210      0.0012
    145  CZ2       22.8230  -11.2160 -119.2140 C.ar  210  TRP210      0.0191
    146  CZ3       22.4060   -9.1340 -120.3580 C.ar  210  TRP210      0.0001
    147  CH2       23.1830  -10.2770 -120.1370 C.ar  210  TRP210      0.0015
    148  N         15.4030  -12.0390 -115.6680 N.3   230  HIS230     -0.1226
    149  CA        15.2710  -11.1150 -114.5610 C.3   230  HIS230      0.1752
    150  C         14.2430  -10.0160 -114.8290 C.2   230  HIS230      0.2595
    151  O         14.3010   -9.3530 -115.8500 O.2   230  HIS230     -0.2718
    152  CB        16.6140  -10.4450 -114.2230 C.3   230  HIS230      0.0759
    153  CG        17.5810  -11.3540 -113.5190 C.ar  230  HIS230      0.0818
    154  ND1       18.9170  -11.0460 -113.3490 N.ar  230  HIS230     -0.2268
    155  CD2       17.3950  -12.5550 -112.9220 C.ar  230  HIS230      0.1154
    156  CE1       19.5170  -12.0380 -112.7130 C.ar  230  HIS230      0.1986
    157  NE2       18.6140  -12.9570 -112.4200 N.ar  230  HIS230     -0.2212
    158  N         13.2700   -9.8750 -113.9310 N.am  231  ALA231     -0.1980
    159  CA        12.2800   -8.8030 -113.9990 C.3   231  ALA231      0.1597
    160  C         12.8330   -7.4980 -113.4970 C.2   231  ALA231      0.2287
    161  O         13.7610   -7.4930 -112.7370 O.2   231  ALA231     -0.2864
    162  CB        11.0640   -9.1610 -113.1800 C.3   231  ALA231      0.0319
    163  N         12.6970   -4.0170 -111.2110 N.3   233  SER233     -0.1217
    164  CA        12.2590   -3.8040 -109.8470 C.3   233  SER233      0.1889
    165  C         10.8410   -3.2430 -109.8610 C.2   233  SER233      0.2288
    166  O         10.0410   -3.5960 -109.0260 O.2   233  SER233     -0.2866
    167  CB        13.2020   -2.8810 -109.0940 C.3   233  SER233      0.2089
    168  OG        13.5360   -1.7650 -109.8760 O.3   233  SER233     -0.2183
    169  N         17.3980   -6.9850 -103.5500 N.3   277  ALA277     -0.1231
    170  CA        18.2610   -7.3990 -104.6380 C.3   277  ALA277      0.1694
    171  C         19.4020   -6.4320 -104.8260 C.2   277  ALA277      0.2591
    172  O         20.5010   -6.7980 -105.1930 O.2   277  ALA277     -0.2718
    173  CB        17.4330   -7.5220 -105.9570 C.3   277  ALA277      0.0304
    174  N         19.1060   -5.1750 -104.6990 N.am  278  ARG278     -0.1980
    175  CA        20.1110   -4.1540 -104.9190 C.3   278  ARG278      0.1597
    176  C         19.6480   -2.8890 -104.2570 C.2   278  ARG278      0.2287
    177  O         18.4560   -2.7260 -104.0400 O.2   278  ARG278     -0.2864
    178  CB        20.2960   -3.8530 -106.4110 C.3   278  ARG278      0.0334
    179  CG        18.9950   -3.4300 -107.0430 C.3   278  ARG278      0.0492
    180  CD        19.1550   -2.8690 -108.4280 C.3   278  ARG278      0.2205
    181  NE        17.8400   -2.5380 -108.9770 N.pl3 278  ARG278     -0.0865
    182  CZ        17.5290   -2.5220 -110.2680 C.cat 278  ARG278      0.5346
    183  NH1       18.4200   -2.8990 -111.1900 N.pl3 278  ARG278      0.1354
    184  NH2       16.2910   -2.1890 -110.6220 N.pl3 278  ARG278      0.1354
    185  N         26.2240   -0.9680 -105.5470 N.3   305  GLY305     -0.1210
    186  CA        25.1710   -1.9600 -105.7300 C.3   305  GLY305      0.1956
    187  C         25.5050   -3.0270 -106.7570 C.2   305  GLY305      0.2611
    188  O         24.6200   -3.7220 -107.2700 O.2   305  GLY305     -0.2717
    189  N         26.7980   -3.1910 -107.0190 N.am  306  ARG306     -0.1979
    190  CA        27.2910   -4.2080 -107.9400 C.3   306  ARG306      0.1597
    191  C         28.2850   -5.1850 -107.2630 C.2   306  ARG306      0.2287
    192  O         28.7180   -4.9560 -106.1400 O.2   306  ARG306     -0.2864
    193  CB        27.9800   -3.5500 -109.1450 C.3   306  ARG306      0.0334
    194  CG        27.0900   -2.7970 -110.0650 C.3   306  ARG306      0.0492
    195  CD        27.7950   -1.6310 -110.7570 C.3   306  ARG306      0.2205
    196  NE        28.9690   -2.0460 -111.5410 N.pl3 306  ARG306     -0.0865
    197  CZ        30.2400   -1.8150 -111.1990 C.cat 306  ARG306      0.5346
    198  NH1       30.5280   -1.1510 -110.0870 N.pl3 306  ARG306      0.1354
    199  NH2       31.2400   -2.2210 -111.9890 N.pl3 306  ARG306      0.1354
@<TRIPOS>BOND
     1    69    70    1
     2    69    68    1
     3    70    64    1
     4    68    65    1
     5    58    59    1
     6    64    65    1
     7    64    60   am
     8    65    66    1
     9    59    60    1
    10    59    62    1
    11    67    66    2
    12    53    52    2
    13    45    44    2
    14    60    61    2
    15    66    71   am
    16    62    63    1
    17    50    51    1
    18    44    43    1
    19    71    72    1
    20    52    51    1
    21    42    43    1
    22    54    51    1
    23    54    55    1
    24    74    73    2
    25    72    73    1
    26    72    75    1
    27    57    55   am
    28    43    46    1
    29    55    56    2
    30    46    47    1
    31    75    76    1
    32   124   123    2
    33    47    48    1
    34    47    49    1
    35    76    77   ar
    36    76    78   ar
    37   109   108    2
    38   123   125   am
    39   123   122    1
    40    79    80    1
    41   120   119    2
    42   106   107    1
    43   113   115   ar
    44   113   111   ar
    45   108   107    1
    46   121   122    1
    47   121   118    1
    48   115   116   ar
    49   117   118    1
    50   110   107    1
    51   110   111    1
    52    82    81    2
    53   119   118    1
    54    97    96    1
    55   111   112   ar
    56    80    81    1
    57    80    83    1
    58   116   114   ar
    59    83    84    1
    60    96    98    1
    61    96    95    2
    62   112   114   ar
    63   146   147   ar
    64   146   144   ar
    65    95    94    1
    66   147   145   ar
    67    94    93    1
    68    84    85    1
    69    88    89    1
    70   144   141   ar
    71    93    92    1
    72    92    89    1
    73   145   143   ar
    74   129   128    2
    75    85    86    2
    76    85    87   am
    77    91    90    2
    78   136   135    1
    79   136   137    2
    80   141   143   ar
    81   141   139   ar
    82   135   134    1
    83   135   138    1
    84    89    90    1
    85   128   134   am
    86   128   127    1
    87   143   142   ar
    88   127   126    1
    89   127   130    1
    90   139   138    1
    91   139   140   ar
    92    12    11    1
    93   142   140   ar
    94    10    11   ar
    95    10     8   ar
    96    11     9   ar
    97     8     6   ar
    98   130   131    1
    99     9     7   ar
   100     6     7   ar
   101     6     5    1
   102    41    39    1
   103    30    28    1
   104     5     2    1
   105   151   150    2
   106   131   132   ar
   107   131   133   ar
   108   148   149    1
   109    38    39    2
   110    38    37    1
   111    39    40    1
   112    28    25    1
   113    28    29    1
   114    16    15    2
   115     2     1    1
   116     2     3    1
   117   150   149    1
   118   150   158   am
   119    25    24    1
   120    25    26    1
   121   149   152    1
   122    37    36    1
   123    36    35    1
   124    15    24   am
   125    15    14    1
   126   152   153    1
   127    13     3   am
   128    13    14    1
   129     3     4    2
   130   159   158    1
   131   159   160    1
   132   159   162    1
   133    26    27    2
   134   153   154   ar
   135   153   155   ar
   136    14    17    1
   137   160   161    2
   138    35    32    1
   139   154   156   ar
   140    32    31    1
   141    32    33    1
   142   155   157   ar
   143    34    33    2
   144   156   157   ar
   145    17    18    1
   146   199   197    1
   147    20    18   ar
   148    20    22   ar
   149    18    19   ar
   150    22    23   ar
   151    19    21   ar
   152    23    21   ar
   153   196   197    2
   154   196   195    1
   155   163   164    1
   156   197   198    1
   157   183   182    1
   158   195   194    1
   159   184   182    1
   160   182   181    2
   161   105   103    1
   162   194   193    1
   163   168   167    1
   164   165   164    1
   165   165   166    2
   166   164   167    1
   167   193   190    1
   168   181   180    1
   169   104   103    1
   170   103   100    1
   171   180   179    1
   172   101   100    1
   173   101   102    2
   174   100    99    1
   175   190   191    1
   176   190   189    1
   177   188   187    2
   178   191   192    2
   179   179   178    1
   180   189   187   am
   181   187   186    1
   182   178   175    1
   183   173   170    1
   184   186   185    1
   185   172   171    2
   186   175   174    1
   187   175   176    1
   188   171   174   am
   189   171   170    1
   190   170   169    1
   191   176   177    2
