@<TRIPOS>MOLECULE
tmp/4zcfC00.pdb
 164 154 0 0 0
SMALL
GASTEIGER

@<TRIPOS>ATOM
      1  N        109.4710   62.9420  230.9280 N.3     2  LEU2       -0.1231
      2  CA       109.0430   63.6780  232.1170 C.3     2  LEU2        0.1693
      3  C        110.1710   64.4890  232.7480 C.2     2  LEU2        0.2591
      4  O        111.2260   63.9380  233.0830 O.2     2  LEU2       -0.2718
      5  CB       108.3400   62.7600  233.1380 C.3     2  LEU2        0.0284
      6  CG       106.8090   62.7670  233.1010 C.3     2  LEU2        0.0019
      7  CD1      106.2780   61.9710  231.9280 C.3     2  LEU2        0.0001
      8  CD2      106.2320   62.1980  234.3680 C.3     2  LEU2        0.0001
      9  N        109.9420   65.8130  232.8890 N.am    3  GLU3       -0.1979
     10  CA       110.9080   66.7520  233.4510 C.3     3  GLU3        0.1602
     11  C        111.1240   66.5670  234.9730 C.2     3  GLU3        0.2287
     12  O        110.2150   66.8010  235.7840 O.2     3  GLU3       -0.2864
     13  CB       110.5130   68.1820  233.1100 C.3     3  GLU3        0.0415
     14  CG       110.8970   68.5560  231.6900 C.3     3  GLU3        0.1163
     15  CD       112.4030   68.5070  231.4150 C.2     3  GLU3        0.3649
     16  OE1      113.2350   68.8620  232.2570 O.co2   3  GLU3       -0.2457
     17  OE2      112.7600   68.1090  230.3090 O.co2   3  GLU3       -0.2457
     18  N        111.9640   69.8590  238.4080 N.3     6  LEU6       -0.1245
     19  CA       111.7030   71.2950  238.3610 C.3     6  LEU6        0.1561
     20  C        111.5390   71.9080  239.7570 C.2     6  LEU6        0.2260
     21  O        110.7560   71.3820  240.5520 O.2     6  LEU6       -0.2867
     22  CB       110.5530   71.6440  237.4060 C.3     6  LEU6        0.0270
     23  CG       110.9140   71.5680  235.9080 C.3     6  LEU6        0.0019
     24  CD1      109.6940   71.3300  235.0570 C.3     6  LEU6        0.0001
     25  CD2      111.6540   72.8310  235.4310 C.3     6  LEU6        0.0001
     26  N        108.1360   72.8070  241.1350 N.3     9  GLN9       -0.1245
     27  CA       107.3290   71.6010  241.3440 C.3     9  GLN9        0.1566
     28  C        107.6930   70.8900  242.6500 C.2     9  GLN9        0.2260
     29  O        106.7970   70.6520  243.4630 O.2     9  GLN9       -0.2867
     30  CB       107.3940   70.6550  240.1420 C.3     9  GLN9        0.0367
     31  CG       106.4670   71.1020  239.0120 C.3     9  GLN9        0.0905
     32  CD       106.6350   70.3750  237.7010 C.2     9  GLN9        0.2608
     33  OE1      105.9030   70.6300  236.7490 O.2     9  GLN9       -0.2717
     34  NE2      107.5990   69.4700  237.5940 N.am    9  GLN9       -0.0878
     35  N        102.5720   72.7950  235.7160 N.3    84  GLY84      -0.1210
     36  CA       102.5820   71.3700  236.0310 C.3    84  GLY84       0.1956
     37  C        101.9640   70.9680  237.3610 C.2    84  GLY84       0.2612
     38  O        102.5950   70.2170  238.1190 O.2    84  GLY84      -0.2717
     39  N        100.7220   71.4470  237.6590 N.am   85  LYS85      -0.1965
     40  CA       100.0460   71.1040  238.9220 C.3    85  LYS85       0.1728
     41  C         99.6370   69.6180  239.0000 C.2    85  LYS85       0.2617
     42  O         99.6220   69.0420  240.0940 O.2    85  LYS85      -0.2715
     43  CB        98.8720   72.0530  239.2540 C.3    85  LYS85       0.0311
     44  CG        97.6970   72.0410  238.2710 C.3    85  LYS85       0.0038
     45  CD        96.3800   72.3210  238.9680 C.3    85  LYS85       0.0206
     46  CE        95.2630   72.5770  237.9860 C.3    85  LYS85       0.1093
     47  NZ        95.1610   74.0240  237.6240 N.3    85  LYS85      -0.1314
     48  N         99.3390   69.0090  237.8270 N.am   86  THR86      -0.1937
     49  CA        98.9650   67.6100  237.6540 C.3    86  THR86       0.2028
     50  C        100.1470   66.7320  238.0360 C.2    86  THR86       0.2642
     51  O         99.9960   65.8780  238.9040 O.2    86  THR86      -0.2714
     52  CB        98.4270   67.3760  236.2290 C.3    86  THR86       0.1808
     53  OG1       97.4550   68.3730  235.9300 O.3    86  THR86      -0.2208
     54  CG2       97.8040   66.0080  236.0510 C.3    86  THR86       0.0379
     55  N        101.3300   66.9610  237.4270 N.am   87  TYR87      -0.1973
     56  CA       102.5530   66.2320  237.7760 C.3    87  TYR87       0.1639
     57  C        102.8350   66.3060  239.2990 C.2    87  TYR87       0.2290
     58  O        103.1720   65.2820  239.9020 O.2    87  TYR87      -0.2864
     59  CB       103.7620   66.7610  236.9900 C.3    87  TYR87       0.0560
     60  CG       105.0690   66.1360  237.4380 C.ar   87  TYR87      -0.0198
     61  CD1      105.4640   64.8880  236.9720 C.ar   87  TYR87      -0.0009
     62  CD2      105.8950   66.7810  238.3560 C.ar   87  TYR87      -0.0009
     63  CE1      106.6510   64.2980  237.4050 C.ar   87  TYR87       0.0417
     64  CE2      107.0780   66.1990  238.8000 C.ar   87  TYR87       0.0417
     65  CZ       107.4520   64.9550  238.3250 C.ar   87  TYR87       0.1957
     66  OH       108.6090   64.3730  238.7890 O.3    87  TYR87      -0.2866
     67  N        100.6770   66.9700  241.9710 N.3    89  TYR89      -0.1241
     68  CA        99.7630   66.1720  242.7720 C.3    89  TYR89       0.1605
     69  C         99.9770   64.6690  242.6200 C.2    89  TYR89       0.2264
     70  O         99.7970   63.9200  243.5790 O.2    89  TYR89      -0.2867
     71  CB        98.2970   66.6350  242.6840 C.3    89  TYR89       0.0534
     72  CG        97.4750   66.3360  241.4480 C.ar   89  TYR89      -0.0201
     73  CD1       97.1880   65.0190  241.0770 C.ar   89  TYR89      -0.0009
     74  CD2       96.7780   67.3470  240.7990 C.ar   89  TYR89      -0.0009
     75  CE1       96.3430   64.7340  240.0050 C.ar   89  TYR89       0.0417
     76  CE2       95.9290   67.0740  239.7280 C.ar   89  TYR89       0.0417
     77  CZ        95.7210   65.7670  239.3280 C.ar   89  TYR89       0.1957
     78  OH        94.8750   65.5190  238.2730 O.3    89  TYR89      -0.2866
     79  N         89.2010   67.5070  231.3630 N.3   114  ILE114     -0.1245
     80  CA        90.1970   67.3650  232.4180 C.3   114  ILE114      0.1561
     81  C         90.2640   65.8620  232.7860 C.2   114  ILE114      0.2260
     82  O         91.3610   65.3450  232.9740 O.2   114  ILE114     -0.2867
     83  CB        89.9170   68.2990  233.6390 C.3   114  ILE114      0.0252
     84  CG1       89.9660   69.7940  233.2360 C.3   114  ILE114      0.0019
     85  CG2       90.8830   68.0120  234.8010 C.3   114  ILE114      0.0019
     86  CD1       89.4220   70.8120  234.3540 C.3   114  ILE114      0.0001
     87  N         92.2220   64.2100  229.9060 N.3   117  GLY117     -0.1210
     88  CA        93.6080   64.6600  229.9890 C.3   117  GLY117      0.1956
     89  C         94.3560   64.1040  231.1860 C.2   117  GLY117      0.2612
     90  O         95.5280   63.7510  231.0640 O.2   117  GLY117     -0.2717
     91  N         93.6870   64.0170  232.3540 N.am  118  THR118     -0.1952
     92  CA        94.2650   63.4630  233.5970 C.3   118  THR118      0.1897
     93  C         94.5430   61.9610  233.4170 C.2   118  THR118      0.2313
     94  O         95.6300   61.5000  233.7460 O.2   118  THR118     -0.2863
     95  CB        93.3590   63.7850  234.8250 C.3   118  THR118      0.1794
     96  OG1       93.2330   65.2050  234.9490 O.3   118  THR118     -0.2208
     97  CG2       93.8890   63.2130  236.1250 C.3   118  THR118      0.0378
     98  N         97.4880   61.1590  230.7960 N.3   121  PHE121     -0.1241
     99  CA        98.7540   61.3810  231.4880 C.3   121  PHE121      0.1605
    100  C         99.0910   60.2390  232.4480 C.2   121  PHE121      0.2264
    101  O        100.2100   59.7410  232.4120 O.2   121  PHE121     -0.2867
    102  CB        98.7010   62.7270  232.2330 C.3   121  PHE121      0.0534
    103  CG       100.0170   63.2400  232.7830 C.ar  121  PHE121     -0.0203
    104  CD1      101.1980   63.1070  232.0540 C.ar  121  PHE121     -0.0042
    105  CD2      100.0630   63.9220  233.9960 C.ar  121  PHE121     -0.0042
    106  CE1      102.4030   63.5880  232.5580 C.ar  121  PHE121     -0.0003
    107  CE2      101.2670   64.4250  234.4890 C.ar  121  PHE121     -0.0003
    108  CZ       102.4280   64.2470  233.7720 C.ar  121  PHE121     -0.0000
    109  N         91.0260   69.0350  241.6720 N.3   211  ASP211     -0.1225
    110  CA        91.5510   69.7340  240.5040 C.3   211  ASP211      0.1805
    111  C         90.5950   70.8820  240.1920 C.2   211  ASP211      0.2597
    112  O         89.3970   70.6450  240.0040 O.2   211  ASP211     -0.2718
    113  CB        91.6340   68.7580  239.3150 C.3   211  ASP211      0.1424
    114  CG        92.6610   69.1130  238.2600 C.2   211  ASP211      0.3668
    115  OD1       92.5320   70.1830  237.6480 O.co2 211  ASP211     -0.2456
    116  OD2       93.5460   68.2780  237.9930 O.co2 211  ASP211     -0.2456
    117  N         91.1220   72.1230  240.1450 N.am  212  GLU212     -0.1979
    118  CA        90.3760   73.3860  239.9270 C.3   212  GLU212      0.1602
    119  C         89.3110   73.5250  241.0420 C.2   212  GLU212      0.2287
    120  O         88.1530   73.1780  240.8160 O.2   212  GLU212     -0.2864
    121  CB        89.7760   73.5050  238.4980 C.3   212  GLU212      0.0415
    122  CG        90.6450   72.9680  237.3630 C.3   212  GLU212      0.1163
    123  CD        91.8230   73.7960  236.8800 C.2   212  GLU212      0.3649
    124  OE1       92.3370   74.6420  237.6490 O.co2 212  GLU212     -0.2457
    125  OE2       92.2620   73.5590  235.7300 O.co2 212  GLU212     -0.2457
    126  N         98.5770   63.5490  219.6700 N.3   418  LYS418     -0.1245
    127  CA        99.5840   64.4120  220.3090 C.3   418  LYS418      0.1561
    128  C        101.0430   64.1190  219.9130 C.2   418  LYS418      0.2260
    129  O        101.7450   65.0390  219.5020 O.2   418  LYS418     -0.2867
    130  CB        99.4060   64.4440  221.8370 C.3   418  LYS418      0.0271
    131  CG        99.8100   65.7710  222.4580 C.3   418  LYS418      0.0035
    132  CD        99.8460   65.6950  223.9740 C.3   418  LYS418      0.0206
    133  CE       100.5900   66.8600  224.5770 C.3   418  LYS418      0.1093
    134  NZ       100.9010   66.6290  226.0130 N.3   418  LYS418     -0.1314
    135  N         96.4090   71.5230  225.2620 N.3   442  ASP442     -0.1239
    136  CA        97.4700   72.0400  226.0620 C.3   442  ASP442      0.1674
    137  C         98.7790   71.5340  225.5290 C.2   442  ASP442      0.2266
    138  O         99.4590   70.7630  226.1680 O.2   442  ASP442     -0.2867
    139  CB        97.2720   71.6140  227.5080 C.3   442  ASP442      0.1410
    140  CG        98.2080   72.3030  228.4490 C.2   442  ASP442      0.3668
    141  OD1       98.9410   73.1900  228.0180 O.co2 442  ASP442     -0.2456
    142  OD2       98.2230   71.9640  229.6290 O.co2 442  ASP442     -0.2456
    143  N        102.8010   76.6230  227.8280 N.3   465  ARG465     -0.1245
    144  CA       103.8170   75.6330  228.1650 C.3   465  ARG465      0.1563
    145  C        105.0690   75.7140  227.2990 C.2   465  ARG465      0.2260
    146  O        104.9930   76.0470  226.1180 O.2   465  ARG465     -0.2867
    147  CB       103.2170   74.2240  228.1660 C.3   465  ARG465      0.0307
    148  CG       102.5640   73.8260  229.4960 C.3   465  ARG465      0.0489
    149  CD       101.7890   72.5130  229.4040 C.3   465  ARG465      0.2205
    150  NE       102.5680   71.4330  228.7840 N.pl3 465  ARG465     -0.0865
    151  CZ       102.0610   70.2790  228.3540 C.cat 465  ARG465      0.5346
    152  NH1      100.7630   70.0290  228.4780 N.pl3 465  ARG465      0.1354
    153  NH2      102.8500   69.3660  227.8010 N.pl3 465  ARG465      0.1354
    154  N        112.0190   69.3690  226.6400 N.3   474  ARG474     -0.1245
    155  CA       111.7380   70.7930  226.8930 C.3   474  ARG474      0.1563
    156  C        112.9700   71.6660  226.6430 C.2   474  ARG474      0.2260
    157  O        114.0750   71.2840  227.0440 O.2   474  ARG474     -0.2867
    158  CB       111.2170   71.0110  228.3260 C.3   474  ARG474      0.0307
    159  CG       109.6980   71.1790  228.4230 C.3   474  ARG474      0.0489
    160  CD       109.1430   70.8340  229.8030 C.3   474  ARG474      0.2205
    161  NE       109.5980   71.7550  230.8540 N.pl3 474  ARG474     -0.0865
    162  CZ       108.8760   72.7580  231.3520 C.cat 474  ARG474      0.5346
    163  NH1      107.6460   72.9880  230.9060 N.pl3 474  ARG474      0.1354
    164  NH2      109.3760   73.5340  232.3040 N.pl3 474  ARG474      0.1354
@<TRIPOS>BOND
     1   129   128    2
     2   126   127    1
     3   128   127    1
     4   127   130    1
     5   130   131    1
     6   131   132    1
     7   132   133    1
     8   133   134    1
     9   135   136    1
    10   137   136    1
    11   137   138    2
    12   136   139    1
    13   146   145    2
    14   154   155    1
    15   156   155    1
    16   156   157    2
    17   155   158    1
    18   145   144    1
    19   139   140    1
    20   153   151    1
    21   143   144    1
    22   141   140   ar
    23   144   147    1
    24   147   148    1
    25   158   159    1
    26   151   152    1
    27   151   150    2
    28   159   160    1
    29   140   142   ar
    30   150   149    1
    31   149   148    1
    32   160   161    1
    33    87    88    1
    34    88    89    1
    35    17    15   ar
    36    98    99    1
    37   161   162    2
    38   163   162    1
    39     1     2    1
    40    90    89    2
    41    89    91   am
    42   162   164    1
    43    79    80    1
    44    15    14    1
    45    15    16   ar
    46    99   102    1
    47    99   100    1
    48    14    13    1
    49     7     6    1
    50   104   106   ar
    51   104   103   ar
    52     2     3    1
    53     2     5    1
    54   102   103    1
    55    91    92    1
    56   101   100    2
    57    80    81    1
    58    80    83    1
    59   106   108   ar
    60     3     9   am
    61     3     4    2
    62   103   105   ar
    63    81    82    2
    64     9    10    1
    65     6     5    1
    66     6     8    1
    67    13    10    1
    68    84    83    1
    69    84    86    1
    70    93    92    1
    71    93    94    2
    72    10    11    1
    73    92    95    1
    74    83    85    1
    75   108   107   ar
    76   105   107   ar
    77    95    96    1
    78    95    97    1
    79    11    12    2
    80    24    23    1
    81    25    23    1
    82    35    36    1
    83   125   123   ar
    84    23    22    1
    85    53    52    1
    86    36    37    1
    87    54    52    1
    88    52    49    1
    89    33    32    2
    90   123   122    1
    91   123   124   ar
    92    61    63   ar
    93    61    60   ar
    94    59    60    1
    95    59    56    1
    96    37    39   am
    97    37    38    2
    98   122   121    1
    99    63    65   ar
   100    22    19    1
   101    55    56    1
   102    55    50   am
   103    60    62   ar
   104    34    32   am
   105    47    46    1
   106   115   114   ar
   107    49    48    1
   108    49    50    1
   109    39    40    1
   110    32    31    1
   111    56    57    1
   112    48    41   am
   113    46    45    1
   114   116   114   ar
   115    50    51    2
   116   114   113    1
   117    44    45    1
   118    44    43    1
   119    78    77    1
   120    65    66    1
   121    65    64   ar
   122    62    64   ar
   123    19    18    1
   124    19    20    1
   125   121   118    1
   126    40    41    1
   127    40    43    1
   128    41    42    2
   129    31    30    1
   130    57    58    2
   131   113   110    1
   132    77    76   ar
   133    77    75   ar
   134    76    74   ar
   135    20    21    2
   136   118   117    1
   137   118   119    1
   138   112   111    2
   139    75    73   ar
   140    30    27    1
   141   117   111   am
   142   111   110    1
   143   110   109    1
   144    74    72   ar
   145   120   119    2
   146    73    72   ar
   147    26    27    1
   148    27    28    1
   149    72    71    1
   150    67    68    1
   151    69    68    1
   152    69    70    2
   153    28    29    2
   154    71    68    1
