@<TRIPOS>MOLECULE
tmp/4zcgB00.pdb
 95 88 0 0 0
SMALL
GASTEIGER

@<TRIPOS>ATOM
      1  N        -22.7190  -29.1060  -13.8080 N.3     1  THR1       -0.1218
      2  CA       -22.5930  -27.6440  -13.9810 C.3     1  THR1        0.1862
      3  C        -21.5870  -27.3190  -15.1050 C.2     1  THR1        0.2287
      4  O        -20.6370  -28.0460  -15.2910 O.2     1  THR1       -0.2866
      5  CB       -22.1990  -26.9840  -12.6310 C.3     1  THR1        0.1770
      6  OG1      -23.1920  -27.3230  -11.6580 O.3     1  THR1       -0.2211
      7  CG2      -22.1560  -25.4950  -12.7610 C.3     1  THR1        0.0375
      8  N        -26.6750  -25.7700  -15.1600 N.3    19  THR19      -0.1218
      9  CA       -26.5130  -27.0700  -14.5130 C.3    19  THR19       0.1862
     10  C        -27.7530  -27.9730  -14.4920 C.2    19  THR19       0.2287
     11  O        -28.8850  -27.4850  -14.4050 O.2    19  THR19      -0.2866
     12  CB       -26.0860  -26.8920  -13.0500 C.3    19  THR19       0.1770
     13  OG1      -25.7010  -28.1490  -12.4790 O.3    19  THR19      -0.2211
     14  CG2      -27.2270  -26.3000  -12.2400 C.3    19  THR19       0.0375
     15  N        -27.3360  -30.3360  -12.1030 N.3    21  ASN21      -0.1225
     16  CA       -26.8920  -30.7380  -10.8080 C.3    21  ASN21       0.1785
     17  C        -25.8510  -31.8500  -10.8310 C.2    21  ASN21       0.2597
     18  O        -24.7370  -31.5870  -11.2380 O.2    21  ASN21      -0.2718
     19  CB       -28.0270  -30.9820   -9.8300 C.3    21  ASN21       0.1169
     20  CG       -27.5140  -31.1430   -8.4040 C.2    21  ASN21       0.2627
     21  OD1      -26.4120  -30.7020   -8.0740 O.2    21  ASN21      -0.2716
     22  ND2      -28.2930  -31.7720   -7.5680 N.am   21  ASN21      -0.0877
     23  N        -26.1610  -33.0690  -10.4100 N.am   22  LEU22      -0.1966
     24  CA       -25.1120  -34.0820  -10.3530 C.3    22  LEU22       0.1728
     25  C        -24.8490  -34.5360  -11.7690 C.2    22  LEU22       0.2616
     26  O        -25.5580  -34.1260  -12.6800 O.2    22  LEU22      -0.2715
     27  CB       -25.4920  -35.2690   -9.4580 C.3    22  LEU22       0.0311
     28  CG       -25.8680  -34.9130   -8.0190 C.3    22  LEU22       0.0022
     29  CD1      -26.0520  -36.1870   -7.2050 C.3    22  LEU22       0.0001
     30  CD2      -24.7950  -34.0200   -7.3670 C.3    22  LEU22       0.0001
     31  N        -23.8350  -35.3760  -11.9560 N.am   23  TYR23      -0.1974
     32  CA       -23.5340  -35.9300  -13.2850 C.3    23  TYR23       0.1639
     33  C        -24.7410  -36.6560  -13.8360 C.2    23  TYR23       0.2290
     34  O        -25.2630  -37.5560  -13.1930 O.2    23  TYR23      -0.2864
     35  CB       -22.3690  -36.9170  -13.2260 C.3    23  TYR23       0.0560
     36  CG       -20.9860  -36.3390  -12.9850 C.ar   23  TYR23      -0.0198
     37  CD1      -20.7350  -34.9790  -13.0850 C.ar   23  TYR23      -0.0009
     38  CD2      -19.9050  -37.1880  -12.7230 C.ar   23  TYR23      -0.0009
     39  CE1      -19.4640  -34.4720  -12.8830 C.ar   23  TYR23       0.0417
     40  CE2      -18.6210  -36.6890  -12.5470 C.ar   23  TYR23       0.0417
     41  CZ       -18.4020  -35.3360  -12.6240 C.ar   23  TYR23       0.1957
     42  OH       -17.1260  -34.8150  -12.4330 O.3    23  TYR23      -0.2866
     43  N        -32.1620  -31.1840   -9.4500 N.3    40  GLU40      -0.1245
     44  CA       -31.9460  -29.9770   -8.6840 C.3    40  GLU40       0.1567
     45  C        -32.6910  -29.9830   -7.3560 C.2    40  GLU40       0.2260
     46  O        -32.3310  -29.2040   -6.4580 O.2    40  GLU40      -0.2867
     47  CB       -32.3520  -28.7630   -9.5010 C.3    40  GLU40       0.0388
     48  CG       -31.3980  -27.5990   -9.3720 C.3    40  GLU40       0.1160
     49  CD       -30.0680  -27.8370  -10.1050 C.2    40  GLU40       0.3649
     50  OE1      -29.0280  -27.6800   -9.4400 O.co2  40  GLU40      -0.2457
     51  OE2      -30.0680  -28.1560  -11.3290 O.co2  40  GLU40      -0.2457
     52  N        -30.5470  -30.0110   -4.2210 N.3    43  ASP43      -0.1239
     53  CA       -29.9010  -28.8260   -3.6690 C.3    43  ASP43       0.1674
     54  C        -30.6880  -28.2310   -2.5070 C.2    43  ASP43       0.2266
     55  O        -30.1740  -27.3700   -1.8000 O.2    43  ASP43      -0.2867
     56  CB       -29.6750  -27.7420   -4.7300 C.3    43  ASP43       0.1410
     57  CG       -28.4040  -27.9730   -5.5610 C.2    43  ASP43       0.3668
     58  OD1      -27.6390  -28.9040   -5.2170 O.co2  43  ASP43      -0.2456
     59  OD2      -28.1730  -27.2100   -6.5490 O.co2  43  ASP43      -0.2456
     60  N        -27.8540  -22.2750   -4.4760 N.3    71  SER71      -0.1202
     61  CA       -26.8170  -22.6950   -5.4220 C.3    71  SER71       0.2020
     62  C        -25.4780  -22.0530   -5.1080 C.2    71  SER71       0.2619
     63  O        -25.4030  -20.9070   -4.6150 O.2    71  SER71      -0.2717
     64  CB       -27.2120  -22.2750   -6.8390 C.3    71  SER71       0.2103
     65  OG       -26.2080  -22.5500   -7.7880 O.3    71  SER71      -0.2182
     66  N        -24.4120  -22.7830   -5.4250 N.am   72  SER72      -0.1937
     67  CA       -23.0610  -22.2790   -5.2910 C.3    72  SER72       0.2055
     68  C        -22.6280  -21.4700   -6.5140 C.2    72  SER72       0.2645
     69  O        -21.5670  -20.8130   -6.5090 O.2    72  SER72      -0.2714
     70  CB       -22.1300  -23.4420   -5.0550 C.3    72  SER72       0.2130
     71  OG       -22.5430  -24.1370   -3.8910 O.3    72  SER72      -0.2179
     72  N        -23.4400  -21.5130   -7.5680 N.am   73  MET73      -0.1931
     73  CA       -23.1360  -20.8190   -8.8270 C.3    73  MET73       0.1821
     74  C        -22.9390  -19.3140   -8.5720 C.2    73  MET73       0.2332
     75  O        -23.6110  -18.7290   -7.7140 O.2    73  MET73      -0.2860
     76  CB       -24.2560  -21.0450   -9.8790 C.2    73  MET73       0.0096
     77  CG       -24.4080  -22.4750  -10.4150 C.2    73  MET73       0.0285
     78  SD       -25.7330  -22.7490  -11.6390 S.3    73  MET73      -0.1125
     79  CE       -27.2070  -22.2250  -10.7630 C.3    73  MET73       0.0742
     80  N        -18.4090  -27.2100  -10.6660 N.3    93  GLY93      -0.1210
     81  CA       -17.8090  -28.1070   -9.6690 C.3    93  GLY93       0.1956
     82  C        -18.3560  -28.0660   -8.2470 C.2    93  GLY93       0.2612
     83  O        -17.6100  -28.1680   -7.2650 O.2    93  GLY93      -0.2717
     84  N        -19.6590  -27.9040   -8.1110 N.am   94  GLY94      -0.1956
     85  CA       -20.2970  -28.1380   -6.8450 C.3    94  GLY94       0.1869
     86  C        -20.0580  -27.0140   -5.8910 C.2    94  GLY94       0.2309
     87  O        -20.1170  -25.8310   -6.2870 O.2    94  GLY94      -0.2863
     88  N        -17.4540  -24.1960   -6.4720 N.3    97  ILE97      -0.1245
     89  CA       -17.6340  -23.1370   -7.4610 C.3    97  ILE97       0.1561
     90  C        -17.2570  -21.7560   -6.9450 C.2    97  ILE97       0.2260
     91  O        -16.5860  -21.0130   -7.6310 O.2    97  ILE97      -0.2867
     92  CB       -19.0720  -23.0900   -7.9890 C.3    97  ILE97       0.0252
     93  CG1      -19.3330  -24.2750   -8.9160 C.3    97  ILE97       0.0019
     94  CG2      -19.3200  -21.7900   -8.7290 C.3    97  ILE97       0.0019
     95  CD1      -20.8190  -24.4520   -9.2310 C.3    97  ILE97       0.0001
@<TRIPOS>BOND
     1     4     3    2
     2     8     9    1
     3     3     2    1
     4     9    10    1
     5     9    12    1
     6    10    11    2
     7     2     1    1
     8     2     5    1
     9    33    32    1
    10    33    34    2
    11    32    35    1
    12    32    31    1
    13    35    36    1
    14    37    36   ar
    15    37    39   ar
    16    12    13    1
    17    12    14    1
    18    36    38   ar
    19    39    41   ar
    20     7     5    1
    21    38    40   ar
    22    26    25    2
    23     5     6    1
    24    41    40   ar
    25    41    42    1
    26    15    16    1
    27    31    25   am
    28    25    24    1
    29    78    79    1
    30    78    77    1
    31    51    49   ar
    32    18    17    2
    33    17    16    1
    34    17    23   am
    35    16    19    1
    36    80    81    1
    37    77    76    2
    38    23    24    1
    39    24    27    1
    40    49    50   ar
    41    49    48    1
    42    76    73    1
    43    19    20    1
    44    81    82    1
    45    47    48    1
    46    47    44    1
    47    27    28    1
    48    43    44    1
    49    95    93    1
    50    93    92    1
    51    73    74    1
    52    73    72    1
    53    94    92    1
    54    44    45    1
    55    74    75    2
    56    20    21    2
    57    20    22   am
    58    82    84   am
    59    82    83    2
    60    84    85    1
    61    28    30    1
    62    28    29    1
    63    92    89    1
    64    65    64    1
    65    91    90    2
    66    72    68   am
    67    89    90    1
    68    89    88    1
    69    45    46    2
    70    85    86    1
    71    64    61    1
    72    59    57   ar
    73    68    69    2
    74    68    67    1
    75    87    86    2
    76    57    58   ar
    77    57    56    1
    78    66    67    1
    79    66    62   am
    80    61    62    1
    81    61    60    1
    82    67    70    1
    83    62    63    2
    84    70    71    1
    85    56    53    1
    86    52    53    1
    87    53    54    1
    88    54    55    2
