@<TRIPOS>MOLECULE
tmp/4zcpA00.pdb
 155 151 0 0 0
SMALL
GASTEIGER

@<TRIPOS>ATOM
      1  N          6.1970  153.8510   23.0020 N.3     8  ASP8       -0.1225
      2  CA         5.2240  154.2490   21.9920 C.3     8  ASP8        0.1805
      3  C          5.5220  153.6420   20.6400 C.2     8  ASP8        0.2598
      4  O          6.6270  153.1840   20.3840 O.2     8  ASP8       -0.2718
      5  CB         5.0610  155.7800   21.9200 C.3     8  ASP8        0.1424
      6  CG         6.3100  156.5200   21.4400 C.2     8  ASP8        0.3668
      7  OD1        7.4010  155.9240   21.2700 O.co2   8  ASP8       -0.2456
      8  OD2        6.1740  157.7490   21.2660 O.co2   8  ASP8       -0.2456
      9  N          4.5140  153.6130   19.7820 N.am    9  GLY9       -0.1942
     10  CA         4.6820  153.0980   18.4460 C.3     9  GLY9        0.2014
     11  C          3.3710  152.9060   17.7550 C.2     9  GLY9        0.2639
     12  O          2.3100  153.2350   18.2960 O.2     9  GLY9       -0.2714
     13  N          3.4550  152.3850   16.5400 N.am   10  VAL10      -0.1963
     14  CA         2.2870  152.1000   15.7230 C.3    10  VAL10       0.1727
     15  C          1.6840  150.7590   16.1270 C.2    10  VAL10       0.2616
     16  O          0.4680  150.6370   16.2770 O.2    10  VAL10      -0.2715
     17  CB         2.6480  152.0680   14.2180 C.3    10  VAL10       0.0290
     18  CG1        1.4050  151.8440   13.3710 C.3    10  VAL10       0.0023
     19  CG2        3.3280  153.3670   13.7970 C.3    10  VAL10       0.0023
     20  N          2.5440  149.7550   16.2880 N.am   11  TYR11      -0.1960
     21  CA         2.1150  148.3970   16.6260 C.3    11  TYR11       0.1771
     22  C          1.0780  147.8340   15.6480 C.2    11  TYR11       0.2619
     23  O          0.1090  147.1770   16.0530 O.2    11  TYR11      -0.2715
     24  CB         1.6190  148.3430   18.0830 C.3    11  TYR11       0.0574
     25  CG         2.7150  148.6610   19.0820 C.ar   11  TYR11      -0.0198
     26  CD1        3.6730  147.7070   19.4100 C.ar   11  TYR11      -0.0009
     27  CD2        2.8020  149.9160   19.6960 C.ar   11  TYR11      -0.0009
     28  CE1        4.6850  147.9930   20.3080 C.ar   11  TYR11       0.0417
     29  CE2        3.8010  150.2040   20.6110 C.ar   11  TYR11       0.0417
     30  CZ         4.7410  149.2410   20.9170 C.ar   11  TYR11       0.1957
     31  OH         5.7520  149.5140   21.8140 O.3    11  TYR11      -0.2866
     32  N          1.3070  148.0650   14.3550 N.am   12  ASP12      -0.1971
     33  CA         0.4200  147.5640   13.3060 C.3    12  ASP12       0.1709
     34  C          0.6780  146.0690   13.1300 C.2    12  ASP12       0.2293
     35  O          1.8210  145.6330   13.1670 O.2    12  ASP12      -0.2864
     36  CB         0.7020  148.3160   11.9950 C.3    12  ASP12       0.1436
     37  CG        -0.4220  148.1860   10.9700 C.2    12  ASP12       0.3671
     38  OD1       -1.5540  147.7950   11.3320 O.co2  12  ASP12      -0.2456
     39  OD2       -0.1710  148.5040    9.7770 O.co2  12  ASP12      -0.2456
     40  N          3.4380  141.5400   15.9240 N.3    15  HIS15      -0.1241
     41  CA         4.2360  140.3390   15.6700 C.3    15  HIS15       0.1621
     42  C          5.2610  140.1630   16.7930 C.2    15  HIS15       0.2264
     43  O          5.3220  140.9690   17.7180 O.2    15  HIS15      -0.2867
     44  CB         4.9160  140.4120   14.2960 C.3    15  HIS15       0.0745
     45  CG         5.7240  141.6530   14.0770 C.ar   15  HIS15       0.0817
     46  ND1        6.9280  141.8820   14.7050 N.ar   15  HIS15      -0.2268
     47  CD2        5.5140  142.7210   13.2710 C.ar   15  HIS15       0.1154
     48  CE1        7.4170  143.0440   14.3170 C.ar   15  HIS15       0.1986
     49  NE2        6.5810  143.5710   13.4400 N.ar   15  HIS15      -0.2212
     50  N          8.5160  140.5420   17.0720 N.3    17  GLY17      -0.1210
     51  CA         9.3730  141.7270   17.2620 C.3    17  GLY17       0.1956
     52  C          8.8250  142.7910   18.2090 C.2    17  GLY17       0.2611
     53  O          9.5310  143.2420   19.1080 O.2    17  GLY17      -0.2717
     54  N          7.5580  143.1680   18.0320 N.am   18  HIS18      -0.1975
     55  CA         6.8790  144.0610   18.9690 C.3    18  HIS18       0.1656
     56  C          6.8130  143.4330   20.3570 C.2    18  HIS18       0.2291
     57  O          7.1120  144.0930   21.3570 O.2    18  HIS18      -0.2864
     58  CB         5.4470  144.3450   18.5140 C.3    18  HIS18       0.0771
     59  CG         5.3560  145.0970   17.2300 C.ar   18  HIS18       0.0820
     60  ND1        4.6360  144.6350   16.1510 N.ar   18  HIS18      -0.2267
     61  CD2        5.8830  146.2840   16.8500 C.ar   18  HIS18       0.1154
     62  CE1        4.7210  145.5030   15.1620 C.ar   18  HIS18       0.1986
     63  NE2        5.4760  146.5100   15.5580 N.ar   18  HIS18      -0.2212
     64  N         10.0160  143.5080   22.1030 N.3    21  GLN21      -0.1245
     65  CA        10.3220  144.8790   22.5290 C.3    21  GLN21       0.1566
     66  C          9.6160  145.2260   23.8240 C.2    21  GLN21       0.2260
     67  O         10.2140  145.8240   24.7100 O.2    21  GLN21      -0.2867
     68  CB         9.9390  145.8940   21.4770 C.3    21  GLN21       0.0367
     69  CG        10.4110  147.3160   21.7980 C.3    21  GLN21       0.0905
     70  CD         9.3720  148.1880   22.5020 C.2    21  GLN21       0.2608
     71  OE1        8.1600  148.0090   22.3320 O.2    21  GLN21      -0.2717
     72  NE2        9.8570  149.1780   23.2730 N.am   21  GLN21      -0.0878
     73  N          4.2410  158.4920    8.7460 N.3    48  LYS48      -0.1245
     74  CA         4.8860  157.2010    8.4760 C.3    48  LYS48       0.1561
     75  C          4.4090  156.6080    7.1580 C.2    48  LYS48       0.2260
     76  O          5.2110  156.3430    6.2700 O.2    48  LYS48      -0.2867
     77  CB         4.6330  156.2140    9.6200 C.3    48  LYS48       0.0271
     78  CG         5.5920  155.0740    9.6810 C.3    48  LYS48       0.0035
     79  CD         5.1640  154.1250   10.7850 C.3    48  LYS48       0.0206
     80  CE         5.5590  152.6830   10.4690 C.3    48  LYS48       0.1093
     81  NZ         4.9600  152.1630    9.1790 N.3    48  LYS48      -0.1314
     82  N         12.4560  152.7390   23.4840 N.3    94  HIS94      -0.1226
     83  CA        12.2370  152.6650   22.0270 C.3    94  HIS94       0.1752
     84  C         13.5380  152.2240   21.3520 C.2    94  HIS94       0.2596
     85  O         14.5970  152.3130   21.9640 O.2    94  HIS94      -0.2718
     86  CB        11.7940  154.0380   21.4990 C.3    94  HIS94       0.0759
     87  CG        11.0610  153.9840   20.1950 C.ar   94  HIS94       0.0818
     88  ND1       11.7060  153.8880   18.9800 N.ar   94  HIS94      -0.2268
     89  CD2        9.7360  154.0080   19.9170 C.ar   94  HIS94       0.1154
     90  CE1       10.8100  153.8530   18.0090 C.ar   94  HIS94       0.1986
     91  NE2        9.6070  153.9190   18.5520 N.ar   94  HIS94      -0.2212
     92  N         13.4870  151.7260   20.1190 N.am   95  ASP95      -0.1974
     93  CA        14.7430  151.4330   19.4220 C.3    95  ASP95       0.1709
     94  C         15.4990  152.7500   19.2160 C.2    95  ASP95       0.2293
     95  O         14.9060  153.8150   19.2730 O.2    95  ASP95      -0.2864
     96  CB        14.5450  150.6780   18.0950 C.3    95  ASP95       0.1436
     97  CG        13.8180  151.4940   17.0310 C.2    95  ASP95       0.3671
     98  OD1       14.3210  152.5660   16.6370 O.co2  95  ASP95      -0.2456
     99  OD2       12.7520  151.0470   16.5510 O.co2  95  ASP95      -0.2456
    100  N         15.9080  149.9010   23.2510 N.3   112  THR112     -0.1203
    101  CA        15.5300  148.4870   23.0970 C.3   112  THR112      0.1994
    102  C         15.9800  148.0400   21.7100 C.2   112  THR112      0.2618
    103  O         16.2880  148.8850   20.8540 O.2   112  THR112     -0.2717
    104  CB        14.0000  148.2650   23.2690 C.3   112  THR112      0.1784
    105  OG1       13.2670  149.1730   22.4320 O.3   112  THR112     -0.2211
    106  CG2       13.5810  148.4730   24.7310 C.3   112  THR112      0.0376
    107  N         16.0320  146.7300   21.4860 N.am  113  GLN113     -0.1965
    108  CA        16.4990  146.1710   20.2040 C.3   113  GLN113      0.1733
    109  C         15.3650  145.7390   19.3150 C.2   113  GLN113      0.2616
    110  O         14.3860  145.1440   19.7730 O.2   113  GLN113     -0.2715
    111  CB        17.4050  144.9500   20.4150 C.3   113  GLN113      0.0408
    112  CG        18.8700  145.2950   20.5750 C.3   113  GLN113      0.0908
    113  CD        19.1120  146.0930   21.8310 C.2   113  GLN113      0.2608
    114  OE1       18.7540  145.6560   22.9260 O.2   113  GLN113     -0.2717
    115  NE2       19.6940  147.2770   21.6860 N.am  113  GLN113     -0.0878
    116  N         15.5260  145.9770   18.0220 N.am  114  ARG114     -0.1963
    117  CA        14.5960  145.4220   17.0440 C.3   114  ARG114      0.1729
    118  C         14.8860  143.9330   16.8380 C.2   114  ARG114      0.2617
    119  O         15.9990  143.4650   17.0850 O.2   114  ARG114     -0.2715
    120  CB        14.6840  146.1750   15.7260 C.3   114  ARG114      0.0348
    121  CG        14.5150  147.6760   15.8750 C.3   114  ARG114      0.0492
    122  CD        14.6350  148.3560   14.5270 C.3   114  ARG114      0.2205
    123  NE        13.5460  147.9400   13.6490 N.pl3 114  ARG114     -0.0865
    124  CZ        12.3010  148.4150   13.7030 C.cat 114  ARG114      0.5346
    125  NH1       11.3960  147.9520   12.8500 N.pl3 114  ARG114      0.1354
    126  NH2       11.9460  149.3440   14.5970 N.pl3 114  ARG114      0.1354
    127  N         13.8650  143.1880   16.4280 N.am  115  THR115     -0.1937
    128  CA        14.0270  141.7910   16.0420 C.3   115  THR115      0.2028
    129  C         13.7600  141.7240   14.5490 C.2   115  THR115      0.2642
    130  O         12.6700  142.0660   14.1050 O.2   115  THR115     -0.2714
    131  CB        13.0250  140.8940   16.7810 C.3   115  THR115      0.1808
    132  OG1       13.1710  141.0790   18.1970 O.3   115  THR115     -0.2208
    133  CG2       13.2480  139.4200   16.4350 C.3   115  THR115      0.0379
    134  N         14.7500  141.3040   13.7680 N.am  116  GLU116     -0.1976
    135  CA        14.6030  141.3040   12.3100 C.3   116  GLU116      0.1602
    136  C         13.9850  139.9920   11.8070 C.2   116  GLU116      0.2287
    137  O         13.9640  138.9870   12.5220 O.2   116  GLU116     -0.2864
    138  CB        15.9520  141.5940   11.6330 C.3   116  GLU116      0.0415
    139  CG        16.4530  143.0050   11.8150 C.3   116  GLU116      0.1163
    140  CD        15.7330  144.0900   11.0350 C.2   116  GLU116      0.3649
    141  OE1       14.6240  143.8190   10.4650 O.co2 116  GLU116     -0.2457
    142  OE2       16.2990  145.1930   10.9660 O.co2 116  GLU116     -0.2457
    143  N         10.9950  138.8740   11.3590 N.3   118  VAL118     -0.1231
    144  CA         9.9490  138.2180   12.1180 C.3   118  VAL118      0.1692
    145  C          8.6130  138.9380   11.9930 C.2   118  VAL118      0.2592
    146  O          7.6540  138.6060   12.6920 O.2   118  VAL118     -0.2718
    147  CB        10.3980  138.0970   13.5910 C.3   118  VAL118      0.0266
    148  CG1       10.2270  139.4250   14.3280 C.3   118  VAL118      0.0020
    149  CG2        9.6750  136.9620   14.2890 C.3   118  VAL118      0.0020
    150  N          8.5270  139.9030   11.0830 N.am  119  SER119     -0.1952
    151  CA         7.3120  140.6880   10.9720 C.3   119  SER119      0.1924
    152  C          6.1840  139.8490   10.3720 C.2   119  SER119      0.2314
    153  O          6.4180  138.7930    9.7560 O.2   119  SER119     -0.2863
    154  CB         7.5460  141.9420   10.1290 C.3   119  SER119      0.2116
    155  OG         7.6850  141.6090    8.7640 O.3   119  SER119     -0.2180
@<TRIPOS>BOND
     1    76    75    2
     2    75    74    1
     3    74    73    1
     4    74    77    1
     5   155   154    1
     6    81    80    1
     7    77    78    1
     8    78    79    1
     9   153   152    2
    10    39    37   ar
    11   154   151    1
    12   152   151    1
    13   141   140   ar
    14    80    79    1
    15   142   140   ar
    16    37    38   ar
    17    37    36    1
    18   151   150    1
    19   140   139    1
    20   150   145   am
    21   143   144    1
    22   138   139    1
    23   138   135    1
    24   136   135    1
    25   136   137    2
    26   145   144    1
    27   145   146    2
    28    36    33    1
    29   144   147    1
    30   135   134    1
    31   125   124    1
    32    34    35    2
    33    34    33    1
    34    47    49   ar
    35    47    45   ar
    36    33    32    1
    37    18    17    1
    38    49    48   ar
    39   147   149    1
    40   147   148    1
    41   123   124    2
    42   123   122    1
    43   124   126    1
    44   134   129   am
    45    19    17    1
    46    45    44    1
    47    45    46   ar
    48   130   129    2
    49    17    14    1
    50    44    41    1
    51    48    46   ar
    52    32    22   am
    53   122   121    1
    54   129   128    1
    55    62    63   ar
    56    62    60   ar
    57    63    61   ar
    58    22    23    2
    59    22    21    1
    60    41    40    1
    61    41    42    1
    62    14    15    1
    63    14    13    1
    64   120   121    1
    65   120   117    1
    66   128   127    1
    67   128   131    1
    68    15    16    2
    69    15    20   am
    70    60    59   ar
    71    20    21    1
    72   127   118   am
    73   133   131    1
    74    13    11   am
    75    99    97   ar
    76    21    24    1
    77    98    97   ar
    78   131   132    1
    79    42    43    2
    80   118   117    1
    81   118   119    2
    82    61    59   ar
    83    97    96    1
    84   117   116    1
    85    50    51    1
    86    59    58    1
    87    51    52    1
    88    11    12    2
    89    11    10    1
    90    90    91   ar
    91    90    88   ar
    92   116   109   am
    93    54    52   am
    94    54    55    1
    95    24    25    1
    96    96    93    1
    97    52    53    2
    98    10     9    1
    99    58    55    1
   100    91    89   ar
   101    55    56    1
   102    88    87   ar
   103    25    26   ar
   104    25    27   ar
   105    94    95    2
   106    94    93    1
   107   109   110    2
   108   109   108    1
   109    26    28   ar
   110    93    92    1
   111    27    29   ar
   112     9     3   am
   113    89    87   ar
   114    92    84   am
   115    87    86    1
   116   108   111    1
   117   108   107    1
   118    28    30   ar
   119    56    57    2
   120     4     3    2
   121   111   112    1
   122   112   113    1
   123    29    30   ar
   124     3     2    1
   125   103   102    2
   126    30    31    1
   127     8     6   ar
   128     7     6   ar
   129    84    85    2
   130    84    83    1
   131     6     5    1
   132    68    69    1
   133    68    65    1
   134   107   102   am
   135    86    83    1
   136   115   113   am
   137   102   101    1
   138    69    70    1
   139   113   114    2
   140     5     2    1
   141     2     1    1
   142    83    82    1
   143    64    65    1
   144    71    70    2
   145   105   104    1
   146    70    72   am
   147    65    66    1
   148   101   100    1
   149   101   104    1
   150   104   106    1
   151    66    67    2
