@<TRIPOS>MOLECULE
tmp/4zcqA00.pdb
 93 91 0 0 0
SMALL
GASTEIGER

@<TRIPOS>ATOM
      1  N         19.2010 -119.4010  142.2990 N.3     8  ASP8       -0.1225
      2  CA        20.2370 -119.7170  141.3370 C.3     8  ASP8        0.1805
      3  C         19.8960 -119.1020  140.0000 C.2     8  ASP8        0.2598
      4  O         18.7740 -118.6430  139.7770 O.2     8  ASP8       -0.2718
      5  CB        20.4630 -121.2290  141.2170 C.3     8  ASP8        0.1424
      6  CG        19.2220 -122.0000  140.7520 C.2     8  ASP8        0.3668
      7  OD1       18.2640 -121.4090  140.2020 O.co2   8  ASP8       -0.2456
      8  OD2       19.2300 -123.2310  140.9340 O.co2   8  ASP8       -0.2456
      9  N         20.8880 -119.0460  139.1250 N.am    9  GLY9       -0.1942
     10  CA        20.6890 -118.4300  137.8310 C.3     9  GLY9        0.2014
     11  C         21.9850 -118.3360  137.0670 C.2     9  GLY9        0.2638
     12  O         23.0560 -118.6780  137.5810 O.2     9  GLY9       -0.2714
     13  N         21.8840 -117.8610  135.8340 N.am   10  VAL10      -0.1977
     14  CA        23.0550 -117.6080  135.0090 C.3    10  VAL10       0.1596
     15  C         23.6850 -116.2730  135.3660 C.2    10  VAL10       0.2287
     16  O         24.9020 -116.1650  135.4520 O.2    10  VAL10      -0.2864
     17  CB        22.6830 -117.6130  133.5140 C.3    10  VAL10       0.0276
     18  CG1       23.9270 -117.3730  132.6540 C.3    10  VAL10       0.0022
     19  CG2       22.0260 -118.9290  133.1530 C.3    10  VAL10       0.0022
     20  N         25.4970 -120.5110  137.6700 N.3    39  THR39      -0.1218
     21  CA        25.6150 -121.7590  136.9000 C.3    39  THR39       0.1862
     22  C         26.9050 -121.8120  136.0560 C.2    39  THR39       0.2287
     23  O         27.4140 -120.7810  135.6200 O.2    39  THR39      -0.2866
     24  CB        24.4140 -121.9440  135.9750 C.3    39  THR39       0.1770
     25  OG1       24.2760 -120.7860  135.1470 O.3    39  THR39      -0.2211
     26  CG2       23.1390 -122.1220  136.7940 C.3    39  THR39       0.0375
     27  N         20.7980 -124.4410  128.2540 N.3    48  LYS48      -0.1245
     28  CA        20.0310 -123.2010  128.1290 C.3    48  LYS48       0.1561
     29  C         20.3360 -122.4050  126.8670 C.2    48  LYS48       0.2260
     30  O         19.4270 -121.8860  126.2200 O.2    48  LYS48      -0.2867
     31  CB        20.2550 -122.3140  129.3590 C.3    48  LYS48       0.0271
     32  CG        19.3940 -121.1290  129.3300 C.3    48  LYS48       0.0035
     33  CD        19.1290 -120.5780  130.7340 C.3    48  LYS48       0.0206
     34  CE        18.5470 -119.1650  130.6440 C.3    48  LYS48       0.1093
     35  NZ        19.4950 -118.1300  130.0980 N.3    48  LYS48      -0.1314
     36  N         23.3980 -127.6140  138.5540 N.3    77  TRP77      -0.1227
     37  CA        22.3430 -127.1930  137.6510 C.3    77  TRP77       0.1737
     38  C         20.9720 -127.4930  138.2410 C.2    77  TRP77       0.2595
     39  O         20.0380 -126.7060  138.0990 O.2    77  TRP77      -0.2718
     40  CB        22.4820 -127.8710  136.2940 C.3    77  TRP77       0.0564
     41  CG        21.5180 -127.3400  135.3050 C.ar   77  TRP77       0.0003
     42  CD1       20.3580 -127.9290  134.8810 C.ar   77  TRP77       0.0946
     43  CD2       21.6100 -126.0910  134.6180 C.ar   77  TRP77       0.0152
     44  NE1       19.7260 -127.1190  133.9660 N.ar   77  TRP77      -0.2442
     45  CE2       20.4770 -125.9860  133.7850 C.ar   77  TRP77       0.0810
     46  CE3       22.5480 -125.0550  134.6170 C.ar   77  TRP77       0.0012
     47  CZ2       20.2570 -124.8840  132.9670 C.ar   77  TRP77       0.0191
     48  CZ3       22.3260 -123.9680  133.8110 C.ar   77  TRP77       0.0001
     49  CH2       21.1900 -123.8880  132.9920 C.ar   77  TRP77       0.0015
     50  N         20.8660 -128.6360  138.9060 N.am   78  VAL78      -0.1966
     51  CA        19.6070 -129.0560  139.4990 C.3    78  VAL78       0.1727
     52  C         19.6920 -129.0950  141.0170 C.2    78  VAL78       0.2616
     53  O         20.5900 -129.7220  141.5990 O.2    78  VAL78      -0.2715
     54  CB        19.1700 -130.4420  138.9830 C.3    78  VAL78       0.0290
     55  CG1       17.7670 -130.7930  139.5110 C.3    78  VAL78       0.0023
     56  CG2       19.2030 -130.4710  137.4570 C.3    78  VAL78       0.0023
     57  N         18.7450 -128.4120  141.6500 N.am   79  VAL79      -0.1977
     58  CA        18.6250 -128.4010  143.0980 C.3    79  VAL79       0.1596
     59  C         18.1390 -129.7580  143.6160 C.2    79  VAL79       0.2287
     60  O         17.2030 -130.3310  143.0700 O.2    79  VAL79      -0.2864
     61  CB        17.6590 -127.2960  143.5540 C.3    79  VAL79       0.0276
     62  CG1       17.4940 -127.3160  145.0690 C.3    79  VAL79       0.0022
     63  CG2       18.1420 -125.9280  143.0710 C.3    79  VAL79       0.0022
     64  N         12.5440 -118.6300  143.1040 N.3    94  HIS94      -0.1241
     65  CA        12.6780 -118.6650  141.6470 C.3    94  HIS94       0.1621
     66  C         11.5250 -117.9540  140.9510 C.2    94  HIS94       0.2264
     67  O         10.4930 -117.7000  141.5660 O.2    94  HIS94      -0.2867
     68  CB        12.7900 -120.1100  141.1420 C.3    94  HIS94       0.0745
     69  CG        13.7850 -120.2740  140.0340 C.ar   94  HIS94       0.0817
     70  ND1       13.4320 -120.2220  138.7020 N.ar   94  HIS94      -0.2268
     71  CD2       15.1270 -120.4580  140.0610 C.ar   94  HIS94       0.1154
     72  CE1       14.5120 -120.3790  137.9570 C.ar   94  HIS94       0.1986
     73  NE2       15.5550 -120.5220  138.7560 N.ar   94  HIS94      -0.2212
     74  N          9.7270 -128.8070  137.5770 N.3    98  ILE98      -0.1231
     75  CA        10.9880 -129.0780  138.2660 C.3    98  ILE98       0.1692
     76  C         10.9030 -128.6920  139.7430 C.2    98  ILE98       0.2592
     77  O         11.5220 -129.3190  140.5990 O.2    98  ILE98      -0.2718
     78  CB        12.1590 -128.3170  137.6010 C.3    98  ILE98       0.0266
     79  CG1       12.3320 -128.7540  136.1320 C.3    98  ILE98       0.0019
     80  CG2       13.4510 -128.4490  138.3860 C.3    98  ILE98       0.0020
     81  CD1       12.8860 -130.1640  135.9960 C.3    98  ILE98       0.0001
     82  N         10.1100 -127.6680  140.0390 N.am   99  TYR99      -0.1976
     83  CA        10.0370 -127.1280  141.3940 C.3    99  TYR99       0.1639
     84  C          8.8480 -127.6610  142.2120 C.2    99  TYR99       0.2290
     85  O          8.5870 -127.1890  143.3180 O.2    99  TYR99      -0.2864
     86  CB         9.9960 -125.6020  141.3230 C.3    99  TYR99       0.0560
     87  CG        11.2710 -124.9960  140.7550 C.ar   99  TYR99      -0.0198
     88  CD1       12.5150 -125.5300  141.0710 C.ar   99  TYR99      -0.0009
     89  CD2       11.2300 -123.8960  139.8990 C.ar   99  TYR99      -0.0009
     90  CE1       13.6870 -124.9840  140.5570 C.ar   99  TYR99       0.0417
     91  CE2       12.3990 -123.3450  139.3750 C.ar   99  TYR99       0.0417
     92  CZ        13.6210 -123.8950  139.7120 C.ar   99  TYR99       0.1957
     93  OH        14.7860 -123.3570  139.2070 O.3    99  TYR99      -0.2866
@<TRIPOS>BOND
     1    30    29    2
     2    29    28    1
     3    28    27    1
     4    28    31    1
     5    32    31    1
     6    32    33    1
     7    35    34    1
     8    34    33    1
     9    18    17    1
    10    47    49   ar
    11    47    45   ar
    12    49    48   ar
    13    19    17    1
    14    17    14    1
    15    45    44   ar
    16    45    43   ar
    17    48    46   ar
    18    44    42   ar
    19    46    43   ar
    20    43    41   ar
    21    42    41   ar
    22    14    15    1
    23    14    13    1
    24    25    24    1
    25    41    40    1
    26    15    16    2
    27    23    22    2
    28    13    11   am
    29    24    26    1
    30    24    21    1
    31    81    79    1
    32    22    21    1
    33    79    78    1
    34    40    37    1
    35    21    20    1
    36    11    12    2
    37    11    10    1
    38    56    54    1
    39    74    75    1
    40    78    75    1
    41    78    80    1
    42    37    38    1
    43    37    36    1
    44    10     9    1
    45    72    70   ar
    46    72    73   ar
    47    39    38    2
    48    38    50   am
    49    75    76    1
    50    70    69   ar
    51    73    71   ar
    52    50    51    1
    53    54    51    1
    54    54    55    1
    55     9     3   am
    56    93    92    1
    57    91    92   ar
    58    91    89   ar
    59    51    52    1
    60    92    90   ar
    61    76    82   am
    62    76    77    2
    63     4     3    2
    64    89    87   ar
    65     3     2    1
    66    69    71   ar
    67    69    68    1
    68    82    83    1
    69     7     6   ar
    70    90    88   ar
    71     6     8   ar
    72     6     5    1
    73    87    88   ar
    74    87    86    1
    75    66    67    2
    76    66    65    1
    77    52    53    2
    78    52    57   am
    79    68    65    1
    80     5     2    1
    81    86    83    1
    82     2     1    1
    83    83    84    1
    84    65    64    1
    85    57    58    1
    86    84    85    2
    87    60    59    2
    88    63    61    1
    89    58    61    1
    90    58    59    1
    91    61    62    1
