@<TRIPOS>MOLECULE
tmp/4zcrA00.pdb
 136 134 0 0 0
SMALL
GASTEIGER

@<TRIPOS>ATOM
      1  N         19.2770  -50.0240  258.8960 N.3     8  ASP8       -0.1225
      2  CA        20.2970  -50.3860  257.9180 C.3     8  ASP8        0.1805
      3  C         19.9790  -49.7630  256.5800 C.2     8  ASP8        0.2598
      4  O         18.8640  -49.2980  256.3360 O.2     8  ASP8       -0.2718
      5  CB        20.5250  -51.9020  257.8190 C.3     8  ASP8        0.1424
      6  CG        19.3090  -52.6830  257.3310 C.2     8  ASP8        0.3668
      7  OD1       18.3230  -52.0870  256.8440 O.co2   8  ASP8       -0.2456
      8  OD2       19.3550  -53.9290  257.4370 O.co2   8  ASP8       -0.2456
      9  N         20.9800  -49.7300  255.7250 N.am    9  GLY9       -0.1942
     10  CA        20.8120  -49.1180  254.4330 C.3     9  GLY9        0.2014
     11  C         22.1060  -49.0230  253.6860 C.2     9  GLY9        0.2639
     12  O         23.1680  -49.3840  254.1840 O.2     9  GLY9       -0.2714
     13  N         22.0000  -48.5260  252.4700 N.am   10  VAL10      -0.1963
     14  CA        23.1580  -48.3040  251.6380 C.3    10  VAL10       0.1727
     15  C         23.7850  -46.9700  252.0240 C.2    10  VAL10       0.2616
     16  O         25.0000  -46.8660  252.1030 O.2    10  VAL10      -0.2715
     17  CB        22.7970  -48.3070  250.1320 C.3    10  VAL10       0.0290
     18  CG1       24.0570  -48.1370  249.3010 C.3    10  VAL10       0.0023
     19  CG2       22.0950  -49.6090  249.7510 C.3    10  VAL10       0.0023
     20  N         22.9490  -45.9550  252.2320 N.am   11  TYR11      -0.1974
     21  CA        23.4170  -44.5980  252.5490 C.3    11  TYR11       0.1639
     22  C         24.3820  -44.0590  251.4880 C.2    11  TYR11       0.2290
     23  O         25.4010  -43.4370  251.7960 O.2    11  TYR11      -0.2864
     24  CB        24.0050  -44.5600  253.9790 C.3    11  TYR11       0.0560
     25  CG        22.9960  -45.0240  255.0010 C.ar   11  TYR11      -0.0198
     26  CD1       21.8970  -44.2240  255.3440 C.ar   11  TYR11      -0.0009
     27  CD2       23.1140  -46.2630  255.6230 C.ar   11  TYR11      -0.0009
     28  CE1       20.9640  -44.6520  256.2760 C.ar   11  TYR11       0.0417
     29  CE2       22.1840  -46.6890  256.5470 C.ar   11  TYR11       0.0417
     30  CZ        21.1140  -45.8960  256.8690 C.ar   11  TYR11       0.1957
     31  OH        20.2090  -46.3560  257.8060 O.3    11  TYR11      -0.2866
     32  N         17.6670  -39.3380  253.8070 N.3    18  HIS18      -0.1241
     33  CA        18.3040  -40.2940  254.7270 C.3    18  HIS18       0.1621
     34  C         18.3800  -39.6980  256.1270 C.2    18  HIS18       0.2264
     35  O         18.1030  -40.3670  257.1180 O.2    18  HIS18      -0.2867
     36  CB        19.7300  -40.6070  254.2970 C.3    18  HIS18       0.0745
     37  CG        19.8350  -41.3930  253.0320 C.ar   18  HIS18       0.0817
     38  ND1       20.3690  -40.8740  251.8760 N.ar   18  HIS18      -0.2268
     39  CD2       19.5260  -42.6800  252.7540 C.ar   18  HIS18       0.1154
     40  CE1       20.3630  -41.7960  250.9320 C.ar   18  HIS18       0.1986
     41  NE2       19.8550  -42.9010  251.4390 N.ar   18  HIS18      -0.2212
     42  N         15.0920  -39.7960  258.0030 N.3    21  GLN21      -0.1245
     43  CA        14.8020  -41.1620  258.4600 C.3    21  GLN21       0.1566
     44  C         15.6020  -41.5480  259.6920 C.2    21  GLN21       0.2260
     45  O         15.0700  -42.1950  260.5840 O.2    21  GLN21      -0.2867
     46  CB        15.1030  -42.1850  257.3830 C.3    21  GLN21       0.0367
     47  CG        13.9520  -42.4670  256.4670 C.3    21  GLN21       0.0905
     48  CD        14.2250  -43.6860  255.6170 C.2    21  GLN21       0.2608
     49  OE1       14.9380  -43.5960  254.6210 O.2    21  GLN21      -0.2717
     50  NE2       13.6790  -44.8350  256.0180 N.am   21  GLN21      -0.0878
     51  N         25.6050  -51.2190  254.2600 N.3    39  THR39      -0.1218
     52  CA        25.7330  -52.4430  253.4730 C.3    39  THR39       0.1862
     53  C         27.0460  -52.4700  252.6660 C.2    39  THR39       0.2287
     54  O         27.5540  -51.4330  252.2240 O.2    39  THR39      -0.2866
     55  CB        24.5420  -52.6230  252.5190 C.3    39  THR39       0.1770
     56  OG1       24.4130  -51.4590  251.6960 O.3    39  THR39      -0.2211
     57  CG2       23.2550  -52.8470  253.3000 C.3    39  THR39       0.0375
     58  N         20.9990  -55.0010  244.7590 N.3    48  LYS48      -0.1245
     59  CA        20.2870  -53.7360  244.4830 C.3    48  LYS48       0.1561
     60  C         20.6350  -53.1260  243.1370 C.2    48  LYS48       0.2260
     61  O         19.7630  -52.9580  242.2890 O.2    48  LYS48      -0.2867
     62  CB        20.5030  -52.7040  245.6110 C.3    48  LYS48       0.0271
     63  CG        19.2330  -52.3890  246.3930 C.3    48  LYS48       0.0035
     64  CD        19.3370  -51.0990  247.1920 C.3    48  LYS48       0.0206
     65  CE        17.9700  -50.6190  247.6520 C.3    48  LYS48       0.1093
     66  NZ        17.2190  -51.6430  248.4400 N.3    48  LYS48      -0.1314
     67  N         25.3240  -57.0100  257.8600 N.3    76  PRO76      -0.2102
     68  CA        24.7290  -58.0860  257.0440 C.3    76  PRO76       0.1504
     69  C         23.6170  -57.5750  256.1450 C.2    76  PRO76       0.2575
     70  O         22.9060  -56.6230  256.5100 O.2    76  PRO76      -0.2718
     71  CB        24.1400  -59.0400  258.0870 C.3    76  PRO76       0.0282
     72  CG        24.9140  -58.7650  259.3240 C.3    76  PRO76       0.0208
     73  CD        25.2010  -57.2870  259.2990 C.3    76  PRO76       0.0893
     74  N         23.4750  -58.1940  254.9770 N.am   77  TRP77      -0.1977
     75  CA        22.4130  -57.8460  254.0550 C.3    77  TRP77       0.1640
     76  C         21.0260  -58.1430  254.6540 C.2    77  TRP77       0.2290
     77  O         20.1000  -57.3620  254.4810 O.2    77  TRP77      -0.2864
     78  CB        22.5830  -58.5630  252.7050 C.3    77  TRP77       0.0576
     79  CG        21.6200  -58.0170  251.7150 C.ar   77  TRP77       0.0006
     80  CD1       20.4260  -58.5670  251.3360 C.ar   77  TRP77       0.0946
     81  CD2       21.7220  -56.7620  251.0380 C.ar   77  TRP77       0.0152
     82  NE1       19.7910  -57.7400  250.4390 N.ar   77  TRP77      -0.2442
     83  CE2       20.5680  -56.6250  250.2370 C.ar   77  TRP77       0.0810
     84  CE3       22.6920  -55.7490  251.0120 C.ar   77  TRP77       0.0012
     85  CZ2       20.3520  -55.5100  249.4200 C.ar   77  TRP77       0.0191
     86  CZ3       22.4760  -54.6370  250.2120 C.ar   77  TRP77       0.0001
     87  CH2       21.3120  -54.5270  249.4210 C.ar   77  TRP77       0.0015
     88  N         12.8380  -49.1880  259.6220 N.3    94  HIS94      -0.1226
     89  CA        13.0530  -49.1780  258.1770 C.3    94  HIS94       0.1752
     90  C         11.8080  -48.6900  257.4840 C.2    94  HIS94       0.2596
     91  O         10.7200  -48.6540  258.0750 O.2    94  HIS94      -0.2718
     92  CB        13.4490  -50.5760  257.6660 C.3    94  HIS94       0.0759
     93  CG        14.3810  -50.5650  256.4860 C.ar   94  HIS94       0.0818
     94  ND1       13.9660  -50.8620  255.2050 N.ar   94  HIS94      -0.2268
     95  CD2       15.7130  -50.3140  256.3970 C.ar   94  HIS94       0.1154
     96  CE1       14.9970  -50.7880  254.3810 C.ar   94  HIS94       0.1986
     97  NE2       16.0690  -50.4580  255.0800 N.ar   94  HIS94      -0.2212
     98  N         11.9870  -48.2620  256.2410 N.am   95  ASP95      -0.1974
     99  CA        10.8520  -47.9090  255.3950 C.3    95  ASP95       0.1709
    100  C         10.0570  -49.1820  255.0860 C.2    95  ASP95       0.2293
    101  O         10.6220  -50.2850  255.0280 O.2    95  ASP95      -0.2864
    102  CB        11.2900  -47.1550  254.1260 C.3    95  ASP95       0.1436
    103  CG        12.3050  -47.9210  253.3020 C.2    95  ASP95       0.3671
    104  OD1       13.3510  -48.3050  253.8590 O.co2  95  ASP95      -0.2456
    105  OD2       12.0650  -48.1250  252.0970 O.co2  95  ASP95      -0.2456
    106  N          9.9730  -59.1210  253.8170 N.3    98  ILE98      -0.1231
    107  CA        11.1350  -59.5660  254.6160 C.3    98  ILE98       0.1692
    108  C         11.1330  -59.0980  256.0910 C.2    98  ILE98       0.2592
    109  O         11.8730  -59.6430  256.9070 O.2    98  ILE98      -0.2718
    110  CB        12.4870  -59.2010  253.9480 C.3    98  ILE98       0.0266
    111  CG1       12.5600  -57.7120  253.5730 C.3    98  ILE98       0.0019
    112  CG2       12.7080  -60.0700  252.7190 C.3    98  ILE98       0.0020
    113  CD1       13.9710  -57.2020  253.3730 C.3    98  ILE98       0.0001
    114  N         10.3110  -58.0950  256.4170 N.am   99  TYR99      -0.1976
    115  CA        10.1460  -57.6060  257.7920 C.3    99  TYR99       0.1639
    116  C          8.9490  -58.1990  258.5530 C.2    99  TYR99       0.2290
    117  O          8.7070  -57.8150  259.6870 O.2    99  TYR99      -0.2864
    118  CB        10.0540  -56.0710  257.7820 C.3    99  TYR99       0.0560
    119  CG        11.2540  -55.4080  257.1370 C.ar   99  TYR99      -0.0198
    120  CD1       12.5460  -55.6840  257.5860 C.ar   99  TYR99      -0.0009
    121  CD2       11.1030  -54.5070  256.0720 C.ar   99  TYR99      -0.0009
    122  CE1       13.6570  -55.0930  256.9960 C.ar   99  TYR99       0.0417
    123  CE2       12.2100  -53.9100  255.4750 C.ar   99  TYR99       0.0417
    124  CZ        13.4860  -54.2100  255.9400 C.ar   99  TYR99       0.1957
    125  OH        14.5980  -53.6370  255.3720 O.3    99  TYR99      -0.2866
    126  N         10.3020  -42.3580  253.9150 N.3   113  ARG113     -0.1245
    127  CA        11.1910  -41.6960  252.9570 C.3   113  ARG113      0.1563
    128  C         10.7230  -40.2810  252.6570 C.2   113  ARG113      0.2260
    129  O          9.6070  -39.8870  253.0150 O.2   113  ARG113     -0.2867
    130  CB        11.2380  -42.4620  251.6430 C.3   113  ARG113      0.0307
    131  CG        11.7930  -43.8620  251.7430 C.3   113  ARG113      0.0489
    132  CD        11.8360  -44.4730  250.3580 C.3   113  ARG113      0.2205
    133  NE        12.3300  -45.8440  250.3760 N.pl3 113  ARG113     -0.0865
    134  CZ        12.4020  -46.6400  249.3080 C.cat 113  ARG113      0.5346
    135  NH1       12.8670  -47.8760  249.4470 N.pl3 113  ARG113      0.1354
    136  NH2       12.0140  -46.2170  248.1030 N.pl3 113  ARG113      0.1354
@<TRIPOS>BOND
     1    61    60    2
     2    60    59    1
     3    59    58    1
     4    59    62    1
     5    62    63    1
     6    63    64    1
     7    64    65    1
     8    65    66    1
     9   136   134    1
    10    18    17    1
    11   134   135    1
    12   134   133    2
    13    85    87   ar
    14    85    83   ar
    15    87    86   ar
    16    19    17    1
    17    17    14    1
    18    86    84   ar
    19    83    82   ar
    20    83    81   ar
    21   132   133    1
    22   132   131    1
    23    82    80   ar
    24    40    41   ar
    25    40    38   ar
    26    84    81   ar
    27    81    79   ar
    28    80    79   ar
    29    41    39   ar
    30    22    23    2
    31    22    21    1
    32    14    15    1
    33    14    13    1
    34   130   131    1
    35   130   127    1
    36    56    55    1
    37    79    78    1
    38    38    37   ar
    39    15    16    2
    40    15    20   am
    41   105   103   ar
    42    54    53    2
    43    20    21    1
    44    13    11   am
    45    55    57    1
    46    55    52    1
    47    21    24    1
    48   128   127    1
    49   128   129    2
    50    53    52    1
    51    78    75    1
    52   112   110    1
    53    39    37   ar
    54   127   126    1
    55    37    36    1
    56   103   104   ar
    57   103   102    1
    58   113   111    1
    59    52    51    1
    60   111   110    1
    61    11    12    2
    62    11    10    1
    63    32    33    1
    64   106   107    1
    65   110   107    1
    66    24    25    1
    67    75    76    1
    68    75    74    1
    69   102    99    1
    70    36    33    1
    71    96    97   ar
    72    96    94   ar
    73    10     9    1
    74    77    76    2
    75   107   108    1
    76    49    48    2
    77    33    34    1
    78    74    69   am
    79    25    26   ar
    80    25    27   ar
    81   101   100    2
    82    97    95   ar
    83   100    99    1
    84    94    93   ar
    85    26    28   ar
    86   125   124    1
    87    99    98    1
    88   123   124   ar
    89   123   121   ar
    90    48    50   am
    91    48    47    1
    92    27    29   ar
    93     9     3   am
    94   124   122   ar
    95   121   119   ar
    96   108   114   am
    97   108   109    2
    98    34    35    2
    99    69    70    2
   100    69    68    1
   101    98    90   am
   102    28    30   ar
   103     4     3    2
   104    95    93   ar
   105   114   115    1
   106    47    46    1
   107    93    92    1
   108    29    30   ar
   109     3     2    1
   110     7     6   ar
   111    30    31    1
   112   122   120   ar
   113    68    67    1
   114    68    71    1
   115   119   120   ar
   116   119   118    1
   117     6     8   ar
   118     6     5    1
   119    46    43    1
   120    90    91    2
   121    90    89    1
   122    92    89    1
   123   118   115    1
   124   115   116    1
   125     5     2    1
   126    67    73    1
   127     2     1    1
   128    42    43    1
   129    71    72    1
   130    89    88    1
   131    43    44    1
   132   116   117    2
   133    73    72    1
   134    44    45    2
