@<TRIPOS>MOLECULE
tmp/4zcsC00.pdb
 208 205 0 0 0
SMALL
GASTEIGER

@<TRIPOS>ATOM
      1  N         33.2620   50.5080   40.3860 N.3     8  ASP8       -0.1225
      2  CA        34.4150   51.2490   40.8160 C.3     8  ASP8        0.1805
      3  C         35.6530   50.5820   40.2330 C.2     8  ASP8        0.2598
      4  O         35.6420   49.4060   39.9250 O.2     8  ASP8       -0.2718
      5  CB        34.5180   51.3800   42.3640 C.3     8  ASP8        0.1424
      6  CG        34.3860   50.0480   43.1120 C.2     8  ASP8        0.3668
      7  OD1       34.1090   48.9850   42.4290 O.co2   8  ASP8       -0.2456
      8  OD2       34.5620   50.0600   44.4130 O.co2   8  ASP8       -0.2456
      9  N         36.7080   51.3640   40.0970 N.am    9  GLY9       -0.1942
     10  CA        37.9530   50.9130   39.4800 C.3     9  GLY9        0.2014
     11  C         38.9460   52.0420   39.3540 C.2     9  GLY9        0.2639
     12  O         38.5910   53.2350   39.5140 O.2     9  GLY9       -0.2714
     13  N         40.1850   51.6550   39.0650 N.am   10  VAL10      -0.1963
     14  CA        41.2390   52.6000   38.6700 C.3    10  VAL10       0.1727
     15  C         40.9450   53.0790   37.2430 C.2    10  VAL10       0.2616
     16  O         41.0300   54.2610   36.9730 O.2    10  VAL10      -0.2715
     17  CB        42.6350   51.9800   38.7010 C.3    10  VAL10       0.0290
     18  CG1       43.7400   53.0320   38.5250 C.3    10  VAL10       0.0023
     19  CG2       42.8750   51.1990   39.9730 C.3    10  VAL10       0.0023
     20  N         40.5930   52.1730   36.3400 N.am   11  TYR11      -0.1960
     21  CA        40.3820   52.4920   34.9270 C.3    11  TYR11       0.1771
     22  C         41.6110   53.2240   34.2980 C.2    11  TYR11       0.2619
     23  O         41.4850   54.2220   33.5750 O.2    11  TYR11      -0.2715
     24  CB        39.0510   53.2510   34.7280 C.3    11  TYR11       0.0574
     25  CG        37.8380   52.4400   35.1240 C.ar   11  TYR11      -0.0198
     26  CD1       37.4270   51.3440   34.3700 C.ar   11  TYR11      -0.0009
     27  CD2       37.1210   52.7330   36.2880 C.ar   11  TYR11      -0.0009
     28  CE1       36.3270   50.5900   34.7590 C.ar   11  TYR11       0.0417
     29  CE2       36.0610   51.9600   36.6980 C.ar   11  TYR11       0.0417
     30  CZ        35.6440   50.9100   35.9230 C.ar   11  TYR11       0.1957
     31  OH        34.5460   50.1560   36.3210 O.3    11  TYR11      -0.2866
     32  N         42.7940   52.7030   34.6300 N.am   12  ASP12      -0.1971
     33  CA        44.0540   53.0840   34.0120 C.3    12  ASP12       0.1709
     34  C         44.1190   52.5880   32.5880 C.2    12  ASP12       0.2293
     35  O         43.8210   51.4190   32.3270 O.2    12  ASP12      -0.2864
     36  CB        45.2340   52.4790   34.7810 C.3    12  ASP12       0.1436
     37  CG        46.4700   53.4380   34.8490 C.2    12  ASP12       0.3671
     38  OD1       46.4200   54.5660   34.2450 O.co2  12  ASP12      -0.2456
     39  OD2       47.4720   53.0440   35.5320 O.co2  12  ASP12      -0.2456
     40  N         40.8070   50.3380   28.2210 N.3    15  HIS15      -0.1241
     41  CA        40.8140   49.4400   27.1060 C.3    15  HIS15       0.1621
     42  C         39.4890   48.6570   27.0000 C.2    15  HIS15       0.2264
     43  O         38.6210   48.8810   27.7900 O.2    15  HIS15      -0.2867
     44  CB        41.9870   48.4780   27.2090 C.3    15  HIS15       0.0745
     45  CG        42.0690   47.7510   28.5090 C.ar   15  HIS15       0.0817
     46  ND1       41.1990   46.7500   28.8610 N.ar   15  HIS15      -0.2268
     47  CD2       42.9430   47.8600   29.5310 C.ar   15  HIS15       0.1154
     48  CE1       41.5560   46.2520   30.0260 C.ar   15  HIS15       0.1986
     49  NE2       42.6140   46.9140   30.4520 N.ar   15  HIS15      -0.2212
     50  N         38.5850   45.6660   27.6360 N.3    17  GLY17      -0.1210
     51  CA        38.2300   44.9810   28.8860 C.3    17  GLY17       0.1956
     52  C         37.3630   45.8250   29.8190 C.2    17  GLY17       0.2611
     53  O         36.2630   45.3810   30.2200 O.2    17  GLY17      -0.2717
     54  N         37.8590   47.0280   30.1460 N.am   18  HIS18      -0.1975
     55  CA        37.0990   47.9850   30.9310 C.3    18  HIS18       0.1656
     56  C         35.8110   48.3600   30.2580 C.2    18  HIS18       0.2291
     57  O         34.7860   48.4440   30.9100 O.2    18  HIS18      -0.2864
     58  CB        37.8510   49.2470   31.2160 C.3    18  HIS18       0.0771
     59  CG        39.1660   49.0500   31.8910 C.ar   18  HIS18       0.0820
     60  ND1       40.3450   49.4740   31.3270 N.ar   18  HIS18      -0.2267
     61  CD2       39.4980   48.5570   33.1060 C.ar   18  HIS18       0.1154
     62  CE1       41.3570   49.2140   32.1390 C.ar   18  HIS18       0.1986
     63  NE2       40.8760   48.6600   33.2290 N.ar   18  HIS18      -0.2212
     64  N         33.2580   45.6680   30.5490 N.3    21  GLN21      -0.1245
     65  CA        32.7920   45.5640   31.9320 C.3    21  GLN21       0.1566
     66  C         31.7460   46.6450   32.2450 C.2    21  GLN21       0.2260
     67  O         30.7540   46.3590   32.9120 O.2    21  GLN21      -0.2867
     68  CB        33.9140   45.6720   32.8970 C.3    21  GLN21       0.0367
     69  CG        33.5360   45.3830   34.3460 C.3    21  GLN21       0.0905
     70  CD        33.2460   46.6270   35.1990 C.2    21  GLN21       0.2608
     71  OE1       33.6860   47.7660   34.9110 O.2    21  GLN21      -0.2717
     72  NE2       32.4590   46.4050   36.2610 N.am   21  GLN21      -0.0878
     73  N         39.2890   55.6820   41.2190 N.3    39  THR39      -0.1218
     74  CA        40.1470   55.8900   42.3870 C.3    39  THR39       0.1862
     75  C         41.2040   57.0420   42.2070 C.2    39  THR39       0.2287
     76  O         41.5710   57.4450   41.0870 O.2    39  THR39      -0.2866
     77  CB        40.8700   54.6280   42.7510 C.3    39  THR39       0.1770
     78  OG1       41.6620   54.2300   41.6230 O.3    39  THR39      -0.2211
     79  CG2       39.8370   53.5450   43.1030 C.3    39  THR39       0.0375
     80  N         47.4850   49.2450   45.7660 N.3    48  LYS48      -0.1245
     81  CA        47.5250   48.3980   44.5570 C.3    48  LYS48       0.1561
     82  C         48.8920   48.4990   43.8810 C.2    48  LYS48       0.2260
     83  O         49.5960   47.5150   43.7780 O.2    48  LYS48      -0.2867
     84  CB        46.4440   48.8140   43.5560 C.3    48  LYS48       0.0271
     85  CG        46.3040   47.8530   42.3840 C.3    48  LYS48       0.0035
     86  CD        45.1930   48.2400   41.3820 C.3    48  LYS48       0.0206
     87  CE        45.1370   47.2000   40.2520 C.3    48  LYS48       0.1093
     88  NZ        44.0910   47.4280   39.2010 N.3    48  LYS48      -0.1314
     89  N         35.8020   56.8200   46.8770 N.3    76  PRO76      -0.2102
     90  CA        36.5100   56.0800   47.9140 C.3    76  PRO76       0.1504
     91  C         36.9900   54.6950   47.4630 C.2    76  PRO76       0.2575
     92  O         36.4350   54.1240   46.4880 O.2    76  PRO76      -0.2718
     93  CB        35.4260   55.8910   48.9930 C.3    76  PRO76       0.0282
     94  CG        34.2700   56.7610   48.5430 C.3    76  PRO76       0.0208
     95  CD        34.3540   56.7680   47.0790 C.3    76  PRO76       0.0893
     96  N         37.9420   54.1390   48.2270 N.am   77  TRP77      -0.1977
     97  CA        38.4650   52.8280   47.9530 C.3    77  TRP77       0.1640
     98  C         37.4730   51.7590   48.4070 C.2    77  TRP77       0.2290
     99  O         37.1990   50.7960   47.6840 O.2    77  TRP77      -0.2864
    100  CB        39.8170   52.6310   48.6510 C.3    77  TRP77       0.0576
    101  CG        40.6170   51.4700   48.1110 C.ar   77  TRP77       0.0006
    102  CD1       40.7470   50.2510   48.6690 C.ar   77  TRP77       0.0946
    103  CD2       41.4160   51.4560   46.9160 C.ar   77  TRP77       0.0152
    104  NE1       41.5950   49.4580   47.9070 N.ar   77  TRP77      -0.2442
    105  CE2       42.0030   50.1680   46.8150 C.ar   77  TRP77       0.0810
    106  CE3       41.7170   52.4090   45.9450 C.ar   77  TRP77       0.0012
    107  CZ2       42.8510   49.7930   45.7480 C.ar   77  TRP77       0.0191
    108  CZ3       42.5880   52.0380   44.8720 C.ar   77  TRP77       0.0001
    109  CH2       43.1460   50.7370   44.8090 C.ar   77  TRP77       0.0015
    110  N         31.3930   44.5480   39.7600 N.3    94  HIS94      -0.1226
    111  CA        32.8320   44.3310   39.6780 C.3    94  HIS94       0.1752
    112  C         32.9820   42.8250   39.4400 C.2    94  HIS94       0.2596
    113  O         31.9960   42.0520   39.6130 O.2    94  HIS94      -0.2718
    114  CB        33.4980   44.6910   41.0050 C.3    94  HIS94       0.0759
    115  CG        35.0020   44.7240   40.9920 C.ar   94  HIS94       0.0818
    116  ND1       35.7830   43.6500   41.3690 N.ar   94  HIS94      -0.2268
    117  CD2       35.8640   45.7350   40.7230 C.ar   94  HIS94       0.1154
    118  CE1       37.0560   43.9950   41.3270 C.ar   94  HIS94       0.1986
    119  NE2       37.1310   45.2580   40.9400 N.ar   94  HIS94      -0.2212
    120  N         34.1870   42.3820   39.0720 N.am   95  ASP95      -0.1974
    121  CA        34.4150   40.9820   38.9010 C.3    95  ASP95       0.1709
    122  C         34.3670   40.3120   40.2590 C.2    95  ASP95       0.2293
    123  O         34.6470   40.9620   41.2950 O.2    95  ASP95      -0.2864
    124  CB        35.7240   40.6540   38.1120 C.3    95  ASP95       0.1436
    125  CG        36.9760   41.1000   38.8020 C.2    95  ASP95       0.3671
    126  OD1       37.3300   40.5930   39.8700 O.co2  95  ASP95      -0.2456
    127  OD2       37.6360   42.0200   38.2780 O.co2  95  ASP95      -0.2456
    128  N         38.7230   40.8700   46.5940 N.3    99  TYR99      -0.1241
    129  CA        39.6100   42.0190   46.4820 C.3    99  TYR99       0.1605
    130  C         40.1070   42.3920   47.8550 C.2    99  TYR99       0.2264
    131  O         39.4360   43.0880   48.6340 O.2    99  TYR99      -0.2867
    132  CB        38.8730   43.2140   45.8610 C.3    99  TYR99       0.0534
    133  CG        39.8260   44.2130   45.2530 C.ar   99  TYR99      -0.0201
    134  CD1       40.5280   45.1190   46.0490 C.ar   99  TYR99      -0.0009
    135  CD2       40.0650   44.2160   43.8900 C.ar   99  TYR99      -0.0009
    136  CE1       41.4050   46.0070   45.4950 C.ar   99  TYR99       0.0417
    137  CE2       40.9390   45.1140   43.3390 C.ar   99  TYR99       0.0417
    138  CZ        41.6170   45.9910   44.1410 C.ar   99  TYR99       0.1957
    139  OH        42.4900   46.8680   43.5610 O.3    99  TYR99      -0.2866
    140  N         37.1270   43.2730   50.3720 N.3   107  ILE107     -0.1231
    141  CA        36.4680   44.5430   50.7200 C.3   107  ILE107      0.1692
    142  C         35.0710   44.6480   50.1940 C.2   107  ILE107      0.2592
    143  O         34.3510   45.5460   50.5440 O.2   107  ILE107     -0.2718
    144  CB        37.2990   45.7480   50.3020 C.3   107  ILE107      0.0266
    145  CG1       37.3350   45.8880   48.7730 C.3   107  ILE107      0.0019
    146  CG2       38.7030   45.5930   50.8960 C.3   107  ILE107      0.0020
    147  CD1       38.3130   46.9440   48.2770 C.3   107  ILE107      0.0001
    148  N         34.6680   43.7260   49.3480 N.am  108  TYR108     -0.1976
    149  CA        33.3150   43.6740   48.8700 C.3   108  TYR108      0.1639
    150  C         32.4300   42.6700   49.6870 C.2   108  TYR108      0.2290
    151  O         31.2370   42.4950   49.3640 O.2   108  TYR108     -0.2864
    152  CB        33.3240   43.2570   47.3960 C.3   108  TYR108      0.0560
    153  CG        33.7900   44.2700   46.4290 C.ar  108  TYR108     -0.0198
    154  CD1       33.0800   45.4370   46.2110 C.ar  108  TYR108     -0.0009
    155  CD2       34.9490   44.0600   45.7030 C.ar  108  TYR108     -0.0009
    156  CE1       33.5210   46.3850   45.2880 C.ar  108  TYR108      0.0417
    157  CE2       35.4010   44.9830   44.7890 C.ar  108  TYR108      0.0417
    158  CZ        34.6790   46.1200   44.5590 C.ar  108  TYR108      0.1957
    159  OH        35.1570   46.9770   43.6240 O.3   108  TYR108     -0.2866
    160  N         32.2200   40.0410   34.3790 N.3   121  GLN121     -0.1231
    161  CA        33.2600   39.1410   33.7940 C.3   121  GLN121      0.1698
    162  C         34.3850   39.9370   33.2390 C.2   121  GLN121      0.2592
    163  O         34.1710   40.9060   32.5000 O.2   121  GLN121     -0.2718
    164  CB        32.7440   38.3530   32.5590 C.3   121  GLN121      0.0381
    165  CG        32.7140   36.8510   32.7250 C.3   121  GLN121      0.0905
    166  CD        31.7500   36.5340   33.8050 C.2   121  GLN121      0.2608
    167  OE1       30.5500   36.6840   33.6210 O.2   121  GLN121     -0.2717
    168  NE2       32.2630   36.2190   34.9780 N.am  121  GLN121     -0.0878
    169  N         35.5810   39.4830   33.5530 N.am  122  ARG122     -0.1966
    170  CA        36.8030   39.9640   32.9580 C.3   122  ARG122      0.1729
    171  C         36.8530   39.4860   31.5020 C.2   122  ARG122      0.2617
    172  O         36.3410   38.4340   31.1800 O.2   122  ARG122     -0.2715
    173  CB        37.9830   39.4100   33.7530 C.3   122  ARG122      0.0348
    174  CG        38.0890   39.9090   35.1790 C.3   122  ARG122      0.0492
    175  CD        39.3860   39.4470   35.8550 C.3   122  ARG122      0.2205
    176  NE        40.5790   40.0770   35.2510 N.pl3 122  ARG122     -0.0865
    177  CZ        41.0180   41.3280   35.4950 C.cat 122  ARG122      0.5346
    178  NH1       40.4000   42.1520   36.3430 N.pl3 122  ARG122      0.1354
    179  NH2       42.0890   41.7720   34.8850 N.pl3 122  ARG122      0.1354
    180  N         37.3510   40.3190   30.6000 N.am  123  THR123     -0.1937
    181  CA        37.7470   39.9270   29.2640 C.3   123  THR123      0.2028
    182  C         39.2700   39.8480   29.2350 C.2   123  THR123      0.2642
    183  O         39.9540   40.7990   29.5360 O.2   123  THR123     -0.2714
    184  CB        37.2620   40.9870   28.2650 C.3   123  THR123      0.1808
    185  OG1       35.8910   41.3850   28.5650 O.3   123  THR123     -0.2208
    186  CG2       37.3300   40.4220   26.8880 C.3   123  THR123      0.0379
    187  N         39.8000   38.6960   28.8810 N.am  124  GLU124     -0.1976
    188  CA        41.2540   38.4780   28.8240 C.3   124  GLU124      0.1602
    189  C         41.8220   38.7780   27.4510 C.2   124  GLU124      0.2287
    190  O         41.1230   38.6700   26.4540 O.2   124  GLU124     -0.2864
    191  CB        41.5950   37.0230   29.2280 C.3   124  GLU124      0.0415
    192  CG        41.3290   36.6720   30.7080 C.3   124  GLU124      0.1163
    193  CD        41.8700   37.6930   31.7610 C.2   124  GLU124      0.3649
    194  OE1       42.8280   38.4570   31.4680 O.co2 124  GLU124     -0.2457
    195  OE2       41.3430   37.7360   32.9100 O.co2 124  GLU124     -0.2457
    196  N         43.0640   41.6100   25.8610 N.3   126  VAL126     -0.1231
    197  CA        42.6870   42.8220   25.1000 C.3   126  VAL126      0.1692
    198  C         43.1050   44.1180   25.8290 C.2   126  VAL126      0.2592
    199  O         42.6800   45.1960   25.4280 O.2   126  VAL126     -0.2718
    200  CB        41.1540   42.8850   24.8470 C.3   126  VAL126      0.0266
    201  CG1       40.6450   41.6750   24.0620 C.3   126  VAL126      0.0020
    202  CG2       40.3770   42.9720   26.1570 C.3   126  VAL126      0.0020
    203  N         43.9030   44.0010   26.8980 N.am  127  SER127     -0.1952
    204  CA        44.3720   45.1500   27.5980 C.3   127  SER127      0.1924
    205  C         45.3510   46.0110   26.7520 C.2   127  SER127      0.2314
    206  O         45.8690   45.5930   25.6850 O.2   127  SER127     -0.2863
    207  CB        44.9910   44.7630   28.9400 C.3   127  SER127      0.2116
    208  OG        46.3500   44.4070   28.8140 O.3   127  SER127     -0.2180
@<TRIPOS>BOND
     1   201   200    1
     2   200   197    1
     3   200   202    1
     4   197   198    1
     5   197   196    1
     6   199   198    2
     7   206   205    2
     8   198   203   am
     9   190   189    2
    10   205   204    1
    11   186   184    1
    12   203   204    1
    13    42    41    1
    14    42    43    2
    15    41    44    1
    16    41    40    1
    17    44    45    1
    18   189   188    1
    19   204   207    1
    20    50    51    1
    21   184   185    1
    22   184   181    1
    23    45    46   ar
    24    45    47   ar
    25   208   207    1
    26   188   187    1
    27   188   191    1
    28    46    48   ar
    29   187   182   am
    30    51    52    1
    31   191   192    1
    32   182   181    1
    33   182   183    2
    34   181   180    1
    35    47    49   ar
    36    52    54   am
    37    52    53    2
    38    48    49   ar
    39    54    55    1
    40    56    57    2
    41    56    55    1
    42    64    65    1
    43   180   171   am
    44   192   193    1
    45    55    58    1
    46   172   171    2
    47    58    59    1
    48    60    59   ar
    49    60    62   ar
    50   194   193   ar
    51   171   170    1
    52   193   195   ar
    53    59    61   ar
    54    65    66    1
    55    65    68    1
    56    62    63   ar
    57    66    67    2
    58    35    34    2
    59   163   162    2
    60   164   165    1
    61   164   161    1
    62    34    33    1
    63   165   166    1
    64    68    69    1
    65   170   169    1
    66   170   173    1
    67    61    63   ar
    68   162   169   am
    69   162   161    1
    70    23    22    2
    71   167   166    2
    72   173   174    1
    73   161   160    1
    74   166   168   am
    75    33    32    1
    76    33    36    1
    77    38    37   ar
    78    22    32   am
    79    22    21    1
    80    69    70    1
    81    26    28   ar
    82    26    25   ar
    83    24    21    1
    84    24    25    1
    85    28    30   ar
    86    36    37    1
    87    37    39   ar
    88   179   177    1
    89    71    70    2
    90    21    20    1
    91    25    27   ar
    92   174   175    1
    93    70    72   am
    94   176   177    2
    95   176   175    1
    96   177   178    1
    97    30    31    1
    98    30    29   ar
    99    27    29   ar
   100    20    15   am
   101    16    15    2
   102    15    14    1
   103   124   125    1
   104   124   121    1
   105   127   125   ar
   106    18    17    1
   107    14    17    1
   108    14    13    1
   109    17    19    1
   110   125   126   ar
   111   121   120    1
   112   121   122    1
   113    13    11   am
   114   120   112   am
   115    88    87    1
   116    11    10    1
   117    11    12    2
   118   112   113    2
   119   112   111    1
   120    10     9    1
   121   111   110    1
   122   111   114    1
   123     4     3    2
   124     9     3   am
   125     3     2    1
   126    87    86    1
   127   122   123    2
   128     1     2    1
   129   117   119   ar
   130   117   115   ar
   131     2     5    1
   132   119   118   ar
   133   115   114    1
   134   115   116   ar
   135    76    75    2
   136    73    74    1
   137   118   116   ar
   138    86    85    1
   139    78    77    1
   140    75    74    1
   141     5     6    1
   142    85    84    1
   143    74    77    1
   144     7     6   ar
   145    77    79    1
   146     6     8   ar
   147   137   135   ar
   148   137   138   ar
   149    84    81    1
   150   139   138    1
   151   159   158    1
   152    83    82    2
   153    82    81    1
   154   135   133   ar
   155   138   136   ar
   156    81    80    1
   157   158   157   ar
   158   158   156   ar
   159   157   155   ar
   160   109   108   ar
   161   109   107   ar
   162   108   106   ar
   163   133   132    1
   164   133   134   ar
   165   156   154   ar
   166   136   134   ar
   167   155   153   ar
   168   107   105   ar
   169   132   129    1
   170   106   103   ar
   171   154   153   ar
   172   153   152    1
   173   129   128    1
   174   129   130    1
   175    92    91    2
   176   105   103   ar
   177   105   104   ar
   178    89    95    1
   179    89    90    1
   180   103   101   ar
   181    95    94    1
   182   152   149    1
   183    91    90    1
   184    91    96   am
   185    99    98    2
   186   130   131    2
   187   104   102   ar
   188    90    93    1
   189    97    96    1
   190    97    98    1
   191    97   100    1
   192   101   100    1
   193   101   102   ar
   194   147   145    1
   195    94    93    1
   196   145   144    1
   197   149   148    1
   198   149   150    1
   199   148   142   am
   200   151   150    2
   201   142   143    2
   202   142   141    1
   203   144   141    1
   204   144   146    1
   205   140   141    1
