@<TRIPOS>MOLECULE
tmp/4zcsD01.pdb
 84 81 0 0 0
SMALL
GASTEIGER

@<TRIPOS>ATOM
      1  N         27.6290   39.5030   73.3620 N.3    35  ILE35      -0.1245
      2  CA        27.3680   38.3580   74.1870 C.3    35  ILE35       0.1561
      3  C         25.8460   38.1720   74.1660 C.2    35  ILE35       0.2260
      4  O         25.1110   39.1260   74.3910 O.2    35  ILE35      -0.2867
      5  CB        27.8940   38.5560   75.6200 C.3    35  ILE35       0.0252
      6  CG1       29.4200   38.8270   75.6280 C.3    35  ILE35       0.0019
      7  CG2       27.5760   37.3270   76.4670 C.3    35  ILE35       0.0019
      8  CD1       30.0380   39.1030   77.0010 C.3    35  ILE35       0.0001
      9  N         24.1460   29.8630   67.1930 N.3    63  LYS63      -0.1245
     10  CA        25.5300   29.6980   66.6770 C.3    63  LYS63       0.1561
     11  C         25.6580   29.9750   65.1690 C.2    63  LYS63       0.2260
     12  O         26.7110   30.3600   64.6870 O.2    63  LYS63      -0.2867
     13  CB        26.0840   28.3200   67.0300 C.3    63  LYS63       0.0271
     14  CG        26.3390   28.1940   68.5210 C.3    63  LYS63       0.0035
     15  CD        26.7530   26.7910   68.8490 C.3    63  LYS63       0.0206
     16  CE        26.8440   26.5560   70.3470 C.3    63  LYS63       0.1093
     17  NZ        26.8130   25.0760   70.5930 N.3    63  LYS63      -0.1314
     18  N         26.7310   37.0270   66.4150 N.3    68  VAL68      -0.1231
     19  CA        26.9540   36.5290   67.7310 C.3    68  VAL68       0.1692
     20  C         28.4360   36.1900   67.9730 C.2    68  VAL68       0.2592
     21  O         28.9270   35.2850   67.3680 O.2    68  VAL68      -0.2718
     22  CB        26.1290   35.2360   67.9640 C.3    68  VAL68       0.0266
     23  CG1       26.4610   34.5890   69.3150 C.3    68  VAL68       0.0020
     24  CG2       24.6300   35.5380   67.8840 C.3    68  VAL68       0.0020
     25  N         29.0950   36.8210   68.9400 N.am   69  ASP69      -0.1960
     26  CA        30.4660   36.4250   69.3730 C.3    69  ASP69       0.1840
     27  C         30.5410   35.4590   70.5190 C.2    69  ASP69       0.2622
     28  O         31.4250   34.6280   70.5550 O.2    69  ASP69      -0.2715
     29  CB        31.3100   37.6550   69.6890 C.3    69  ASP69       0.1450
     30  CG        31.2330   38.6870   68.5700 C.2    69  ASP69       0.3671
     31  OD1       31.5350   38.3530   67.3990 O.co2  69  ASP69      -0.2456
     32  OD2       30.8170   39.8350   68.8360 O.co2  69  ASP69      -0.2456
     33  N         29.6460   35.5770   71.4860 N.am   70  GLU70      -0.1963
     34  CA        29.6630   34.6960   72.6840 C.3    70  GLU70       0.1733
     35  C         28.2360   34.3650   73.1230 C.2    70  GLU70       0.2616
     36  O         27.2850   35.1240   72.8850 O.2    70  GLU70      -0.2715
     37  CB        30.4660   35.3430   73.8530 C.3    70  GLU70       0.0429
     38  CG        31.9490   35.6340   73.5140 C.3    70  GLU70       0.1163
     39  CD        32.7760   36.3580   74.6080 C.2    70  GLU70       0.3649
     40  OE1       32.3190   36.4750   75.7740 O.co2  70  GLU70      -0.2457
     41  OE2       33.9110   36.8270   74.2890 O.co2  70  GLU70      -0.2457
     42  N         28.0870   33.2320   73.7730 N.am   71  ILE71      -0.1963
     43  CA        26.7870   32.8290   74.2480 C.3    71  ILE71       0.1727
     44  C         26.8900   32.3950   75.7080 C.2    71  ILE71       0.2616
     45  O         27.8400   31.7180   76.0650 O.2    71  ILE71      -0.2715
     46  CB        26.1900   31.7220   73.3820 C.3    71  ILE71       0.0290
     47  CG1       25.9460   32.2800   71.9770 C.3    71  ILE71       0.0022
     48  CG2       24.8740   31.2580   73.9640 C.3    71  ILE71       0.0023
     49  CD1       25.5150   31.2070   71.0020 C.3    71  ILE71       0.0001
     50  N         25.9450   32.8580   76.5360 N.am   72  ILE72      -0.1963
     51  CA        25.8200   32.4180   77.9100 C.3    72  ILE72       0.1727
     52  C         24.5140   31.6720   77.9390 C.2    72  ILE72       0.2616
     53  O         23.4610   32.2870   77.6620 O.2    72  ILE72      -0.2715
     54  CB        25.7560   33.6090   78.8830 C.3    72  ILE72       0.0290
     55  CG1       27.0310   34.4320   78.7790 C.3    72  ILE72       0.0022
     56  CG2       25.5610   33.1040   80.3140 C.3    72  ILE72       0.0023
     57  CD1       27.0990   35.6120   79.7150 C.3    72  ILE72       0.0001
     58  N         24.5800   30.3740   78.2570 N.am   73  SER73      -0.1950
     59  CA        23.4240   29.4810   78.1960 C.3    73  SER73       0.1924
     60  C         23.4550   28.4480   79.3410 C.2    73  SER73       0.2314
     61  O         24.2670   27.5650   79.2820 O.2    73  SER73      -0.2863
     62  CB        23.4390   28.7770   76.8300 C.3    73  SER73       0.2116
     63  OG        22.3540   27.8570   76.6600 O.3    73  SER73      -0.2180
     64  N         31.1980   40.4390   86.0670 N.3    86  LYS86      -0.1231
     65  CA        31.8000   39.1470   85.7160 C.3    86  LYS86       0.1693
     66  C         32.1330   38.9770   84.2360 C.2    86  LYS86       0.2592
     67  O         33.2130   38.4550   83.9130 O.2    86  LYS86      -0.2718
     68  CB        30.9160   37.9940   86.1150 C.3    86  LYS86       0.0285
     69  CG        31.5110   36.6370   85.7650 C.3    86  LYS86       0.0035
     70  CD        30.8150   35.5640   86.5900 C.3    86  LYS86       0.0206
     71  CE        30.9310   34.1730   85.9840 C.3    86  LYS86       0.1093
     72  NZ        29.7160   33.3880   86.3320 N.3    86  LYS86      -0.1314
     73  N         31.2310   39.4230   83.3540 N.am   87  TYR87      -0.1976
     74  CA        31.4490   39.3050   81.9100 C.3    87  TYR87       0.1639
     75  C         31.8600   40.5990   81.2980 C.2    87  TYR87       0.2290
     76  O         31.8310   40.7560   80.0840 O.2    87  TYR87      -0.2864
     77  CB        30.2110   38.7160   81.2070 C.3    87  TYR87       0.0560
     78  CG        29.8720   37.3250   81.7050 C.ar   87  TYR87      -0.0198
     79  CD1       30.5380   36.2290   81.2420 C.ar   87  TYR87      -0.0009
     80  CD2       28.8850   37.1160   82.6490 C.ar   87  TYR87      -0.0009
     81  CE1       30.2270   34.9410   81.7010 C.ar   87  TYR87       0.0417
     82  CE2       28.5820   35.8430   83.1200 C.ar   87  TYR87       0.0417
     83  CZ        29.2650   34.7520   82.6220 C.ar   87  TYR87       0.1957
     84  OH        28.9840   33.4620   83.0480 O.3    87  TYR87      -0.2866
@<TRIPOS>BOND
     1    12    11    2
     2    11    10    1
     3    18    19    1
     4    10    13    1
     5    10     9    1
     6    13    14    1
     7    21    20    2
     8    31    30   ar
     9    19    22    1
    10    19    20    1
    11    24    22    1
    12    22    23    1
    13    20    25   am
    14    14    15    1
    15    30    32   ar
    16    30    29    1
    17    15    16    1
    18    25    26    1
    19    26    29    1
    20    26    27    1
    21    16    17    1
    22    27    28    2
    23    27    33   am
    24    49    47    1
    25    33    34    1
    26    47    46    1
    27    34    35    1
    28    34    37    1
    29    36    35    2
    30    35    42   am
    31     1     2    1
    32    46    48    1
    33    46    43    1
    34    38    37    1
    35    38    39    1
    36    42    43    1
    37     3     2    1
    38     3     4    2
    39     2     5    1
    40    43    44    1
    41    41    39   ar
    42    39    40   ar
    43     5     6    1
    44     5     7    1
    45     6     8    1
    46    44    45    2
    47    44    50   am
    48    50    51    1
    49    63    62    1
    50    62    59    1
    51    53    52    2
    52    51    52    1
    53    51    54    1
    54    52    58   am
    55    59    58    1
    56    59    60    1
    57    55    54    1
    58    55    57    1
    59    54    56    1
    60    61    60    2
    61    76    75    2
    62    77    78    1
    63    77    74    1
    64    79    81   ar
    65    79    78   ar
    66    75    74    1
    67    81    83   ar
    68    78    80   ar
    69    74    73    1
    70    83    84    1
    71    83    82   ar
    72    80    82   ar
    73    73    66   am
    74    67    66    2
    75    66    65    1
    76    65    64    1
    77    65    68    1
    78    69    68    1
    79    69    70    1
    80    71    72    1
    81    71    70    1
