@<TRIPOS>MOLECULE
tmp/4zd6B00.pdb
 116 115 0 0 0
SMALL
GASTEIGER

@<TRIPOS>ATOM
      1  N        -33.1460   38.0940  -18.0520 N.3   122  TYR122     -0.1227
      2  CA       -33.6020   38.4840  -19.3780 C.3   122  TYR122      0.1736
      3  C        -33.3250   37.4010  -20.4120 C.2   122  TYR122      0.2595
      4  O        -32.2070   36.8870  -20.5340 O.2   122  TYR122     -0.2718
      5  CB       -32.9300   39.7920  -19.7870 C.3   122  TYR122      0.0548
      6  CG       -33.0350   40.1350  -21.2550 C.ar  122  TYR122     -0.0200
      7  CD1      -34.2140   40.6420  -21.7870 C.ar  122  TYR122     -0.0009
      8  CD2      -31.9320   39.9900  -22.0970 C.ar  122  TYR122     -0.0009
      9  CE1      -34.3070   40.9850  -23.1350 C.ar  122  TYR122      0.0417
     10  CE2      -32.0150   40.3240  -23.4440 C.ar  122  TYR122      0.0417
     11  CZ       -33.2000   40.8160  -23.9500 C.ar  122  TYR122      0.1957
     12  OH       -33.2890   41.1520  -25.2790 O.3   122  TYR122     -0.2866
     13  N        -34.3630   37.0660  -21.1630 N.am  123  GLN123     -0.1965
     14  CA       -34.2860   36.1470  -22.2800 C.3   123  GLN123      0.1733
     15  C        -34.7450   36.9060  -23.5140 C.2   123  GLN123      0.2616
     16  O        -35.8180   37.5180  -23.5010 O.2   123  GLN123     -0.2715
     17  CB       -35.1540   34.9220  -22.0020 C.3   123  GLN123      0.0408
     18  CG       -35.0880   33.8230  -23.0260 C.3   123  GLN123      0.0908
     19  CD       -35.9580   32.6590  -22.6020 C.2   123  GLN123      0.2608
     20  OE1      -35.5510   31.8290  -21.7850 O.2   123  GLN123     -0.2717
     21  NE2      -37.1880   32.6330  -23.1000 N.am  123  GLN123     -0.0878
     22  N        -33.9280   36.8920  -24.5610 N.am  124  GLU124     -0.1977
     23  CA       -34.1690   37.7710  -25.7000 C.3   124  GLU124      0.1602
     24  C        -35.4710   37.4550  -26.4360 C.2   124  GLU124      0.2287
     25  O        -35.7290   36.3070  -26.8150 O.2   124  GLU124     -0.2864
     26  CB       -32.9920   37.6880  -26.6630 C.3   124  GLU124      0.0415
     27  CG       -33.1690   38.5260  -27.8970 C.3   124  GLU124      0.1163
     28  CD       -32.0070   38.3900  -28.8390 C.2   124  GLU124      0.3649
     29  OE1      -30.8610   38.3380  -28.3530 O.co2 124  GLU124     -0.2457
     30  OE2      -32.2450   38.3110  -30.0650 O.co2 124  GLU124     -0.2457
     31  N        -33.8590   26.0400  -18.9400 N.3   160  HIS160     -0.1226
     32  CA       -33.5230   26.6160  -20.2340 C.3   160  HIS160      0.1752
     33  C        -32.7110   25.5540  -20.9500 C.2   160  HIS160      0.2596
     34  O        -32.2310   24.6100  -20.3240 O.2   160  HIS160     -0.2718
     35  CB       -32.7400   27.9280  -20.0640 C.3   160  HIS160      0.0759
     36  CG       -32.7680   28.8400  -21.2540 C.ar  160  HIS160      0.0818
     37  ND1      -33.2140   28.4520  -22.5000 N.ar  160  HIS160     -0.2268
     38  CD2      -32.3850   30.1330  -21.3800 C.ar  160  HIS160      0.1154
     39  CE1      -33.0980   29.4650  -23.3420 C.ar  160  HIS160      0.1986
     40  NE2      -32.6050   30.5010  -22.6850 N.ar  160  HIS160     -0.2212
     41  N        -32.6040   25.6830  -22.2760 N.am  161  TRP161     -0.1976
     42  CA       -31.7470   24.7980  -23.0800 C.3   161  TRP161      0.1640
     43  C        -32.0590   23.3280  -22.8050 C.2   161  TRP161      0.2290
     44  O        -31.1680   22.4910  -22.6640 O.2   161  TRP161     -0.2864
     45  CB       -30.2570   25.1060  -22.8460 C.3   161  TRP161      0.0576
     46  CG       -29.9780   26.5870  -22.9080 C.ar  161  TRP161      0.0006
     47  CD1      -29.6640   27.4080  -21.8590 C.ar  161  TRP161      0.0946
     48  CD2      -30.0510   27.4280  -24.0690 C.ar  161  TRP161      0.0152
     49  NE1      -29.5240   28.7100  -22.3010 N.ar  161  TRP161     -0.2442
     50  CE2      -29.7390   28.7460  -23.6540 C.ar  161  TRP161      0.0810
     51  CE3      -30.3220   27.1960  -25.4210 C.ar  161  TRP161      0.0012
     52  CZ2      -29.7170   29.8240  -24.5360 C.ar  161  TRP161      0.0191
     53  CZ3      -30.2900   28.2640  -26.2980 C.ar  161  TRP161      0.0001
     54  CH2      -30.0030   29.5690  -25.8500 C.ar  161  TRP161      0.0015
     55  N        -35.1640   25.3600  -34.8390 N.3   172  ARG172     -0.1245
     56  CA       -34.4120   26.3030  -34.0100 C.3   172  ARG172      0.1563
     57  C        -32.9850   25.8140  -33.7810 C.2   172  ARG172      0.2260
     58  O        -32.0220   26.5860  -33.9000 O.2   172  ARG172     -0.2867
     59  CB       -35.1130   26.5210  -32.6640 C.3   172  ARG172      0.0307
     60  CG       -34.2880   27.4400  -31.7590 C.3   172  ARG172      0.0489
     61  CD       -34.9230   27.7020  -30.4180 C.3   172  ARG172      0.2205
     62  NE       -34.0710   28.6080  -29.6620 N.pl3 172  ARG172     -0.0865
     63  CZ       -34.3500   29.0590  -28.4450 C.cat 172  ARG172      0.5346
     64  NH1      -35.4620   28.6800  -27.8370 N.pl3 172  ARG172      0.1354
     65  NH2      -33.5170   29.9040  -27.8490 N.pl3 172  ARG172      0.1354
     66  N        -27.9370   31.1370  -35.0020 N.3   177  GLU177     -0.1245
     67  CA       -28.0620   31.8280  -33.7210 C.3   177  GLU177      0.1567
     68  C        -28.0550   30.8480  -32.5560 C.2   177  GLU177      0.2260
     69  O        -27.4380   31.1150  -31.5200 O.2   177  GLU177     -0.2867
     70  CB       -29.3340   32.6730  -33.6910 C.3   177  GLU177      0.0388
     71  CG       -29.3200   33.8470  -34.6590 C.3   177  GLU177      0.1160
     72  CD       -30.5590   34.7090  -34.5510 C.2   177  GLU177      0.3649
     73  OE1      -31.6710   34.1430  -34.4620 O.co2 177  GLU177     -0.2457
     74  OE2      -30.4200   35.9540  -34.5690 O.co2 177  GLU177     -0.2457
     75  N        -24.5640   29.7070  -32.0760 N.3   180  GLU180     -0.1231
     76  CA       -23.8170   30.7730  -31.4110 C.3   180  GLU180      0.1699
     77  C        -24.1010   30.7990  -29.9120 C.2   180  GLU180      0.2592
     78  O        -23.1840   30.9460  -29.0960 O.2   180  GLU180     -0.2718
     79  CB       -24.1660   32.1140  -32.0610 C.3   180  GLU180      0.0402
     80  CG       -23.6440   33.3550  -31.3570 C.3   180  GLU180      0.1161
     81  CD       -24.5070   34.5840  -31.6510 C.2   180  GLU180      0.3649
     82  OE1      -25.2080   34.5880  -32.6920 O.co2 180  GLU180     -0.2457
     83  OE2      -24.5060   35.5380  -30.8380 O.co2 180  GLU180     -0.2457
     84  N        -25.3650   30.6450  -29.5260 N.am  181  ASP181     -0.1974
     85  CA       -25.6820   30.5910  -28.1030 C.3   181  ASP181      0.1709
     86  C        -25.0260   29.3960  -27.4260 C.2   181  ASP181      0.2293
     87  O        -24.5900   29.4930  -26.2730 O.2   181  ASP181     -0.2864
     88  CB       -27.1900   30.5380  -27.9030 C.3   181  ASP181      0.1436
     89  CG       -27.8420   31.8680  -28.1330 C.2   181  ASP181      0.3671
     90  OD1      -27.1380   32.8900  -28.0260 O.co2 181  ASP181     -0.2456
     91  OD2      -29.0530   31.8930  -28.4150 O.co2 181  ASP181     -0.2456
     92  N        -23.0940   31.1810  -24.7550 N.3   185  ARG185     -0.1245
     93  CA       -23.9980   31.5090  -23.6590 C.3   185  ARG185      0.1563
     94  C        -24.3840   30.3260  -22.7820 C.2   185  ARG185      0.2260
     95  O        -24.9880   30.5390  -21.7240 O.2   185  ARG185     -0.2867
     96  CB       -25.2820   32.1560  -24.2140 C.3   185  ARG185      0.0307
     97  CG       -25.0390   33.4850  -24.9460 C.3   185  ARG185      0.0489
     98  CD       -24.5420   34.5690  -23.9940 C.3   185  ARG185      0.2205
     99  NE       -25.4710   34.7850  -22.8890 N.pl3 185  ARG185     -0.0865
    100  CZ       -26.5260   35.5910  -22.9470 C.cat 185  ARG185      0.5346
    101  NH1      -26.7870   36.2700  -24.0630 N.pl3 185  ARG185      0.1354
    102  NH2      -27.3200   35.7170  -21.8880 N.pl3 185  ARG185      0.1354
    103  N        -26.4880   28.8840  -17.7730 N.3   223  TRP223     -0.1241
    104  CA       -26.7960   30.0770  -18.5550 C.3   223  TRP223      0.1605
    105  C        -27.0150   31.3070  -17.6810 C.2   223  TRP223      0.2264
    106  O        -26.5670   32.4070  -18.0260 O.2   223  TRP223     -0.2867
    107  CB       -28.0310   29.8060  -19.4080 C.3   223  TRP223      0.0550
    108  CG       -28.5830   30.9980  -20.1170 C.ar  223  TRP223      0.0003
    109  CD1      -28.1400   31.5150  -21.3010 C.ar  223  TRP223      0.0946
    110  CD2      -29.6970   31.8110  -19.7100 C.ar  223  TRP223      0.0152
    111  NE1      -28.9030   32.6070  -21.6470 N.ar  223  TRP223     -0.2442
    112  CE2      -29.8700   32.8030  -20.6950 C.ar  223  TRP223      0.0810
    113  CE3      -30.5690   31.7900  -18.6140 C.ar  223  TRP223      0.0012
    114  CZ2      -30.8730   33.7690  -20.6150 C.ar  223  TRP223      0.0191
    115  CZ3      -31.5470   32.7550  -18.5260 C.ar  223  TRP223      0.0001
    116  CH2      -31.6980   33.7360  -19.5270 C.ar  223  TRP223      0.0015
@<TRIPOS>BOND
     1    66    67    1
     2    55    56    1
     3    71    72    1
     4    71    70    1
     5    74    72   ar
     6    72    73   ar
     7    56    57    1
     8    56    59    1
     9    58    57    2
    10    67    70    1
    11    67    68    1
    12    82    81   ar
    13    59    60    1
    14    68    69    2
    15    75    76    1
    16    79    76    1
    17    79    80    1
    18    60    61    1
    19    81    80    1
    20    81    83   ar
    21    76    77    1
    22    61    62    1
    23    30    28   ar
    24    77    84   am
    25    77    78    2
    26    62    63    2
    27    84    85    1
    28    28    29   ar
    29    28    27    1
    30    63    65    1
    31    63    64    1
    32    91    89   ar
    33    89    90   ar
    34    89    88    1
    35    85    88    1
    36    85    86    1
    37    27    26    1
    38    86    87    2
    39    25    24    2
    40    26    23    1
    41    24    23    1
    42    53    54   ar
    43    53    51   ar
    44    54    52   ar
    45    23    22    1
    46    51    48   ar
    47    12    11    1
    48    97    96    1
    49    97    98    1
    50    92    93    1
    51    22    15   am
    52    52    50   ar
    53    96    93    1
    54    48    50   ar
    55    48    46   ar
    56   101   100    1
    57    98    99    1
    58    11    10   ar
    59    11     9   ar
    60    93    94    1
    61    50    49   ar
    62    15    16    2
    63    15    14    1
    64    10     8   ar
    65    39    40   ar
    66    39    37   ar
    67     9     7   ar
    68    21    19   am
    69    42    45    1
    70    42    43    1
    71    42    41    1
    72    18    19    1
    73    18    17    1
    74   100    99    2
    75   100   102    1
    76    46    45    1
    77    46    47   ar
    78    43    44    2
    79    94    95    2
    80    40    38   ar
    81    19    20    2
    82    37    36   ar
    83    49    47   ar
    84    14    17    1
    85    14    13    1
    86    41    33   am
    87     8     6   ar
    88     7     6   ar
    89   111   109   ar
    90   111   112   ar
    91    38    36   ar
    92   109   108   ar
    93     6     5    1
    94    36    35    1
    95    13     3   am
    96    33    34    2
    97    33    32    1
    98   112   114   ar
    99   112   110   ar
   100   114   116   ar
   101     4     3    2
   102     3     2    1
   103    32    35    1
   104    32    31    1
   105   108   110   ar
   106   108   107    1
   107     5     2    1
   108   110   113   ar
   109   116   115   ar
   110   107   104    1
   111     2     1    1
   112   113   115   ar
   113   104   103    1
   114   104   105    1
   115   106   105    2
