@<TRIPOS>MOLECULE
tmp/4zdaA00.pdb
 125 114 0 0 0
SMALL
GASTEIGER

@<TRIPOS>ATOM
      1  N          8.2580   -8.6980   37.2230 N.3    84  SER84      -0.1217
      2  CA         8.5570   -8.5320   38.6430 C.3    84  SER84       0.1889
      3  C          7.3050   -8.8760   39.4440 C.2    84  SER84       0.2288
      4  O          6.5110   -7.9970   39.7810 O.2    84  SER84      -0.2866
      5  CB         9.0260   -7.1130   38.9510 C.3    84  SER84       0.2089
      6  OG        10.4270   -7.0230   38.8150 O.3    84  SER84      -0.2183
      7  N         11.1830   -7.2920   42.4890 N.3   129  SER129     -0.1217
      8  CA        12.3190   -7.0650   41.6010 C.3   129  SER129      0.1889
      9  C         13.4990   -7.9650   41.9780 C.2   129  SER129      0.2288
     10  O         14.3860   -7.5700   42.7400 O.2   129  SER129     -0.2866
     11  CB        12.7200   -5.5880   41.6290 C.3   129  SER129      0.2089
     12  OG        13.7230   -5.3190   40.6650 O.3   129  SER129     -0.2183
     13  N         16.9630   -8.0120   38.1040 N.3   132  ASN132     -0.1240
     14  CA        17.9000   -6.8950   37.9440 C.3   132  ASN132      0.1653
     15  C         19.0250   -6.8160   38.9870 C.2   132  ASN132      0.2266
     16  O         20.1680   -6.5520   38.6190 O.2   132  ASN132     -0.2867
     17  CB        17.1560   -5.5530   37.8610 C.3   132  ASN132      0.1155
     18  CG        16.4190   -5.3670   36.5450 C.2   132  ASN132      0.2627
     19  OD1       16.5930   -6.1400   35.5980 O.2   132  ASN132     -0.2716
     20  ND2       15.5900   -4.3280   36.4780 N.am  132  ASN132     -0.0877
     21  N         22.7170   -6.9310   37.1160 N.3   136  ARG136     -0.1245
     22  CA        23.3630   -5.6240   36.9790 C.3   136  ARG136      0.1563
     23  C         24.7060   -5.5620   37.7050 C.2   136  ARG136      0.2260
     24  O         24.8180   -5.0320   38.8170 O.2   136  ARG136     -0.2867
     25  CB        22.4090   -4.4950   37.3930 C.3   136  ARG136      0.0307
     26  CG        21.2690   -4.3310   36.4020 C.3   136  ARG136      0.0489
     27  CD        20.1850   -3.3760   36.8670 C.3   136  ARG136      0.2205
     28  NE        19.2540   -3.0870   35.7770 N.pl3 136  ARG136     -0.0865
     29  CZ        18.2340   -2.2390   35.8610 C.cat 136  ARG136      0.5346
     30  NH1       18.0030   -1.5860   36.9890 N.pl3 136  ARG136      0.1354
     31  NH2       17.4420   -2.0450   34.8170 N.pl3 136  ARG136      0.1354
     32  N         22.5890    3.9760   28.6380 N.3   142  ARG142     -0.1245
     33  CA        21.2690    4.0020   28.0330 C.3   142  ARG142      0.1563
     34  C         21.1300    5.2450   27.1610 C.2   142  ARG142      0.2260
     35  O         21.3630    6.3630   27.6240 O.2   142  ARG142     -0.2867
     36  CB        20.1820    3.9360   29.1160 C.3   142  ARG142      0.0307
     37  CG        18.9170    3.2090   28.6720 C.3   142  ARG142      0.0489
     38  CD        17.9920    2.8380   29.8280 C.3   142  ARG142      0.2205
     39  NE        18.5960    1.8960   30.7710 N.pl3 142  ARG142     -0.0865
     40  CZ        17.9430    1.2610   31.7460 C.cat 142  ARG142      0.5346
     41  NH1       16.6410    1.4470   31.9280 N.pl3 142  ARG142      0.1354
     42  NH2       18.6010    0.4270   32.5450 N.pl3 142  ARG142      0.1354
     43  N          7.6840    4.6590   43.9330 N.3   252  LYS252     -0.1245
     44  CA         8.2090    3.4660   43.2860 C.3   252  LYS252      0.1561
     45  C          8.1020    2.2750   44.2500 C.2   252  LYS252      0.2260
     46  O          9.1060    1.7610   44.7430 O.2   252  LYS252     -0.2867
     47  CB         9.6580    3.7240   42.8500 C.3   252  LYS252      0.0271
     48  CG        10.3340    2.5950   42.0860 C.3   252  LYS252      0.0035
     49  CD        10.3270    2.8180   40.5850 C.3   252  LYS252      0.0206
     50  CE        11.3080    1.8770   39.9070 C.3   252  LYS252      0.1093
     51  NZ        11.4060    2.1520   38.4510 N.3   252  LYS252     -0.1314
     52  N          7.0790   -0.9450   43.9370 N.3   254  THR254     -0.1203
     53  CA         7.5580   -2.2620   43.5160 C.3   254  THR254      0.1994
     54  C          9.0200   -2.4770   43.8920 C.2   254  THR254      0.2617
     55  O          9.3510   -3.4420   44.5810 O.2   254  THR254     -0.2717
     56  CB         7.4190   -2.4730   41.9990 C.3   254  THR254      0.1784
     57  OG1        6.1820   -1.9100   41.5460 O.3   254  THR254     -0.2211
     58  CG2        7.4720   -3.9750   41.6580 C.3   254  THR254      0.0376
     59  N          9.8850   -1.5720   43.4420 N.am  255  MET255     -0.1979
     60  CA        11.3170   -1.6990   43.6630 C.3   255  MET255      0.1605
     61  C         11.6960   -1.3150   45.0960 C.2   255  MET255      0.2287
     62  O         12.3800   -2.0780   45.7810 O.2   255  MET255     -0.2864
     63  CB        12.0880   -0.8810   42.6200 C.3   255  MET255      0.0413
     64  CG        13.5970   -1.0780   42.6340 C.3   255  MET255      0.0598
     65  SD        14.4260   -0.0180   43.8350 S.3   255  MET255     -0.1393
     66  CE        14.1100    1.5980   43.1250 C.3   255  MET255      0.0692
     67  N          8.6150    6.6230   37.8840 N.3   347  ASP347     -0.1239
     68  CA         9.4150    6.7130   36.6640 C.3   347  ASP347      0.1674
     69  C          8.5870    6.7180   35.3810 C.2   347  ASP347      0.2266
     70  O          9.0120    7.2820   34.3790 O.2   347  ASP347     -0.2867
     71  CB        10.5360    5.6560   36.6250 C.3   347  ASP347      0.1410
     72  CG        10.0170    4.2200   36.6010 C.2   347  ASP347      0.3668
     73  OD1        8.9550    3.9330   37.1900 O.co2 347  ASP347     -0.2456
     74  OD2       10.7000    3.3620   36.0030 O.co2 347  ASP347     -0.2456
     75  N         19.1520    1.0940   45.5240 N.3   417  TYR417     -0.1241
     76  CA        18.7450   -0.1980   44.9680 C.3   417  TYR417      0.1605
     77  C         19.2420   -1.3980   45.7740 C.2   417  TYR417      0.2264
     78  O         18.8860   -2.5370   45.4750 O.2   417  TYR417     -0.2867
     79  CB        19.2070   -0.3170   43.5140 C.3   417  TYR417      0.0534
     80  CG        18.2980    0.3660   42.5230 C.ar  417  TYR417     -0.0201
     81  CD1       18.1410    1.7540   42.5290 C.ar  417  TYR417     -0.0009
     82  CD2       17.6000   -0.3710   41.5690 C.ar  417  TYR417     -0.0009
     83  CE1       17.3100    2.3850   41.6210 C.ar  417  TYR417      0.0417
     84  CE2       16.7650    0.2540   40.6540 C.ar  417  TYR417      0.0417
     85  CZ        16.6240    1.6310   40.6890 C.ar  417  TYR417      0.1957
     86  OH        15.7960    2.2570   39.7880 O.3   417  TYR417     -0.2866
     87  N         19.2050    7.6580   37.1280 N.3   545  ARG545     -0.1231
     88  CA        19.3630    6.8440   35.9210 C.3   545  ARG545      0.1694
     89  C         18.0010    6.3140   35.4950 C.2   545  ARG545      0.2592
     90  O         17.6110    6.4450   34.3350 O.2   545  ARG545     -0.2718
     91  CB        20.3330    5.6850   36.1770 C.3   545  ARG545      0.0321
     92  CG        20.2770    4.5360   35.1740 C.3   545  ARG545      0.0489
     93  CD        20.6410    3.2170   35.8390 C.3   545  ARG545      0.2205
     94  NE        19.7260    2.9000   36.9340 N.pl3 545  ARG545     -0.0865
     95  CZ        18.6390    2.1400   36.8240 C.cat 545  ARG545      0.5346
     96  NH1       18.3120    1.5830   35.6650 N.pl3 545  ARG545      0.1354
     97  NH2       17.8760    1.9320   37.8820 N.pl3 545  ARG545      0.1354
     98  N         17.2850    5.7400   36.4630 N.am  546  ASP546     -0.1974
     99  CA        15.9350    5.2250   36.2810 C.3   546  ASP546      0.1709
    100  C         14.9850    6.2990   35.7620 C.2   546  ASP546      0.2293
    101  O         14.3520    6.1180   34.7120 O.2   546  ASP546     -0.2864
    102  CB        15.4240    4.6640   37.6080 C.3   546  ASP546      0.1436
    103  CG        14.0440    4.0330   37.5020 C.2   546  ASP546      0.3671
    104  OD1       13.6410    3.5940   36.4010 O.co2 546  ASP546     -0.2456
    105  OD2       13.3650    3.9600   38.5490 O.co2 546  ASP546     -0.2456
    106  N         15.9780    8.1510   32.1370 N.3   549  THR549     -0.1203
    107  CA        15.9290    7.2750   30.9680 C.3   549  THR549      0.1994
    108  C         14.4970    6.9270   30.5980 C.2   549  THR549      0.2617
    109  O         14.2520    6.3160   29.5560 O.2   549  THR549     -0.2717
    110  CB        16.7360    5.9790   31.1630 C.3   549  THR549      0.1784
    111  OG1       16.3060    5.3240   32.3580 O.3   549  THR549     -0.2211
    112  CG2       18.2060    6.2800   31.2630 C.3   549  THR549      0.0376
    113  N         13.5570    7.2920   31.4640 N.am  550  ASP550     -0.1973
    114  CA        12.1430    7.2540   31.1060 C.3   550  ASP550      0.1709
    115  C         11.7050    8.6290   30.6130 C.2   550  ASP550      0.2293
    116  O         11.0440    8.7440   29.5800 O.2   550  ASP550     -0.2864
    117  CB        11.2790    6.7910   32.2820 C.3   550  ASP550      0.1436
    118  CG        11.0080    5.2920   32.2580 C.2   550  ASP550      0.3671
    119  OD1       10.2410    4.8420   31.3770 O.co2 550  ASP550     -0.2456
    120  OD2       11.5510    4.5650   33.1240 O.co2 550  ASP550     -0.2456
    121  N         13.1480   -1.5070   29.0570 N.3   580  ALA580     -0.1245
    122  CA        13.1740   -1.0580   30.4450 C.3   580  ALA580      0.1562
    123  C         11.8080   -1.1740   31.1140 C.2   580  ALA580      0.2260
    124  O         11.6540   -0.8410   32.2920 O.2   580  ALA580     -0.2867
    125  CB        13.6740    0.3750   30.5170 C.3   580  ALA580      0.0290
@<TRIPOS>BOND
     1    34    35    2
     2    34    33    1
     3    33    32    1
     4    33    36    1
     5    37    36    1
     6    37    38    1
     7   121   122    1
     8   109   108    2
     9   116   115    2
    10    38    39    1
    11   122   125    1
    12   122   123    1
    13   108   107    1
    14   108   113   am
    15   115   114    1
    16    39    40    2
    17   107   110    1
    18   107   106    1
    19   114   113    1
    20   114   117    1
    21   123   124    2
    22   110   112    1
    23   110   111    1
    24   119   118   ar
    25    40    41    1
    26    40    42    1
    27   118   117    1
    28   118   120   ar
    29    90    89    2
    30    70    69    2
    31   101   100    2
    32    31    29    1
    33    92    93    1
    34    92    91    1
    35    69    68    1
    36    89    88    1
    37    89    98   am
    38    19    18    2
    39    96    95    1
    40   100    99    1
    41    28    29    2
    42    28    27    1
    43    93    94    1
    44    29    30    1
    45    88    91    1
    46    88    87    1
    47    74    72   ar
    48    99    98    1
    49    99   102    1
    50   104   103   ar
    51    26    27    1
    52    26    25    1
    53    20    18   am
    54    18    17    1
    55    72    71    1
    56    72    73   ar
    57    71    68    1
    58    68    67    1
    59    95    94    2
    60    95    97    1
    61    22    21    1
    62    22    25    1
    63    22    23    1
    64     1     2    1
    65   103   102    1
    66   103   105   ar
    67    23    24    2
    68    17    14    1
    69    14    13    1
    70    14    15    1
    71    51    50    1
    72    16    15    2
    73     2     5    1
    74     2     3    1
    75     6     5    1
    76     3     4    2
    77    86    85    1
    78    50    49    1
    79    49    48    1
    80    84    85   ar
    81    84    82   ar
    82    12    11    1
    83    85    83   ar
    84    57    56    1
    85    82    80   ar
    86     8    11    1
    87     8     9    1
    88     8     7    1
    89    83    81   ar
    90    58    56    1
    91     9    10    2
    92    56    53    1
    93    48    47    1
    94    80    81   ar
    95    80    79    1
    96    63    64    1
    97    63    60    1
    98    64    65    1
    99    47    44    1
   100    66    65    1
   101    44    43    1
   102    44    45    1
   103    59    60    1
   104    59    54   am
   105    79    76    1
   106    53    54    1
   107    53    52    1
   108    60    61    1
   109    54    55    2
   110    45    46    2
   111    76    75    1
   112    76    77    1
   113    61    62    2
   114    78    77    2
