@<TRIPOS>MOLECULE
tmp/4zdcB00.pdb
 99 95 0 0 0
SMALL
GASTEIGER

@<TRIPOS>ATOM
      1  N        217.6880  244.6770  246.7220 N.3    25  ASP25      -0.1225
      2  CA       217.8370  246.0950  246.3670 C.3    25  ASP25       0.1805
      3  C        218.8580  246.7940  247.2240 C.2    25  ASP25       0.2598
      4  O        219.4150  247.7980  246.8180 O.2    25  ASP25      -0.2718
      5  CB       216.5150  246.8580  246.5080 C.3    25  ASP25       0.1424
      6  CG       215.4230  246.3180  245.5990 C.2    25  ASP25       0.3668
      7  OD1      215.7400  245.6550  244.5910 O.co2  25  ASP25      -0.2456
      8  OD2      214.2430  246.5590  245.9200 O.co2  25  ASP25      -0.2456
      9  N        219.0660  246.3040  248.4390 N.am   26  ASN26      -0.1960
     10  CA       220.0820  246.8650  249.3250 C.3    26  ASN26       0.1819
     11  C        221.3230  245.9280  249.4500 C.2    26  ASN26       0.2621
     12  O        222.0810  246.0150  250.4030 O.2    26  ASN26      -0.2715
     13  CB       219.4410  247.1330  250.6840 C.3    26  ASN26       0.1195
     14  CG       220.2180  248.1330  251.5210 C.2    26  ASN26       0.2630
     15  OD1      221.0120  248.9190  251.0040 O.2    26  ASN26      -0.2716
     16  ND2      219.9960  248.1000  252.8350 N.am   26  ASN26      -0.0877
     17  N        221.5200  245.0620  248.4590 N.am   27  LEU27      -0.1977
     18  CA       222.6070  244.0790  248.4290 C.3    27  LEU27       0.1596
     19  C        222.6700  243.2160  249.6990 C.2    27  LEU27       0.2287
     20  O        223.7300  242.7890  250.1240 O.2    27  LEU27      -0.2864
     21  CB       223.9380  244.7890  248.1810 C.3    27  LEU27       0.0297
     22  CG       224.0390  245.6860  246.9470 C.3    27  LEU27       0.0022
     23  CD1      225.4500  246.2260  246.8360 C.3    27  LEU27       0.0001
     24  CD2      223.6840  244.9580  245.6660 C.3    27  LEU27       0.0001
     25  N        222.5110  244.0220  252.7100 N.3    29  ALA29      -0.1245
     26  CA       223.1770  244.6040  253.8600 C.3    29  ALA29       0.1562
     27  C        222.3340  244.3500  255.0820 C.2    29  ALA29       0.2260
     28  O        221.1130  244.4250  255.0210 O.2    29  ALA29      -0.2867
     29  CB       223.3800  246.0970  253.6740 C.3    29  ALA29       0.0290
     30  N        224.5820  240.1200  244.9800 N.3    62  PHE62      -0.1241
     31  CA       225.4430  240.0070  246.1640 C.3    62  PHE62       0.1605
     32  C        224.8740  238.9940  247.1300 C.2    62  PHE62       0.2264
     33  O        223.6560  238.9280  247.3240 O.2    62  PHE62      -0.2867
     34  CB       225.5380  241.3310  246.9090 C.3    62  PHE62       0.0534
     35  CG       226.7030  242.1490  246.5110 C.ar   62  PHE62      -0.0203
     36  CD1      226.8440  242.5620  245.1940 C.ar   62  PHE62      -0.0042
     37  CD2      227.6700  242.5090  247.4380 C.ar   62  PHE62      -0.0042
     38  CE1      227.9560  243.3100  244.8100 C.ar   62  PHE62      -0.0003
     39  CE2      228.7850  243.2610  247.0630 C.ar   62  PHE62      -0.0003
     40  CZ       228.9290  243.6540  245.7400 C.ar   62  PHE62      -0.0000
     41  N        226.4330  242.6200  251.3490 N.3    65  SER65      -0.1217
     42  CA       227.4740  243.6510  251.3640 C.3    65  SER65       0.1889
     43  C        227.8950  243.9520  252.7820 C.2    65  SER65       0.2288
     44  O        228.6730  244.8580  253.0160 O.2    65  SER65      -0.2866
     45  CB       226.9480  244.9430  250.7240 C.3    65  SER65       0.2089
     46  OG       225.8140  245.4140  251.4430 O.3    65  SER65      -0.2183
     47  N        227.5620  244.7770  257.0180 N.3    67  ALA67      -0.1231
     48  CA       226.8180  245.5710  257.9750 C.3    67  ALA67       0.1694
     49  C        226.2860  246.8280  257.2990 C.2    67  ALA67       0.2592
     50  O        226.9680  247.4540  256.4970 O.2    67  ALA67      -0.2718
     51  CB       227.6870  245.9420  259.1620 C.3    67  ALA67       0.0304
     52  N        225.0470  247.1520  257.6140 N.am   68  ASP68      -0.1960
     53  CA       224.3590  248.2970  257.0380 C.3    68  ASP68       0.1840
     54  C        224.8980  249.5610  257.7030 C.2    68  ASP68       0.2622
     55  O        224.7290  249.7500  258.9150 O.2    68  ASP68      -0.2715
     56  CB       222.8500  248.1460  257.2630 C.3    68  ASP68       0.1450
     57  CG       222.0330  249.1510  256.4770 C.2    68  ASP68       0.3671
     58  OD1      222.4840  250.3010  256.3260 O.co2  68  ASP68      -0.2456
     59  OD2      220.9460  248.7870  255.9970 O.co2  68  ASP68      -0.2456
     60  N        225.5610  250.4030  256.9060 N.am   69  PHE69      -0.1960
     61  CA       226.1760  251.6390  257.4030 C.3    69  PHE69       0.1771
     62  C        225.1440  252.6790  257.8680 C.2    69  PHE69       0.2619
     63  O        225.3870  253.3740  258.8470 O.2    69  PHE69      -0.2715
     64  CB       227.2060  252.2350  256.4020 C.3    69  PHE69       0.0574
     65  CG       226.6470  252.6190  255.0380 C.ar   69  PHE69      -0.0200
     66  CD1      225.8640  253.7730  254.8670 C.ar   69  PHE69      -0.0042
     67  CD2      226.9720  251.8660  253.8990 C.ar   69  PHE69      -0.0042
     68  CE1      225.3850  254.1330  253.6070 C.ar   69  PHE69      -0.0003
     69  CE2      226.4920  252.2270  252.6390 C.ar   69  PHE69      -0.0003
     70  CZ       225.6970  253.3580  252.4930 C.ar   69  PHE69      -0.0000
     71  N        223.9980  252.7670  257.1930 N.am   70  LYS70      -0.1977
     72  CA       222.9050  253.6430  257.6330 C.3    70  LYS70       0.1596
     73  C        222.4570  253.3160  259.0610 C.2    70  LYS70       0.2287
     74  O        222.2930  254.2180  259.8810 O.2    70  LYS70      -0.2864
     75  CB       221.7170  253.5670  256.6640 C.3    70  LYS70       0.0298
     76  CG       221.7850  254.5770  255.5170 C.3    70  LYS70       0.0038
     77  CD       221.1600  254.0500  254.2270 C.3    70  LYS70       0.0206
     78  CE       222.2010  253.3710  253.3540 C.3    70  LYS70       0.1093
     79  NZ       221.6230  252.3330  252.4590 N.3    70  LYS70      -0.1314
     80  N        230.8540  240.5010  252.1630 N.3   116  ILE116     -0.1245
     81  CA       231.7210  241.5050  252.7050 C.3   116  ILE116      0.1561
     82  C        231.5940  241.5820  254.2230 C.2   116  ILE116      0.2260
     83  O        230.4990  241.4680  254.7660 O.2   116  ILE116     -0.2867
     84  CB       231.3810  242.8670  252.0300 C.3   116  ILE116      0.0252
     85  CG1      231.5950  242.6870  250.5140 C.3   116  ILE116      0.0019
     86  CG2      232.2280  243.9870  252.6050 C.3   116  ILE116      0.0019
     87  CD1      231.6370  243.9440  249.7220 C.3   116  ILE116      0.0001
     88  N        233.5690  236.7090  245.3810 N.3   137  TYR137     -0.1241
     89  CA       234.7480  236.9700  246.1890 C.3   137  TYR137      0.1605
     90  C        234.3090  237.2480  247.6320 C.2   137  TYR137      0.2264
     91  O        233.1350  237.4900  247.8920 O.2   137  TYR137     -0.2867
     92  CB       235.5890  238.1370  245.6380 C.3   137  TYR137      0.0534
     93  CG       234.8960  239.4640  245.6440 C.ar  137  TYR137     -0.0201
     94  CD1      234.8930  240.2570  246.7920 C.ar  137  TYR137     -0.0009
     95  CD2      234.2550  239.9590  244.4780 C.ar  137  TYR137     -0.0009
     96  CE1      234.2530  241.4680  246.8190 C.ar  137  TYR137      0.0417
     97  CE2      233.6100  241.1920  244.5030 C.ar  137  TYR137      0.0417
     98  CZ       233.6250  241.9460  245.6650 C.ar  137  TYR137      0.1957
     99  OH       232.9910  243.1630  245.7250 O.3   137  TYR137     -0.2866
@<TRIPOS>BOND
     1    95    97   ar
     2    95    93   ar
     3    97    98   ar
     4     7     6   ar
     5    38    36   ar
     6    38    40   ar
     7    30    31    1
     8    36    35   ar
     9    88    89    1
    10     6     8   ar
    11     6     5    1
    12    92    93    1
    13    92    89    1
    14    93    94   ar
    15    98    99    1
    16    98    96   ar
    17    24    22    1
    18    40    39   ar
    19    31    34    1
    20    31    32    1
    21    89    90    1
    22     2     5    1
    23     2     1    1
    24     2     3    1
    25    35    34    1
    26    35    37   ar
    27    94    96   ar
    28     4     3    2
    29    23    22    1
    30    22    21    1
    31    39    37   ar
    32    32    33    2
    33     3     9   am
    34    90    91    2
    35    21    18    1
    36    18    17    1
    37    18    19    1
    38     9    10    1
    39    17    11   am
    40    10    11    1
    41    10    13    1
    42    11    12    2
    43    19    20    2
    44    87    85    1
    45    85    84    1
    46    13    14    1
    47    45    42    1
    48    45    46    1
    49    15    14    2
    50    41    42    1
    51    42    43    1
    52    14    16   am
    53    84    86    1
    54    84    81    1
    55    80    81    1
    56    79    78    1
    57    70    69   ar
    58    70    68   ar
    59    69    67   ar
    60    81    82    1
    61    25    26    1
    62    43    44    2
    63    78    77    1
    64    68    66   ar
    65    29    26    1
    66    26    27    1
    67    67    65   ar
    68    82    83    2
    69    77    76    1
    70    66    65   ar
    71    28    27    2
    72    65    64    1
    73    76    75    1
    74    59    57   ar
    75    58    57   ar
    76    64    61    1
    77    57    56    1
    78    50    49    2
    79    75    72    1
    80    60    61    1
    81    60    54   am
    82    47    48    1
    83    53    56    1
    84    53    52    1
    85    53    54    1
    86    71    72    1
    87    71    62   am
    88    49    52   am
    89    49    48    1
    90    61    62    1
    91    72    73    1
    92    54    55    2
    93    62    63    2
    94    48    51    1
    95    73    74    2
