@<TRIPOS>MOLECULE
tmp/4zdjA01.pdb
 156 148 0 0 0
SMALL
GASTEIGER

@<TRIPOS>ATOM
      1  N          1.7700   16.6750   69.5320 N.3    16  SER16      -0.1202
      2  CA         2.5490   17.1530   68.3660 C.3    16  SER16       0.2020
      3  C          2.6740   18.6780   68.4390 C.2    16  SER16       0.2619
      4  O          2.2320   19.2930   69.4230 O.2    16  SER16      -0.2717
      5  CB         1.8950   16.7190   67.0490 C.3    16  SER16       0.2103
      6  OG         0.5860   17.2700   66.9490 O.3    16  SER16      -0.2182
      7  N          3.2970   19.2990   67.4300 N.am   17  SER17      -0.1937
      8  CA         3.4940   20.7610   67.3570 C.3    17  SER17       0.2055
      9  C          4.4750   21.2970   68.4190 C.2    17  SER17       0.2643
     10  O          4.4920   22.5050   68.6730 O.2    17  SER17      -0.2714
     11  CB         2.1570   21.5020   67.4740 C.3    17  SER17       0.2130
     12  OG         1.2530   20.9700   66.5270 O.3    17  SER17      -0.2179
     13  N          5.3090   20.4360   68.9980 N.am   18  LEU18      -0.1963
     14  CA         6.2820   20.8890   70.0040 C.3    18  LEU18       0.1728
     15  C          7.5740   21.3640   69.3520 C.2    18  LEU18       0.2617
     16  O          8.3990   21.9610   70.0190 O.2    18  LEU18      -0.2715
     17  CB         6.5930   19.8020   71.0650 C.3    18  LEU18       0.0311
     18  CG         5.4050   19.2400   71.8410 C.3    18  LEU18       0.0022
     19  CD1        5.8650   18.2590   72.9180 C.3    18  LEU18       0.0001
     20  CD2        4.5270   20.3580   72.4520 C.3    18  LEU18       0.0001
     21  N          7.7290   21.1390   68.0590 N.am   19  GLY19      -0.1940
     22  CA         8.9130   21.5760   67.3350 C.3    19  GLY19       0.2014
     23  C         10.0490   20.5670   67.3160 C.2    19  GLY19       0.2639
     24  O         11.2160   20.9600   67.3350 O.2    19  GLY19      -0.2714
     25  N          9.7250   19.2670   67.2680 N.am   20  LYS20      -0.1963
     26  CA        10.7420   18.2040   67.1950 C.3    20  LYS20       0.1728
     27  C         11.7380   18.4020   66.0340 C.2    20  LYS20       0.2617
     28  O         12.9320   18.1830   66.2170 O.2    20  LYS20      -0.2715
     29  CB        10.0990   16.8310   66.9900 C.3    20  LYS20       0.0311
     30  CG         9.2840   16.3130   68.1320 C.3    20  LYS20       0.0038
     31  CD         8.1790   15.4160   67.6100 C.3    20  LYS20       0.0206
     32  CE         8.6420   14.2170   66.8050 C.3    20  LYS20       0.1093
     33  NZ         7.4760   13.6180   66.1160 N.3    20  LYS20      -0.1314
     34  N         11.2200   18.7860   64.8590 N.am   21  GLY21      -0.1940
     35  CA        12.0000   18.9600   63.6430 C.3    21  GLY21       0.2014
     36  C         13.0540   20.0330   63.7440 C.2    21  GLY21       0.2639
     37  O         14.1800   19.8420   63.2810 O.2    21  GLY21      -0.2714
     38  N         12.6860   21.1720   64.3410 N.am   22  LEU22      -0.1963
     39  CA        13.6100   22.2940   64.5290 C.3    22  LEU22       0.1728
     40  C         14.5900   22.0050   65.6610 C.2    22  LEU22       0.2616
     41  O         15.7250   22.4470   65.5790 O.2    22  LEU22      -0.2715
     42  CB        12.8530   23.6090   64.7420 C.3    22  LEU22       0.0311
     43  CG        12.2180   24.1600   63.4340 C.3    22  LEU22       0.0022
     44  CD1       11.2100   25.2280   63.7320 C.3    22  LEU22       0.0001
     45  CD2       13.2550   24.7380   62.5060 C.3    22  LEU22       0.0001
     46  N         14.1910   21.1950   66.6700 N.am   23  THR23      -0.1951
     47  CA        15.1170   20.7800   67.7310 C.3    23  THR23       0.1897
     48  C         16.1670   19.8540   67.1260 C.2    23  THR23       0.2313
     49  O         17.3590   20.0460   67.3860 O.2    23  THR23      -0.2863
     50  CB        14.3760   20.1490   68.9300 C.3    23  THR23       0.1794
     51  OG1       13.3460   21.0570   69.3430 O.3    23  THR23      -0.2208
     52  CG2       15.3090   19.8940   70.1090 C.3    23  THR23       0.0378
     53  N         13.6180   12.2550   57.7470 N.3    42  LYS42      -0.1245
     54  CA        12.2990   12.3940   58.3490 C.3    42  LYS42       0.1561
     55  C         11.4640   11.1830   58.0150 C.2    42  LYS42       0.2260
     56  O         11.3280   10.8420   56.8310 O.2    42  LYS42      -0.2867
     57  CB        11.6030   13.6860   57.8460 C.3    42  LYS42       0.0271
     58  CG        10.1410   13.8710   58.3450 C.3    42  LYS42       0.0035
     59  CD        10.0270   14.1640   59.8620 C.3    42  LYS42       0.0206
     60  CE         8.5920   14.2210   60.3480 C.3    42  LYS42       0.1093
     61  NZ         7.8080   15.2660   59.6140 N.3    42  LYS42      -0.1314
     62  N         10.1720   19.4570   56.0300 N.3    74  ASP74      -0.1239
     63  CA        11.2130   19.2650   57.0530 C.3    74  ASP74       0.1674
     64  C         12.6180   19.1010   56.5020 C.2    74  ASP74       0.2266
     65  O         13.5650   19.5440   57.1480 O.2    74  ASP74      -0.2867
     66  CB        10.8980   18.0480   57.9060 C.3    74  ASP74       0.1410
     67  CG         9.9160   18.4220   58.9770 C.2    74  ASP74       0.3668
     68  OD1        9.8060   19.6350   59.2860 O.co2  74  ASP74      -0.2456
     69  OD2        9.2980   17.5160   59.5400 O.co2  74  ASP74      -0.2456
     70  N         14.2790   22.3430   56.3220 N.3    77  HIS77      -0.1241
     71  CA        14.8450   22.7540   57.6170 C.3    77  HIS77       0.1621
     72  C         16.1840   22.0750   57.8330 C.2    77  HIS77       0.2264
     73  O         17.1150   22.7220   58.2900 O.2    77  HIS77      -0.2867
     74  CB        13.9020   22.3920   58.7640 C.3    77  HIS77       0.0745
     75  CG        12.7110   23.2940   58.8940 C.ar   77  HIS77       0.0817
     76  ND1       12.8410   24.6730   58.8730 N.ar   77  HIS77      -0.2268
     77  CD2       11.4160   22.9790   59.1160 C.ar   77  HIS77       0.1154
     78  CE1       11.6170   25.1480   59.0470 C.ar   77  HIS77       0.1986
     79  NE2       10.7290   24.1660   59.2030 N.ar   77  HIS77      -0.2212
     80  N         14.3010   11.6890   62.4370 N.3   148  GLU148     -0.1245
     81  CA        13.1500   12.2370   63.1310 C.3   148  GLU148      0.1567
     82  C         11.9360   11.3240   62.8790 C.2   148  GLU148      0.2260
     83  O         11.5640   11.0650   61.7400 O.2   148  GLU148     -0.2867
     84  CB        12.8910   13.6800   62.6820 C.3   148  GLU148      0.0388
     85  CG        11.7620   14.3470   63.4580 C.3   148  GLU148      0.1160
     86  CD        11.1640   15.6210   62.8880 C.2   148  GLU148      0.3649
     87  OE1       11.7720   16.2450   61.9870 O.co2 148  GLU148     -0.2457
     88  OE2       10.0750   16.0050   63.3680 O.co2 148  GLU148     -0.2457
     89  N         10.1740   20.6530   76.3420 N.3   219  ARG219     -0.1245
     90  CA         9.6420   21.8540   75.6690 C.3   219  ARG219      0.1563
     91  C          8.7440   22.5660   76.6610 C.2   219  ARG219      0.2260
     92  O          7.9290   21.9380   77.3280 O.2   219  ARG219     -0.2867
     93  CB         8.9590   21.5080   74.3240 C.3   219  ARG219      0.0307
     94  CG        10.0030   21.0310   73.2730 C.3   219  ARG219      0.0489
     95  CD        10.8490   22.1700   72.6850 C.3   219  ARG219      0.2205
     96  NE         9.9940   23.0720   71.8990 N.pl3 219  ARG219     -0.0865
     97  CZ         9.5850   24.2800   72.2660 C.cat 219  ARG219      0.5346
     98  NH1        8.7530   24.9640   71.4940 N.pl3 219  ARG219      0.1354
     99  NH2       10.0140   24.8200   73.4030 N.pl3 219  ARG219      0.1354
    100  N         14.2370   23.1220   77.3840 N.3   246  THR246     -0.1204
    101  CA        14.2140   23.7320   76.0490 C.3   246  THR246      0.1979
    102  C         13.0680   24.7430   75.9820 C.2   246  THR246      0.2460
    103  O         11.9980   24.4240   75.4510 O.2   246  THR246     -0.2732
    104  CB        14.1160   22.6260   74.9760 C.3   246  THR246      0.1783
    105  OG1       15.0550   21.5960   75.3120 O.3   246  THR246     -0.2211
    106  CG2       14.4070   23.1510   73.5630 C.3   246  THR246      0.0376
    107  N         13.2460   25.9510   76.5600 N.am  247  PRO247     -0.2717
    108  CA        12.1440   26.9180   76.5200 C.3   247  PRO247      0.1535
    109  C         11.9590   27.4860   75.1230 C.2   247  PRO247      0.2599
    110  O         12.9070   27.4950   74.3260 O.2   247  PRO247     -0.2715
    111  CB        12.5410   28.0000   77.5430 C.3   247  PRO247      0.0310
    112  CG        13.9190   27.6630   77.9980 C.3   247  PRO247      0.0237
    113  CD        14.4480   26.5130   77.2110 C.3   247  PRO247      0.0939
    114  N         10.7200   27.9450   74.8150 N.am  248  ASP248     -0.1958
    115  CA        10.4230   28.5700   73.5290 C.3   248  ASP248      0.1840
    116  C         11.4460   29.6660   73.2650 C.2   248  ASP248      0.2621
    117  O         11.7210   30.4810   74.1540 O.2   248  ASP248     -0.2715
    118  CB         8.9950   29.1460   73.5170 C.3   248  ASP248      0.1450
    119  CG         7.8930   28.1190   73.7080 C.2   248  ASP248      0.3671
    120  OD1        8.0870   26.9420   73.2980 O.co2 248  ASP248     -0.2456
    121  OD2        6.8250   28.4930   74.2100 O.co2 248  ASP248     -0.2456
    122  N         12.0600   29.6450   72.0750 N.am  249  ALA249     -0.1977
    123  CA        13.0970   30.6050   71.6640 C.3   249  ALA249      0.1597
    124  C         12.4950   31.7830   70.8580 C.2   249  ALA249      0.2287
    125  O         11.4790   31.5810   70.1860 O.2   249  ALA249     -0.2864
    126  CB        14.1330   29.8810   70.8260 C.3   249  ALA249      0.0319
    127  N         13.6400   33.2570   68.0950 N.3   251  SER251     -0.1202
    128  CA        13.7600   32.9340   66.6810 C.3   251  SER251      0.2020
    129  C         14.2310   31.4980   66.5440 C.2   251  SER251      0.2618
    130  O         14.8770   30.9830   67.4550 O.2   251  SER251     -0.2717
    131  CB        14.7000   33.9140   65.9760 C.3   251  SER251      0.2103
    132  OG        15.9850   33.3780   65.7250 O.3   251  SER251     -0.2182
    133  N         13.9410   30.8550   65.4070 N.am  252  ILE252     -0.1979
    134  CA        14.3600   29.4630   65.1780 C.3   252  ILE252      0.1595
    135  C         15.8980   29.3330   65.2060 C.2   252  ILE252      0.2287
    136  O         16.4240   28.2750   65.5510 O.2   252  ILE252     -0.2864
    137  CB        13.7570   28.8700   63.8740 C.3   252  ILE252      0.0276
    138  CG1       14.2410   29.6070   62.6030 C.3   252  ILE252      0.0022
    139  CG2       12.1990   28.8210   63.9740 C.3   252  ILE252      0.0022
    140  CD1       14.0780   28.7840   61.2670 C.3   252  ILE252      0.0001
    141  N         17.5530   28.4040   68.7120 N.3   255  ILE255     -0.1245
    142  CA        17.4270   27.0570   69.2920 C.3   255  ILE255      0.1561
    143  C         18.8360   26.3900   69.4550 C.2   255  ILE255      0.2260
    144  O         19.0480   25.8340   70.5280 O.2   255  ILE255     -0.2867
    145  CB        16.4190   26.1530   68.5210 C.3   255  ILE255      0.0252
    146  CG1       15.0210   26.8540   68.4230 C.3   255  ILE255      0.0019
    147  CG2       16.3050   24.7630   69.2060 C.3   255  ILE255      0.0019
    148  CD1       14.0680   26.2840   67.3570 C.3   255  ILE255      0.0001
    149  N          3.7900   28.6630   55.7130 N.3   311  ASP311     -0.1239
    150  CA         4.5500   27.4280   55.4320 C.3   311  ASP311      0.1674
    151  C          4.4270   26.9860   53.9480 C.2   311  ASP311      0.2266
    152  O          5.2700   26.2270   53.4780 O.2   311  ASP311     -0.2867
    153  CB         4.1180   26.2790   56.3650 C.3   311  ASP311      0.1410
    154  CG         4.8500   26.2390   57.7000 C.2   311  ASP311      0.3668
    155  OD1        5.8450   26.9960   57.8650 O.co2 311  ASP311     -0.2456
    156  OD2        4.4780   25.4130   58.5530 O.co2 311  ASP311     -0.2456
@<TRIPOS>BOND
     1   152   151    2
     2   151   150    1
     3   150   149    1
     4   150   153    1
     5    62    63    1
     6    70    71    1
     7   153   154    1
     8    64    63    1
     9    64    65    2
    10    56    55    2
    11    63    66    1
    12    71    72    1
    13    71    74    1
    14   154   155   ar
    15   154   156   ar
    16    53    54    1
    17    72    73    2
    18    57    58    1
    19    57    54    1
    20    66    67    1
    21    55    54    1
    22    58    59    1
    23    74    75    1
    24    76    75   ar
    25    76    78   ar
    26    75    77   ar
    27    67    68   ar
    28    67    69   ar
    29    78    79   ar
    30    77    79   ar
    31    61    60    1
    32    59    60    1
    33   140   138    1
    34    83    82    2
    35    87    86   ar
    36    80    81    1
    37    45    43    1
    38   138   137    1
    39    84    81    1
    40    84    85    1
    41    82    81    1
    42    86    88   ar
    43    86    85    1
    44    37    36    2
    45    43    44    1
    46    43    42    1
    47    35    36    1
    48    35    34    1
    49    36    38   am
    50   137   139    1
    51   137   134    1
    52    38    39    1
    53    39    42    1
    54    39    40    1
    55    34    27   am
    56   134   135    1
    57   134   133    1
    58   135   136    2
    59   133   129   am
    60    41    40    2
    61    40    46   am
    62   132   131    1
    63   131   128    1
    64    27    28    2
    65    27    26    1
    66    33    32    1
    67    12    11    1
    68   129   128    1
    69   129   130    2
    70    46    47    1
    71   128   127    1
    72    32    31    1
    73     6     5    1
    74    29    26    1
    75    29    30    1
    76     5     2    1
    77    48    49    2
    78    48    47    1
    79    26    25    1
    80    25    23   am
    81    23    24    2
    82    23    22    1
    83    22    21    1
    84   148   146    1
    85     8     7    1
    86     8    11    1
    87     8     9    1
    88     7     3   am
    89    31    30    1
    90    47    50    1
    91    21    15   am
    92     2     3    1
    93     2     1    1
    94     9    10    2
    95     9    13   am
    96   146   145    1
    97     3     4    2
    98   145   147    1
    99   145   142    1
   100   141   142    1
   101    50    51    1
   102    50    52    1
   103    13    14    1
   104   142   143    1
   105    15    14    1
   106    15    16    2
   107   143   144    2
   108    14    17    1
   109   125   124    2
   110   126   123    1
   111   124   123    1
   112    17    18    1
   113    98    97    1
   114   123   122    1
   115    18    20    1
   116    18    19    1
   117    96    97    2
   118    96    95    1
   119   122   116   am
   120    97    99    1
   121    95    94    1
   122   116   115    1
   123   116   117    2
   124    94    93    1
   125   120   119   ar
   126   118   115    1
   127   118   119    1
   128   115   114    1
   129   106   104    1
   130   119   121   ar
   131    93    90    1
   132   110   109    2
   133   114   109   am
   134   104   105    1
   135   104   101    1
   136   109   108    1
   137   103   102    2
   138    90    89    1
   139    90    91    1
   140   102   101    1
   141   102   107   am
   142   101   100    1
   143   108   107    1
   144   108   111    1
   145   107   113    1
   146    91    92    2
   147   113   112    1
   148   111   112    1
