@<TRIPOS>MOLECULE
tmp/4zdkB01.pdb
 196 185 0 0 0
SMALL
GASTEIGER

@<TRIPOS>ATOM
      1  N         57.3070  -32.2240   -1.8470 N.3    14  SER14      -0.1202
      2  CA        57.8510  -31.6390   -3.0750 C.3    14  SER14       0.2020
      3  C         57.6590  -30.1190   -3.0800 C.2    14  SER14       0.2619
      4  O         57.0610  -29.5750   -2.1460 O.2    14  SER14      -0.2717
      5  CB        57.1770  -32.2620   -4.2940 C.3    14  SER14       0.2103
      6  OG        55.7700  -32.0790   -4.2540 O.3    14  SER14      -0.2182
      7  N         58.1830  -29.4390   -4.1240 N.am   15  SER15      -0.1937
      8  CA        58.0490  -27.9970   -4.3610 C.3    15  SER15       0.2055
      9  C         58.6590  -27.1280   -3.2430 C.2    15  SER15       0.2643
     10  O         58.2200  -25.9880   -3.0270 O.2    15  SER15      -0.2714
     11  CB        56.5830  -27.6190   -4.5690 C.3    15  SER15       0.2130
     12  OG        55.9320  -28.5030   -5.4660 O.3    15  SER15      -0.2179
     13  N         59.6960  -27.6430   -2.5690 N.am   16  LEU16      -0.1963
     14  CA        60.3600  -26.8710   -1.5180 C.3    16  LEU16       0.1728
     15  C         61.3780  -25.9010   -2.0990 C.2    16  LEU16       0.2617
     16  O         61.7800  -24.9590   -1.4320 O.2    16  LEU16      -0.2715
     17  CB        61.0230  -27.7760   -0.4710 C.3    16  LEU16       0.0311
     18  CG        60.0910  -28.6780    0.3180 C.3    16  LEU16       0.0022
     19  CD1       60.8420  -29.4060    1.3930 C.3    16  LEU16       0.0001
     20  CD2       58.9260  -27.8990    0.9200 C.3    16  LEU16       0.0001
     21  N         61.7550  -26.0940   -3.3400 N.am   17  GLY17      -0.1940
     22  CA        62.7260  -25.1990   -3.9380 C.3    17  GLY17       0.2014
     23  C         64.1030  -25.7900   -4.0580 C.2    17  GLY17       0.2639
     24  O         65.0790  -25.0440   -4.0480 O.2    17  GLY17      -0.2714
     25  N         64.1920  -27.1240   -4.2050 N.am   18  LYS18      -0.1963
     26  CA        65.4680  -27.8420   -4.3410 C.3    18  LYS18       0.1728
     27  C         66.3150  -27.3220   -5.4970 C.2    18  LYS18       0.2617
     28  O         67.5170  -27.1400   -5.3430 O.2    18  LYS18      -0.2715
     29  CB        65.2330  -29.3400   -4.5820 C.3    18  LYS18       0.0311
     30  CG        64.6480  -30.1190   -3.4330 C.3    18  LYS18       0.0038
     31  CD        63.8150  -31.2750   -3.9520 C.3    18  LYS18       0.0206
     32  CE        64.6010  -32.2880   -4.7470 C.3    18  LYS18       0.1093
     33  NZ        63.6850  -33.2310   -5.4280 N.3    18  LYS18      -0.1314
     34  N         65.6690  -27.1270   -6.6450 N.am   19  GLY19      -0.1940
     35  CA        66.2890  -26.6760   -7.8800 C.3    19  GLY19       0.2014
     36  C         66.9500  -25.3260   -7.7810 C.2    19  GLY19       0.2639
     37  O         68.0700  -25.1540   -8.2660 O.2    19  GLY19      -0.2714
     38  N         66.2580  -24.3610   -7.1550 N.am   20  LEU20      -0.1963
     39  CA        66.7640  -23.0050   -6.9770 C.3    20  LEU20       0.1728
     40  C         67.8380  -22.9740   -5.9000 C.2    20  LEU20       0.2616
     41  O         68.7560  -22.1670   -6.0120 O.2    20  LEU20      -0.2715
     42  CB        65.6290  -22.0220   -6.6470 C.3    20  LEU20       0.0311
     43  CG        64.7780  -21.4610   -7.7970 C.3    20  LEU20       0.0022
     44  CD1       65.4730  -20.3250   -8.5410 C.3    20  LEU20       0.0001
     45  CD2       64.1850  -22.5130   -8.6990 C.3    20  LEU20       0.0001
     46  N         67.7660  -23.8720   -4.8870 N.am   21  THR21      -0.1951
     47  CA        68.7950  -23.9630   -3.8460 C.3    21  THR21       0.1897
     48  C         70.0750  -24.5150   -4.4850 C.2    21  THR21       0.2313
     49  O         71.1480  -23.9630   -4.2580 O.2    21  THR21      -0.2863
     50  CB        68.3110  -24.7950   -2.6530 C.3    21  THR21       0.1794
     51  OG1       67.0570  -24.2780   -2.2030 O.3    21  THR21      -0.2208
     52  CG2       69.2910  -24.7720   -1.4970 C.3    21  THR21       0.0378
     53  N         69.7060  -32.5540  -13.8940 N.3    40  LYS40      -0.1245
     54  CA        68.4290  -32.8570  -13.2580 C.3    40  LYS40       0.1561
     55  C         68.0240  -34.2810  -13.5800 C.2    40  LYS40       0.2260
     56  O         67.9810  -34.6480  -14.7570 O.2    40  LYS40      -0.2867
     57  CB        67.3220  -31.8640  -13.7070 C.3    40  LYS40       0.0271
     58  CG        65.9100  -32.1740  -13.1740 C.3    40  LYS40       0.0035
     59  CD        65.7550  -31.9310  -11.6670 C.3    40  LYS40       0.0206
     60  CE        64.4230  -32.3820  -11.1080 C.3    40  LYS40       0.1093
     61  NZ        63.2730  -31.6820  -11.7310 N.3    40  LYS40      -0.1314
     62  N         64.8790  -36.5480  -13.5290 N.3    42  ASP42      -0.1239
     63  CA        63.4240  -36.4820  -13.4680 C.3    42  ASP42       0.1674
     64  C         62.8240  -37.8660  -13.4350 C.2    42  ASP42       0.2266
     65  O         63.0090  -38.6330  -14.3750 O.2    42  ASP42      -0.2867
     66  CB        62.8590  -35.6870  -14.6430 C.3    42  ASP42       0.1410
     67  CG        62.8630  -34.1980  -14.3880 C.2    42  ASP42       0.3668
     68  OD1       62.3410  -33.7720  -13.3260 O.co2  42  ASP42      -0.2456
     69  OD2       63.3370  -33.4530  -15.2670 O.co2  42  ASP42      -0.2456
     70  N         63.4340  -30.3720  -19.0780 N.3    70  ASP70      -0.1225
     71  CA        62.7060  -29.8260  -17.9460 C.3    70  ASP70       0.1805
     72  C         63.1200  -28.3690  -17.7370 C.2    70  ASP70       0.2598
     73  O         64.2920  -28.0380  -17.9630 O.2    70  ASP70      -0.2718
     74  CB        63.0300  -30.6420  -16.6940 C.3    70  ASP70       0.1424
     75  CG        62.1410  -30.2930  -15.5210 C.2    70  ASP70       0.3668
     76  OD1       60.9870  -30.7910  -15.4770 O.co2  70  ASP70      -0.2456
     77  OD2       62.5600  -29.4590  -14.6890 O.co2  70  ASP70      -0.2456
     78  N         62.1890  -27.5040  -17.2790 N.am   71  LEU71      -0.1966
     79  CA        62.5000  -26.0850  -17.0720 C.3    71  LEU71       0.1728
     80  C         63.6570  -25.8420  -16.0890 C.2    71  LEU71       0.2616
     81  O         64.2190  -24.7430  -16.0850 O.2    71  LEU71      -0.2715
     82  CB        61.2740  -25.2570  -16.6480 C.3    71  LEU71       0.0311
     83  CG        60.5310  -25.5580  -15.3550 C.3    71  LEU71       0.0022
     84  CD1       61.2430  -24.9610  -14.1460 C.3    71  LEU71       0.0001
     85  CD2       59.1520  -24.9340  -15.4060 C.3    71  LEU71       0.0001
     86  N         64.0090  -26.8440  -15.2670 N.am   72  ASP72      -0.1971
     87  CA        65.0910  -26.7030  -14.2970 C.3    72  ASP72       0.1709
     88  C         66.4380  -26.3870  -14.9240 C.2    72  ASP72       0.2293
     89  O         67.2270  -25.6680  -14.3110 O.2    72  ASP72      -0.2864
     90  CB        65.2130  -27.9490  -13.4420 C.3    72  ASP72       0.1436
     91  CG        64.1960  -27.9550  -12.3260 C.2    72  ASP72       0.3671
     92  OD1       63.6790  -26.8600  -11.9790 O.co2  72  ASP72      -0.2456
     93  OD2       63.9360  -29.0330  -11.7770 O.co2  72  ASP72      -0.2456
     94  N         66.9620  -22.7820  -15.0530 N.3    75  HIS75      -0.1241
     95  CA        67.4310  -22.2250  -13.7910 C.3    75  HIS75       0.1621
     96  C         68.9340  -22.4140  -13.6790 C.2    75  HIS75       0.2264
     97  O         69.6270  -21.4860  -13.2650 O.2    75  HIS75      -0.2867
     98  CB        66.7430  -22.8860  -12.5910 C.3    75  HIS75       0.0745
     99  CG        65.3280  -22.4820  -12.3500 C.ar   75  HIS75       0.0817
    100  ND1       64.3200  -23.4260  -12.3160 N.ar   75  HIS75      -0.2268
    101  CD2       64.8050  -21.2710  -12.0430 C.ar   75  HIS75       0.1154
    102  CE1       63.2120  -22.7600  -12.0400 C.ar   75  HIS75       0.1986
    103  NE2       63.4520  -21.4620  -11.8600 N.ar   75  HIS75      -0.2212
    104  N         70.6750  -32.8740   -9.2470 N.3   146  GLU146     -0.1245
    105  CA        69.4290  -32.7370   -8.5140 C.3   146  GLU146      0.1567
    106  C         68.5760  -33.9840   -8.7410 C.2   146  GLU146      0.2260
    107  O         68.2780  -34.3360   -9.8830 O.2   146  GLU146     -0.2867
    108  CB        68.6940  -31.4640   -8.9460 C.3   146  GLU146      0.0388
    109  CG        67.4610  -31.1840   -8.1120 C.3   146  GLU146      0.1160
    110  CD        66.4750  -30.1630   -8.6350 C.2   146  GLU146      0.3649
    111  OE1       66.8240  -29.3770   -9.5440 O.co2 146  GLU146     -0.2457
    112  OE2       65.3320  -30.1590   -8.1300 O.co2 146  GLU146     -0.2457
    113  N         65.1540  -35.5660   -8.6050 N.3   148  GLY148     -0.1210
    114  CA        63.7270  -35.2730   -8.6000 C.3   148  GLY148      0.1956
    115  C         62.9610  -36.2970   -7.7990 C.2   148  GLY148      0.2612
    116  O         63.4600  -37.3980   -7.5460 O.2   148  GLY148     -0.2717
    117  N         61.7630  -35.9150   -7.3840 N.am  149  GLY149     -0.1956
    118  CA        60.9250  -36.7430   -6.5300 C.3   149  GLY149      0.1869
    119  C         61.3240  -36.5580   -5.0780 C.2   149  GLY149      0.2309
    120  O         62.2710  -35.8270   -4.7700 O.2   149  GLY149     -0.2863
    121  N         64.1770  -25.6490    4.7530 N.3   217  ARG217     -0.1245
    122  CA        63.2780  -24.7080    4.0930 C.3   217  ARG217      0.1563
    123  C         62.1960  -24.3290    5.0900 C.2   217  ARG217      0.2260
    124  O         61.6060  -25.2000    5.7330 O.2   217  ARG217     -0.2867
    125  CB        62.7360  -25.2750    2.7770 C.3   217  ARG217      0.0307
    126  CG        63.8420  -25.3980    1.7270 C.3   217  ARG217      0.0489
    127  CD        63.5550  -24.6310    0.4620 C.3   217  ARG217      0.2205
    128  NE        63.6640  -23.1870    0.6260 N.pl3 217  ARG217     -0.0865
    129  CZ        62.6490  -22.3430    0.7930 C.cat 217  ARG217      0.5346
    130  NH1       61.3990  -22.7880    0.8170 N.pl3 217  ARG217      0.1354
    131  NH2       62.8820  -21.0650    1.0310 N.pl3 217  ARG217      0.1354
    132  N         67.2480  -21.9960    5.7380 N.3   244  THR244     -0.1204
    133  CA        66.9900  -21.4310    4.4120 C.3   244  THR244      0.1979
    134  C         65.5590  -20.8480    4.3800 C.2   244  THR244      0.2460
    135  O         64.6410  -21.5000    3.8700 O.2   244  THR244     -0.2732
    136  CB        67.2580  -22.5030    3.3380 C.3   244  THR244      0.1783
    137  OG1       68.4730  -23.1860    3.6560 O.3   244  THR244     -0.2211
    138  CG2       67.3640  -21.9220    1.9420 C.3   244  THR244      0.0376
    139  N         65.3320  -19.6440    4.9560 N.am  245  PRO245     -0.2717
    140  CA        63.9700  -19.0920    4.9400 C.3   245  PRO245      0.1535
    141  C         63.5990  -18.5860    3.5650 C.2   245  PRO245      0.2599
    142  O         64.4950  -18.2570    2.7760 O.2   245  PRO245     -0.2715
    143  CB        64.0000  -17.9550    5.9670 C.3   245  PRO245      0.0310
    144  CG        65.4040  -17.8290    6.4090 C.3   245  PRO245      0.0237
    145  CD        66.2830  -18.7240    5.6080 C.3   245  PRO245      0.0939
    146  N         62.2760  -18.5450    3.2730 N.am  246  ASP246     -0.1958
    147  CA        61.7490  -18.0540    1.9980 C.3   246  ASP246      0.1840
    148  C         62.3070  -16.6710    1.7370 C.2   246  ASP246      0.2621
    149  O         62.2610  -15.8160    2.6250 O.2   246  ASP246     -0.2715
    150  CB        60.2130  -18.0440    1.9870 C.3   246  ASP246      0.1450
    151  CG        59.5570  -19.4020    2.1690 C.2   246  ASP246      0.3671
    152  OD1       60.1590  -20.4210    1.7470 O.co2 246  ASP246     -0.2456
    153  OD2       58.4250  -19.4440    2.6900 O.co2 246  ASP246     -0.2456
    154  N         62.9210  -16.4910    0.5590 N.am  247  ALA247     -0.1977
    155  CA        63.5910  -15.2570    0.1590 C.3   247  ALA247      0.1597
    156  C         62.6430  -14.3150   -0.6340 C.2   247  ALA247      0.2287
    157  O         61.7220  -14.8080   -1.2920 O.2   247  ALA247     -0.2864
    158  CB        64.8360  -15.5940   -0.6650 C.3   247  ALA247      0.0319
    159  N         63.3000  -12.5150   -3.3560 N.3   249  SER249     -0.1202
    160  CA        63.5380  -12.7700   -4.7690 C.3   249  SER249      0.2020
    161  C         64.4390  -14.0000   -4.9010 C.2   249  SER249      0.2618
    162  O         65.2050  -14.3010   -3.9790 O.2   249  SER249     -0.2717
    163  CB        64.1380  -11.5420   -5.4430 C.3   249  SER249      0.2103
    164  OG        65.5370  -11.6610   -5.6150 O.3   249  SER249     -0.2182
    165  N         64.3600  -14.7090   -6.0360 N.am  250  ILE250     -0.1979
    166  CA        65.1830  -15.9070   -6.2640 C.3   250  ILE250      0.1595
    167  C         66.6840  -15.5580   -6.2660 C.2   250  ILE250      0.2287
    168  O         67.5170  -16.4060   -5.9430 O.2   250  ILE250     -0.2864
    169  CB        64.7880  -16.6680   -7.5540 C.3   250  ILE250      0.0276
    170  CG1       64.9750  -15.8050   -8.8240 C.3   250  ILE250      0.0022
    171  CG2       63.3690  -17.2470   -7.4400 C.3   250  ILE250      0.0022
    172  CD1       65.2090  -16.5950  -10.1240 C.3   250  ILE250      0.0001
    173  N         68.5960  -15.9570   -2.7990 N.3   253  ILE253     -0.1245
    174  CA        68.9370  -17.2890   -2.2750 C.3   253  ILE253      0.1561
    175  C         70.4890  -17.4760   -2.1570 C.2   253  ILE253      0.2260
    176  O         70.8980  -17.9180   -1.0830 O.2   253  ILE253     -0.2867
    177  CB        68.2470  -18.4510   -3.0390 C.3   253  ILE253      0.0252
    178  CG1       66.7120  -18.2290   -3.0870 C.3   253  ILE253      0.0019
    179  CG2       68.5880  -19.8130   -2.3910 C.3   253  ILE253      0.0019
    180  CD1       65.9750  -19.0440   -4.1400 C.3   253  ILE253      0.0001
    181  N         54.7820  -20.4960  -14.8460 N.3   309  ASP309     -0.1239
    182  CA        55.9830  -21.2720  -15.1470 C.3   309  ASP309      0.1674
    183  C         55.9650  -21.6820  -16.6340 C.2   309  ASP309      0.2266
    184  O         57.0010  -22.0660  -17.1670 O.2   309  ASP309     -0.2867
    185  CB        56.0700  -22.5090  -14.2370 C.3   309  ASP309      0.1410
    186  CG        56.8310  -22.2940  -12.9390 C.2   309  ASP309      0.3668
    187  OD1       57.4750  -21.2250  -12.7900 O.co2 309  ASP309     -0.2456
    188  OD2       56.8180  -23.2110  -12.0860 O.co2 309  ASP309     -0.2456
    189  N         58.1890  -18.9750  -17.8570 N.3   312  LEU312     -0.1245
    190  CA        59.2480  -18.6600  -16.9000 C.3   312  LEU312      0.1561
    191  C         60.4680  -17.9620  -17.5430 C.2   312  LEU312      0.2260
    192  O         60.8430  -16.8830  -17.0760 O.2   312  LEU312     -0.2867
    193  CB        59.6810  -19.9310  -16.1590 C.3   312  LEU312      0.0270
    194  CG        60.8420  -19.8210  -15.1550 C.3   312  LEU312      0.0019
    195  CD1       60.5250  -18.8430  -14.0100 C.3   312  LEU312      0.0001
    196  CD2       61.1800  -21.1890  -14.5840 C.3   312  LEU312      0.0001
@<TRIPOS>BOND
     1    70    71    1
     2    73    72    2
     3    71    72    1
     4    71    74    1
     5   189   190    1
     6    72    78   am
     7   191   192    2
     8   191   190    1
     9    78    79    1
    10   184   183    2
    11    79    82    1
    12    79    80    1
    13   190   193    1
    14    74    75    1
    15    82    83    1
    16   183   182    1
    17   193   194    1
    18    80    81    2
    19    80    86   am
    20    75    76   ar
    21    75    77   ar
    22    85    83    1
    23    83    84    1
    24    69    67   ar
    25    86    87    1
    26   194   196    1
    27   194   195    1
    28   182   181    1
    29   182   185    1
    30    94    95    1
    31    88    89    2
    32    88    87    1
    33    56    55    2
    34    66    67    1
    35    66    63    1
    36    67    68   ar
    37    65    64    2
    38    87    90    1
    39   185   186    1
    40    53    54    1
    41    95    96    1
    42    95    98    1
    43    57    54    1
    44    57    58    1
    45    96    97    2
    46    55    54    1
    47    62    63    1
    48    63    64    1
    49    90    91    1
    50    58    59    1
    51   186   187   ar
    52   186   188   ar
    53    98    99    1
    54    99   100   ar
    55    99   101   ar
    56    91    92   ar
    57    91    93   ar
    58   100   102   ar
    59   101   103   ar
    60   102   103   ar
    61    61    60    1
    62    59    60    1
    63   172   170    1
    64   107   106    2
    65   111   110   ar
    66   104   105    1
    67   108   105    1
    68   108   109    1
    69   170   169    1
    70   106   105    1
    71    45    43    1
    72   110   112   ar
    73   110   109    1
    74   113   114    1
    75   114   115    1
    76    44    43    1
    77    37    36    2
    78    35    36    1
    79    35    34    1
    80   115   116    2
    81   115   117   am
    82    43    42    1
    83    36    38   am
    84   169   171    1
    85   169   166    1
    86   117   118    1
    87    38    39    1
    88    39    42    1
    89    39    40    1
    90    34    27   am
    91   118   119    1
    92   167   166    1
    93   167   168    2
    94   166   165    1
    95   165   161   am
    96    41    40    2
    97    40    46   am
    98   164   163    1
    99    27    28    2
   100    27    26    1
   101    12    11    1
   102   163   160    1
   103    33    32    1
   104   119   120    2
   105   161   160    1
   106   161   162    2
   107    46    47    1
   108   160   159    1
   109    32    31    1
   110    29    26    1
   111    29    30    1
   112    11     8    1
   113    48    49    2
   114    48    47    1
   115     8     7    1
   116     8     9    1
   117    26    25    1
   118     5     6    1
   119     5     2    1
   120    25    23   am
   121   180   178    1
   122     7     3   am
   123    23    24    2
   124    23    22    1
   125    31    30    1
   126    22    21    1
   127    47    50    1
   128    21    15   am
   129     9    10    2
   130     9    13   am
   131   178   177    1
   132     3     2    1
   133     3     4    2
   134     2     1    1
   135   177   179    1
   136   177   174    1
   137   173   174    1
   138    50    51    1
   139    50    52    1
   140    13    14    1
   141   174   175    1
   142   175   176    2
   143    15    14    1
   144    15    16    2
   145    14    17    1
   146   157   156    2
   147   158   155    1
   148   156   155    1
   149    17    18    1
   150   155   154    1
   151    18    20    1
   152    18    19    1
   153   127   128    1
   154   127   126    1
   155   154   148   am
   156   128   129    2
   157   129   130    1
   158   129   131    1
   159   126   125    1
   160   148   147    1
   161   148   149    2
   162   152   151   ar
   163   138   136    1
   164   150   147    1
   165   150   151    1
   166   147   146    1
   167   151   153   ar
   168   142   141    2
   169   125   122    1
   170   146   141   am
   171   136   137    1
   172   136   133    1
   173   141   140    1
   174   135   134    2
   175   122   121    1
   176   122   123    1
   177   134   133    1
   178   134   139   am
   179   133   132    1
   180   140   139    1
   181   140   143    1
   182   139   145    1
   183   123   124    2
   184   145   144    1
   185   143   144    1
