@<TRIPOS>MOLECULE
tmp/4zdkB00.pdb
 128 126 0 0 0
SMALL
GASTEIGER

@<TRIPOS>ATOM
      1  N         55.8280  -17.4440  -27.2910 N.3   359  GLY359     -0.1210
      2  CA        55.7190  -18.7110  -27.9940 C.3   359  GLY359      0.1956
      3  C         54.5200  -19.4810  -27.5100 C.2   359  GLY359      0.2612
      4  O         54.0290  -19.2420  -26.4060 O.2   359  GLY359     -0.2717
      5  N         54.0330  -20.3680  -28.3480 N.am  360  GLY360     -0.1942
      6  CA        52.8590  -21.1520  -28.0300 C.3   360  GLY360      0.2014
      7  C         52.8900  -22.4920  -28.7080 C.2   360  GLY360      0.2639
      8  O         51.9990  -22.8100  -29.5110 O.2   360  GLY360     -0.2714
      9  N         53.9210  -23.2830  -28.3840 N.am  361  PHE361     -0.1959
     10  CA        54.0270  -24.6230  -28.9340 C.3   361  PHE361      0.1771
     11  C         52.8320  -25.4430  -28.4330 C.2   361  PHE361      0.2620
     12  O         52.5440  -25.4420  -27.2360 O.2   361  PHE361     -0.2715
     13  CB        55.3680  -25.2620  -28.5580 C.3   361  PHE361      0.0574
     14  CG        55.6430  -26.5410  -29.3030 C.ar  361  PHE361     -0.0200
     15  CD1       55.1430  -27.7520  -28.8420 C.ar  361  PHE361     -0.0042
     16  CD2       56.4050  -26.5380  -30.4650 C.ar  361  PHE361     -0.0042
     17  CE1       55.3970  -28.9390  -29.5280 C.ar  361  PHE361     -0.0003
     18  CE2       56.6610  -27.7260  -31.1500 C.ar  361  PHE361     -0.0003
     19  CZ        56.1610  -28.9200  -30.6740 C.ar  361  PHE361     -0.0000
     20  N         52.0900  -26.0280  -29.3670 N.am  362  GLY362     -0.1954
     21  CA        50.9010  -26.8210  -29.0620 C.3   362  GLY362      0.1869
     22  C         49.6130  -26.0960  -28.6720 C.2   362  GLY362      0.2309
     23  O         48.6180  -26.7720  -28.3950 O.2   362  GLY362     -0.2863
     24  N         58.6140  -16.6640  -31.7090 N.3   387  CYS387     -0.1221
     25  CA        58.1720  -17.8350  -32.4800 C.3   387  CYS387      0.1808
     26  C         56.7210  -17.6360  -33.0010 C.2   387  CYS387      0.2601
     27  O         56.5320  -17.0280  -34.0630 O.2   387  CYS387     -0.2717
     28  CB        58.3240  -19.1100  -31.6540 C.3   387  CYS387      0.0970
     29  SG        58.1650  -20.6410  -32.6080 S.3   387  CYS387     -0.0800
     30  N         55.7030  -18.0880  -32.2360 N.am  388  LEU388     -0.1979
     31  CA        54.2980  -17.8630  -32.5800 C.3   388  LEU388      0.1596
     32  C         54.0420  -16.3540  -32.7020 C.2   388  LEU388      0.2287
     33  O         53.2520  -15.9380  -33.5420 O.2   388  LEU388     -0.2864
     34  CB        53.3760  -18.5010  -31.5290 C.3   388  LEU388      0.0297
     35  CG        51.8610  -18.3170  -31.6960 C.3   388  LEU388      0.0022
     36  CD1       51.3840  -18.7370  -33.0780 C.3   388  LEU388      0.0001
     37  CD2       51.1050  -19.0740  -30.6350 C.3   388  LEU388      0.0001
     38  N         55.0310  -15.1890  -36.1390 N.3   391  GLN391     -0.1245
     39  CA        54.0000  -15.7330  -37.0140 C.3   391  GLN391      0.1566
     40  C         52.7250  -14.8800  -36.9360 C.2   391  GLN391      0.2260
     41  O         52.1750  -14.5450  -37.9830 O.2   391  GLN391     -0.2867
     42  CB        53.7500  -17.2020  -36.6770 C.3   391  GLN391      0.0367
     43  CG        54.9850  -18.0560  -36.9910 C.3   391  GLN391      0.0905
     44  CD        54.9370  -19.4610  -36.4420 C.2   391  GLN391      0.2608
     45  OE1       53.8780  -19.9850  -36.0890 O.2   391  GLN391     -0.2717
     46  NE2       56.0910  -20.1200  -36.3830 N.am  391  GLN391     -0.0878
     47  N         48.8610  -24.2000  -39.6120 N.3   410  GLU410     -0.1231
     48  CA        48.8290  -24.8880  -38.3180 C.3   410  GLU410      0.1699
     49  C         47.4800  -24.6690  -37.6140 C.2   410  GLU410      0.2592
     50  O         46.9230  -25.6170  -37.0570 O.2   410  GLU410     -0.2718
     51  CB        49.9740  -24.3940  -37.4060 C.3   410  GLU410      0.0402
     52  CG        50.0820  -25.1500  -36.0870 C.3   410  GLU410      0.1161
     53  CD        51.1440  -24.6900  -35.1050 C.2   410  GLU410      0.3649
     54  OE1       52.0040  -23.8730  -35.5030 O.co2 410  GLU410     -0.2457
     55  OE2       51.1210  -25.1520  -33.9400 O.co2 410  GLU410     -0.2457
     56  N         46.9690  -23.4210  -37.6410 N.am  411  PHE411     -0.1976
     57  CA        45.7580  -23.0160  -36.9310 C.3   411  PHE411      0.1639
     58  C         44.5080  -22.9940  -37.8160 C.2   411  PHE411      0.2290
     59  O         43.4040  -23.0970  -37.2840 O.2   411  PHE411     -0.2864
     60  CB        45.9820  -21.6610  -36.2400 C.3   411  PHE411      0.0560
     61  CG        47.1620  -21.7230  -35.2890 C.ar  411  PHE411     -0.0200
     62  CD1       47.0490  -22.3500  -34.0520 C.ar  411  PHE411     -0.0042
     63  CD2       48.4010  -21.2130  -35.6580 C.ar  411  PHE411     -0.0042
     64  CE1       48.1520  -22.4460  -33.1980 C.ar  411  PHE411     -0.0003
     65  CE2       49.5040  -21.3220  -34.8050 C.ar  411  PHE411     -0.0003
     66  CZ        49.3700  -21.9300  -33.5790 C.ar  411  PHE411     -0.0000
     67  N         61.1750  -30.0370  -38.2430 N.3   427  MET427     -0.1245
     68  CA        61.1710  -29.5020  -36.8940 C.3   427  MET427      0.1570
     69  C         62.5590  -28.9240  -36.6120 C.2   427  MET427      0.2261
     70  O         63.5500  -29.6570  -36.6630 O.2   427  MET427     -0.2867
     71  CB        60.7890  -30.5980  -35.8870 C.3   427  MET427      0.0387
     72  CG        60.7460  -30.1180  -34.4630 C.3   427  MET427      0.0595
     73  SD        59.3850  -28.9840  -34.1530 S.3   427  MET427     -0.1393
     74  CE        59.8040  -28.4660  -32.5880 C.3   427  MET427      0.0692
     75  N         62.3420  -24.0420  -31.7070 N.3   456  ARG456     -0.1231
     76  CA        61.4240  -25.1240  -31.3720 C.3   456  ARG456      0.1694
     77  C         60.1450  -24.9290  -32.1980 C.2   456  ARG456      0.2592
     78  O         59.1160  -24.4980  -31.6710 O.2   456  ARG456     -0.2718
     79  CB        61.1410  -25.2000  -29.8610 C.3   456  ARG456      0.0321
     80  CG        60.4010  -26.4740  -29.4930 C.3   456  ARG456      0.0489
     81  CD        59.9240  -26.4780  -28.0850 C.3   456  ARG456      0.2205
     82  NE        59.2350  -27.7290  -27.8300 N.pl3 456  ARG456     -0.0865
     83  CZ        58.1860  -27.8490  -27.0350 C.cat 456  ARG456      0.5346
     84  NH1       57.7080  -26.7920  -26.3900 N.pl3 456  ARG456      0.1354
     85  NH2       57.6090  -29.0280  -26.8670 N.pl3 456  ARG456      0.1354
     86  N         60.2260  -25.2110  -33.5110 N.am  457  HIS457     -0.1962
     87  CA        59.0800  -25.0420  -34.4140 C.3   457  HIS457      0.1787
     88  C         59.2920  -25.7340  -35.7510 C.2   457  HIS457      0.2620
     89  O         60.4350  -25.9390  -36.1640 O.2   457  HIS457     -0.2715
     90  CB        58.8040  -23.5480  -34.6630 C.3   457  HIS457      0.0785
     91  CG        59.8800  -22.8730  -35.4490 C.ar  457  HIS457      0.0821
     92  ND1       59.7210  -22.6050  -36.7960 N.ar  457  HIS457     -0.2267
     93  CD2       61.1240  -22.4960  -35.0690 C.ar  457  HIS457      0.1154
     94  CE1       60.8560  -22.0530  -37.1870 C.ar  457  HIS457      0.1986
     95  NE2       61.7310  -21.9660  -36.1810 N.ar  457  HIS457     -0.2212
     96  N         58.1860  -26.0320  -36.4510 N.am  458  ARG458     -0.1963
     97  CA        58.2370  -26.6560  -37.7630 C.3   458  ARG458      0.1729
     98  C         57.5250  -25.7750  -38.8180 C.2   458  ARG458      0.2616
     99  O         57.6680  -26.0170  -40.0220 O.2   458  ARG458     -0.2715
    100  CB        57.6530  -28.0690  -37.7040 C.3   458  ARG458      0.0348
    101  CG        57.8820  -28.8510  -38.9720 C.3   458  ARG458      0.0492
    102  CD        57.8510  -30.3180  -38.7110 C.3   458  ARG458      0.2205
    103  NE        56.5110  -30.7040  -38.3130 N.pl3 458  ARG458     -0.0865
    104  CZ        56.2460  -31.4780  -37.2720 C.cat 458  ARG458      0.5346
    105  NH1       57.2320  -31.9650  -36.5310 N.pl3 458  ARG458      0.1354
    106  NH2       54.9930  -31.7840  -36.9690 N.pl3 458  ARG458      0.1354
    107  N         56.8060  -24.7290  -38.3760 N.am  459  TYR459     -0.1974
    108  CA        56.1320  -23.8110  -39.2960 C.3   459  TYR459      0.1639
    109  C         57.0400  -22.6220  -39.5770 C.2   459  TYR459      0.2290
    110  O         57.7420  -22.1520  -38.6820 O.2   459  TYR459     -0.2864
    111  CB        54.7520  -23.3870  -38.7650 C.3   459  TYR459      0.0560
    112  CG        53.7280  -24.4870  -38.9410 C.ar  459  TYR459     -0.0198
    113  CD1       53.6380  -25.5350  -38.0290 C.ar  459  TYR459     -0.0009
    114  CD2       52.9000  -24.5230  -40.0580 C.ar  459  TYR459     -0.0009
    115  CE1       52.7510  -26.5920  -38.2250 C.ar  459  TYR459      0.0417
    116  CE2       51.9940  -25.5650  -40.2550 C.ar  459  TYR459      0.0417
    117  CZ        51.9260  -26.6010  -39.3380 C.ar  459  TYR459      0.1957
    118  OH        51.0270  -27.6240  -39.5200 O.3   459  TYR459     -0.2866
    119  N         63.6300  -18.4920  -29.7430 N.3   505  HIS505     -0.1241
    120  CA        63.3510  -18.2450  -28.3390 C.3   505  HIS505      0.1621
    121  C         64.5730  -17.5870  -27.6920 C.2   505  HIS505      0.2264
    122  O         65.3480  -18.2620  -27.0060 O.2   505  HIS505     -0.2867
    123  CB        62.9430  -19.5380  -27.6300 C.3   505  HIS505      0.0745
    124  CG        61.5840  -19.9980  -28.0350 C.ar  505  HIS505      0.0817
    125  ND1       60.4430  -19.3370  -27.6050 N.ar  505  HIS505     -0.2268
    126  CD2       61.2240  -21.0030  -28.8650 C.ar  505  HIS505      0.1154
    127  CE1       59.4290  -19.9780  -28.1570 C.ar  505  HIS505      0.1986
    128  NE2       59.8480  -20.9860  -28.9270 N.ar  505  HIS505     -0.2212
@<TRIPOS>BOND
     1   116   114   ar
     2   116   117   ar
     3   114   112   ar
     4    99    98    2
     5    47    48    1
     6   109   108    1
     7   109   110    2
     8   118   117    1
     9   117   115   ar
    10   108   111    1
    11   108   107    1
    12   101   102    1
    13   101   100    1
    14   112   111    1
    15   112   113   ar
    16    98   107   am
    17    98    97    1
    18   102   103    1
    19    48    49    1
    20    48    51    1
    21   103   104    2
    22    67    68    1
    23   115   113   ar
    24    41    40    2
    25    58    59    2
    26    58    57    1
    27    97   100    1
    28    97    96    1
    29    56    49   am
    30    56    57    1
    31    49    50    2
    32    51    52    1
    33   104   106    1
    34   104   105    1
    35    94    92   ar
    36    94    95   ar
    37    39    40    1
    38    39    42    1
    39    39    38    1
    40    43    42    1
    41    43    44    1
    42    57    60    1
    43    68    69    1
    44    68    71    1
    45    92    91   ar
    46    70    69    2
    47    96    88   am
    48    44    46   am
    49    44    45    2
    50    60    61    1
    51    95    93   ar
    52    89    88    2
    53    52    53    1
    54    71    72    1
    55    88    87    1
    56    63    61   ar
    57    63    65   ar
    58    54    53   ar
    59    91    93   ar
    60    91    90    1
    61    61    62   ar
    62    53    55   ar
    63    65    66   ar
    64    90    87    1
    65    72    73    1
    66    87    86    1
    67    73    74    1
    68    27    26    2
    69    62    64   ar
    70    66    64   ar
    71    33    32    2
    72    86    77   am
    73    36    35    1
    74    26    25    1
    75    26    30   am
    76    32    31    1
    77    29    28    1
    78    31    30    1
    79    31    34    1
    80    25    24    1
    81    25    28    1
    82    77    78    2
    83    77    76    1
    84    75    76    1
    85    35    34    1
    86    35    37    1
    87    76    79    1
    88    18    19   ar
    89    18    16   ar
    90    19    17   ar
    91    16    14   ar
    92    79    80    1
    93   119   120    1
    94    17    15   ar
    95     8     7    2
    96    80    81    1
    97    20    21    1
    98    20    11   am
    99    14    15   ar
   100    14    13    1
   101    21    22    1
   102    10    13    1
   103    10    11    1
   104    10     9    1
   105   128   126   ar
   106   128   127   ar
   107   126   124   ar
   108     7     9   am
   109     7     6    1
   110    22    23    2
   111    11    12    2
   112     5     6    1
   113     5     3   am
   114   120   121    1
   115   120   123    1
   116   127   125   ar
   117    81    82    1
   118   124   123    1
   119   124   125   ar
   120     2     3    1
   121     2     1    1
   122    82    83    2
   123   121   122    2
   124     3     4    2
   125    83    85    1
   126    83    84    1
