@<TRIPOS>MOLECULE
tmp/4zdnA00.pdb
 101 97 0 0 0
SMALL
GASTEIGER

@<TRIPOS>ATOM
      1  N         40.7480    3.6710   23.5970 N.3    79  PHE79      -0.1227
      2  CA        41.8500    4.6180   23.4410 C.3    79  PHE79       0.1736
      3  C         41.6290    5.8870   24.2600 C.2    79  PHE79       0.2595
      4  O         42.5650    6.4410   24.8300 O.2    79  PHE79      -0.2718
      5  CB        42.0230    4.9680   21.9620 C.3    79  PHE79       0.0547
      6  CG        43.2360    5.8020   21.6590 C.ar   79  PHE79      -0.0202
      7  CD1       44.4660    5.2060   21.4410 C.ar   79  PHE79      -0.0042
      8  CD2       43.1390    7.1800   21.5570 C.ar   79  PHE79      -0.0042
      9  CE1       45.5820    5.9700   21.1450 C.ar   79  PHE79      -0.0003
     10  CE2       44.2510    7.9510   21.2590 C.ar   79  PHE79      -0.0003
     11  CZ        45.4730    7.3450   21.0540 C.ar   79  PHE79      -0.0000
     12  N         40.3810    6.3350   24.3320 N.am   80  PHE80      -0.1976
     13  CA        40.0740    7.5900   25.0020 C.3    80  PHE80       0.1639
     14  C         39.5120    7.3720   26.4020 C.2    80  PHE80       0.2290
     15  O         39.0350    8.3100   27.0400 O.2    80  PHE80      -0.2864
     16  CB        39.0990    8.4100   24.1560 C.3    80  PHE80       0.0560
     17  CG        39.6530    8.7980   22.8150 C.ar   80  PHE80      -0.0200
     18  CD1       40.4920    9.8930   22.6890 C.ar   80  PHE80      -0.0042
     19  CD2       39.3490    8.0580   21.6840 C.ar   80  PHE80      -0.0042
     20  CE1       41.0120   10.2450   21.4610 C.ar   80  PHE80      -0.0003
     21  CE2       39.8640    8.4060   20.4530 C.ar   80  PHE80      -0.0003
     22  CZ        40.6970    9.5020   20.3400 C.ar   80  PHE80      -0.0000
     23  N         42.4500   14.1290   17.5440 N.3   101  TRP101     -0.1241
     24  CA        43.7010   13.5220   17.9720 C.3   101  TRP101      0.1605
     25  C         44.6690   13.4630   16.7980 C.2   101  TRP101      0.2264
     26  O         45.8740   13.6740   16.9520 O.2   101  TRP101     -0.2867
     27  CB        43.4730   12.1210   18.5390 C.3   101  TRP101      0.0550
     28  CG        44.7280   11.5260   19.0800 C.ar  101  TRP101      0.0003
     29  CD1       45.6150   10.7340   18.4130 C.ar  101  TRP101      0.0946
     30  CD2       45.2530   11.6950   20.4000 C.ar  101  TRP101      0.0152
     31  NE1       46.6590   10.3910   19.2400 N.ar  101  TRP101     -0.2442
     32  CE2       46.4590   10.9680   20.4650 C.ar  101  TRP101      0.0810
     33  CE3       44.8170   12.3840   21.5350 C.ar  101  TRP101      0.0012
     34  CZ2       47.2340   10.9130   21.6190 C.ar  101  TRP101      0.0191
     35  CZ3       45.5880   12.3290   22.6790 C.ar  101  TRP101      0.0001
     36  CH2       46.7830   11.5980   22.7130 C.ar  101  TRP101      0.0015
     37  N         50.1100   15.8900   24.2180 N.3   111  ARG111     -0.1245
     38  CA        49.3740   16.6230   25.2410 C.3   111  ARG111      0.1563
     39  C         50.3480   17.3090   26.1870 C.2   111  ARG111      0.2260
     40  O         50.0920   18.4150   26.6650 O.2   111  ARG111     -0.2867
     41  CB        48.4440   15.6910   26.0180 C.3   111  ARG111      0.0307
     42  CG        47.1750   15.3040   25.2720 C.3   111  ARG111      0.0489
     43  CD        46.3410   14.3380   26.0960 C.3   111  ARG111      0.2205
     44  NE        47.0120   13.0520   26.2670 N.pl3 111  ARG111     -0.0865
     45  CZ        46.7100   12.1710   27.2140 C.cat 111  ARG111      0.5346
     46  NH1       45.7470   12.4380   28.0870 N.pl3 111  ARG111      0.1354
     47  NH2       47.3720   11.0240   27.2920 N.pl3 111  ARG111      0.1354
     48  N         39.1970   15.5960   26.7180 N.3   158  LEU158     -0.1245
     49  CA        40.0590   14.4390   26.4980 C.3   158  LEU158      0.1561
     50  C         41.5080   14.8140   26.1980 C.2   158  LEU158      0.2260
     51  O         42.4320   14.0660   26.5170 O.2   158  LEU158     -0.2867
     52  CB        39.5010   13.5910   25.3540 C.3   158  LEU158      0.0270
     53  CG        38.1460   12.9300   25.6150 C.3   158  LEU158      0.0019
     54  CD1       37.5820   12.3320   24.3390 C.3   158  LEU158      0.0001
     55  CD2       38.2880   11.8660   26.6830 C.3   158  LEU158      0.0001
     56  N         52.4010    2.2870   20.5270 N.3   444  ALA444     -0.1231
     57  CA        50.9600    2.3440   20.3450 C.3   444  ALA444      0.1694
     58  C         50.2730    1.6360   21.5120 C.2   444  ALA444      0.2591
     59  O         50.9270    0.9570   22.3000 O.2   444  ALA444     -0.2718
     60  CB        50.5680    1.7180   19.0240 C.3   444  ALA444      0.0304
     61  N         48.9590    1.7910   21.6250 N.am  445  ARG445     -0.1980
     62  CA        48.2300    1.2430   22.7630 C.3   445  ARG445      0.1597
     63  C         48.1490   -0.2810   22.7270 C.2   445  ARG445      0.2287
     64  O         48.1190   -0.9250   23.7710 O.2   445  ARG445     -0.2864
     65  CB        46.8220    1.8290   22.8310 C.3   445  ARG445      0.0334
     66  CG        46.1380    1.6240   24.1700 C.3   445  ARG445      0.0492
     67  CD        44.6890    2.0680   24.1210 C.3   445  ARG445      0.2205
     68  NE        43.9140    1.2250   23.2190 N.pl3 445  ARG445     -0.0865
     69  CZ        43.1870    0.1870   23.6140 C.cat 445  ARG445      0.5346
     70  NH1       43.1290   -0.1290   24.8980 N.pl3 445  ARG445      0.1354
     71  NH2       42.5120   -0.5300   22.7250 N.pl3 445  ARG445      0.1354
     72  N         53.2830   10.4370   21.7920 N.3   481  GLU481     -0.1231
     73  CA        53.1560   10.0280   23.1830 C.3   481  GLU481      0.1699
     74  C         53.7270    8.6290   23.3850 C.2   481  GLU481      0.2592
     75  O         53.6390    7.7740   22.5030 O.2   481  GLU481     -0.2718
     76  CB        51.6950   10.0800   23.6360 C.3   481  GLU481      0.0402
     77  CG        51.1500   11.4950   23.7710 C.3   481  GLU481      0.1161
     78  CD        49.8610   11.5640   24.5710 C.2   481  GLU481      0.3649
     79  OE1       49.3150   10.4970   24.9220 O.co2 481  GLU481     -0.2457
     80  OE2       49.3980   12.6900   24.8530 O.co2 481  GLU481     -0.2457
     81  N         54.3240    8.4050   24.5490 N.am  482  GLU482     -0.1979
     82  CA        54.8800    7.1020   24.8720 C.3   482  GLU482      0.1602
     83  C         53.7810    6.1760   25.3720 C.2   482  GLU482      0.2287
     84  O         53.1570    6.4380   26.3990 O.2   482  GLU482     -0.2864
     85  CB        55.9870    7.2410   25.9100 C.3   482  GLU482      0.0415
     86  CG        57.1320    8.1190   25.4500 C.3   482  GLU482      0.1163
     87  CD        58.2560    8.1910   26.4590 C.2   482  GLU482      0.3649
     88  OE1       57.9740    8.1220   27.6750 O.co2 482  GLU482     -0.2457
     89  OE2       59.4240    8.3090   26.0340 O.co2 482  GLU482     -0.2457
     90  N         52.0660    1.8880   25.6650 N.3   483  ALA483     -0.1245
     91  CA        52.4300    0.6190   26.2910 C.3   483  ALA483      0.1562
     92  C         53.2270   -0.3220   25.3870 C.2   483  ALA483      0.2260
     93  O         54.2300   -0.8930   25.8160 O.2   483  ALA483     -0.2867
     94  CB        51.1830   -0.0820   26.7900 C.3   483  ALA483      0.0290
     95  N         55.2530   -1.7900   28.1120 N.3   515  VAL515     -0.1245
     96  CA        55.4250   -0.9810   29.3080 C.3   515  VAL515      0.1561
     97  C         54.0920   -0.6590   29.9630 C.2   515  VAL515      0.2260
     98  O         53.3980    0.2800   29.5670 O.2   515  VAL515     -0.2867
     99  CB        56.1650    0.3280   28.9880 C.3   515  VAL515      0.0252
    100  CG1       56.3840    1.1450   30.2540 C.3   515  VAL515      0.0019
    101  CG2       57.4870    0.0180   28.3160 C.3   515  VAL515      0.0019
@<TRIPOS>BOND
     1    25    26    2
     2    25    24    1
     3    23    24    1
     4    24    27    1
     5    29    28   ar
     6    29    31   ar
     7    27    28    1
     8    60    57    1
     9    28    30   ar
    10    31    32   ar
    11    22    21   ar
    12    22    20   ar
    13    57    56    1
    14    57    58    1
    15    30    32   ar
    16    30    33   ar
    17    21    19   ar
    18    32    34   ar
    19    11     9   ar
    20    11    10   ar
    21     9     7   ar
    22    10     8   ar
    23     7     6   ar
    24    20    18   ar
    25    58    61   am
    26    58    59    2
    27    33    35   ar
    28     8     6   ar
    29    34    36   ar
    30    61    62    1
    31     6     5    1
    32    19    17   ar
    33    72    73    1
    34     5     2    1
    35    75    74    2
    36    35    36   ar
    37    18    17   ar
    38    71    69    1
    39    63    62    1
    40    63    64    2
    41    62    65    1
    42    17    16    1
    43    65    66    1
    44    73    74    1
    45    73    76    1
    46    68    69    2
    47    68    67    1
    48    74    81   am
    49     2     1    1
    50     2     3    1
    51    69    70    1
    52    76    77    1
    53    77    78    1
    54    67    66    1
    55    16    13    1
    56    37    38    1
    57     3    12   am
    58     3     4    2
    59    12    13    1
    60    54    53    1
    61    81    82    1
    62    78    80   ar
    63    78    79   ar
    64    82    83    1
    65    82    85    1
    66    13    14    1
    67    38    41    1
    68    38    39    1
    69    42    41    1
    70    42    43    1
    71    52    53    1
    72    52    49    1
    73    83    84    2
    74    92    93    2
    75    92    91    1
    76    86    85    1
    77    86    87    1
    78    53    55    1
    79    90    91    1
    80    89    87   ar
    81    43    44    1
    82    39    40    2
    83    50    49    1
    84    50    51    2
    85    44    45    2
    86    91    94    1
    87    14    15    2
    88    87    88   ar
    89    49    48    1
    90    45    47    1
    91    45    46    1
    92    95    96    1
    93   101    99    1
    94    99    96    1
    95    99   100    1
    96    96    97    1
    97    98    97    2
