@<TRIPOS>MOLECULE
tmp/4zdoB00.pdb
 130 121 0 0 0
SMALL
GASTEIGER

@<TRIPOS>ATOM
      1  N        160.6380  117.5360   39.1630 N.3   138  ALA138     -0.1231
      2  CA       159.2040  117.4380   39.0960 C.3   138  ALA138      0.1694
      3  C        158.6330  118.6400   38.3620 C.2   138  ALA138      0.2593
      4  O        159.3670  119.4410   37.8090 O.2   138  ALA138     -0.2718
      5  CB       158.6300  117.3260   40.4520 C.3   138  ALA138      0.0304
      6  N        157.3140  118.7610   38.3550 N.am  139  THR139     -0.1939
      7  CA       156.6500  119.7970   37.5920 C.3   139  THR139      0.2028
      8  C        156.9150  121.1630   38.1720 C.2   139  THR139      0.2642
      9  O        157.1530  122.1000   37.4460 O.2   139  THR139     -0.2714
     10  CB       155.1690  119.5390   37.5330 C.3   139  THR139      0.1808
     11  OG1      154.9670  118.2480   36.9830 O.3   139  THR139     -0.2208
     12  CG2      154.4980  120.5210   36.6550 C.3   139  THR139      0.0379
     13  N        156.8900  121.2620   39.4880 N.am  140  GLY140     -0.1954
     14  CA       157.2310  122.4860   40.1690 C.3   140  GLY140      0.1869
     15  C        158.5830  123.0390   39.8010 C.2   140  GLY140      0.2309
     16  O        158.6790  124.1830   39.4450 O.2   140  GLY140     -0.2863
     17  N        145.1720  128.6160   41.8940 N.3   165  ILE165     -0.1245
     18  CA       144.8850  127.2210   42.1140 C.3   165  ILE165      0.1561
     19  C        145.6430  126.8280   43.3410 C.2   165  ILE165      0.2260
     20  O        146.8240  127.0480   43.4360 O.2   165  ILE165     -0.2867
     21  CB       145.2660  126.3250   40.9440 C.3   165  ILE165      0.0252
     22  CG1      145.2700  124.8780   41.4010 C.3   165  ILE165      0.0019
     23  CG2      146.6090  126.6770   40.3860 C.3   165  ILE165      0.0019
     24  CD1      145.4400  123.9380   40.3000 C.3   165  ILE165      0.0001
     25  N        147.5980  124.8700   45.0830 N.3   167  GLN167     -0.1245
     26  CA       148.5230  123.7680   45.0550 C.3   167  GLN167      0.1566
     27  C        149.8770  124.3700   45.3140 C.2   167  GLN167      0.2260
     28  O        150.2850  125.2530   44.5970 O.2   167  GLN167     -0.2867
     29  CB       148.4680  123.0460   43.7180 C.3   167  GLN167      0.0367
     30  CG       148.7770  121.5760   43.8030 C.3   167  GLN167      0.0905
     31  CD       150.2570  121.2900   43.7590 C.2   167  GLN167      0.2608
     32  OE1      151.0450  122.1420   43.3890 O.2   167  GLN167     -0.2717
     33  NE2      150.6410  120.0900   44.1510 N.am  167  GLN167     -0.0878
     34  N        153.0010  123.5950   45.0370 N.3   169  SER169     -0.1202
     35  CA       154.2010  123.4390   44.2400 C.3   169  SER169      0.2020
     36  C        154.2770  124.4180   43.0860 C.2   169  SER169      0.2619
     37  O        155.2830  125.0670   42.8870 O.2   169  SER169     -0.2717
     38  CB       154.2910  122.0240   43.7110 C.3   169  SER169      0.2103
     39  OG       155.3660  121.8960   42.8220 O.3   169  SER169     -0.2182
     40  N        153.2120  124.5180   42.3120 N.am  170  CYS170     -0.1969
     41  CA       153.2050  125.4290   41.1930 C.3   170  CYS170      0.1712
     42  C        153.2090  126.8670   41.6730 C.2   170  CYS170      0.2296
     43  O        153.7460  127.7360   41.0190 O.2   170  CYS170     -0.2864
     44  CB       152.0030  125.1660   40.3000 C.3   170  CYS170      0.0983
     45  SG       150.4410  125.2750   41.1060 S.3   170  CYS170     -0.0798
     46  N        146.7890  127.1670   34.3450 N.3   218  THR218     -0.1218
     47  CA       146.7100  125.7790   34.7550 C.3   218  THR218      0.1862
     48  C        145.5670  125.0310   34.0850 C.2   218  THR218      0.2287
     49  O        144.4270  125.4330   34.2020 O.2   218  THR218     -0.2866
     50  CB       146.5170  125.6880   36.2470 C.3   218  THR218      0.1770
     51  OG1      147.4680  126.5190   36.8940 O.3   218  THR218     -0.2211
     52  CG2      146.7080  124.3040   36.7140 C.3   218  THR218      0.0375
     53  N        145.0250  121.1670   34.3210 N.3   220  SER220     -0.1202
     54  CA       144.5520  120.0780   35.1570 C.3   220  SER220      0.2020
     55  C        144.5200  120.6480   36.5500 C.2   220  SER220      0.2619
     56  O        145.4450  121.2950   36.9460 O.2   220  SER220     -0.2717
     57  CB       145.4950  118.9110   35.1270 C.3   220  SER220      0.2103
     58  OG       146.7950  119.4100   35.3080 O.3   220  SER220     -0.2182
     59  N        143.4670  120.3680   37.2980 N.am  221  CYS221     -0.1955
     60  CA       143.2500  120.9470   38.6170 C.3   221  CYS221      0.1843
     61  C        142.1300  120.2070   39.3110 C.2   221  CYS221      0.2625
     62  O        141.4930  119.3750   38.7000 O.2   221  CYS221     -0.2714
     63  CB       142.8970  122.4150   38.5010 C.3   221  CYS221      0.0997
     64  SG       141.5800  122.6890   37.3700 S.3   221  CYS221     -0.0797
     65  N        141.8700  120.5250   40.5740 N.am  222  PHE222     -0.1974
     66  CA       140.8090  119.8480   41.3180 C.3   222  PHE222      0.1639
     67  C        139.4830  120.6090   41.2850 C.2   222  PHE222      0.2290
     68  O        139.4330  121.7980   41.5980 O.2   222  PHE222     -0.2864
     69  CB       141.2410  119.6120   42.7670 C.3   222  PHE222      0.0560
     70  CG       142.6250  119.0440   42.9020 C.ar  222  PHE222     -0.0200
     71  CD1      143.7330  119.8740   42.8930 C.ar  222  PHE222     -0.0042
     72  CD2      142.8180  117.6790   43.0380 C.ar  222  PHE222     -0.0042
     73  CE1      145.0080  119.3550   43.0170 C.ar  222  PHE222     -0.0003
     74  CE2      144.0900  117.1530   43.1620 C.ar  222  PHE222     -0.0003
     75  CZ       145.1870  117.9920   43.1520 C.ar  222  PHE222     -0.0000
     76  N        150.7940  125.3180   33.1200 N.3   247  ASN247     -0.1240
     77  CA       150.9290  124.1970   34.0330 C.3   247  ASN247      0.1653
     78  C        149.9490  123.0880   33.6800 C.2   247  ASN247      0.2266
     79  O        148.7950  123.1420   34.0370 O.2   247  ASN247     -0.2867
     80  CB       150.7110  124.6710   35.4590 C.3   247  ASN247      0.1155
     81  CG       150.7350  123.5570   36.4570 C.2   247  ASN247      0.2627
     82  OD1      151.0060  122.4250   36.1250 O.2   247  ASN247     -0.2716
     83  ND2      150.4730  123.8830   37.7050 N.am  247  ASN247     -0.0877
     84  N        150.0830  119.8230   34.6080 N.3   249  ALA249     -0.1231
     85  CA       150.6710  118.7670   35.4350 C.3   249  ALA249      0.1694
     86  C        150.1660  117.3670   35.1450 C.2   249  ALA249      0.2592
     87  O        150.9540  116.4650   34.9390 O.2   249  ALA249     -0.2718
     88  CB       150.4710  119.0860   36.8820 C.3   249  ALA249      0.0304
     89  N        148.8610  117.1670   35.1140 N.am  250  TYR250     -0.1976
     90  CA       148.3440  115.8540   34.7640 C.3   250  TYR250      0.1639
     91  C        147.2700  115.8940   33.7250 C.2   250  TYR250      0.2290
     92  O        146.2390  115.2750   33.8810 O.2   250  TYR250     -0.2864
     93  CB       147.8120  115.1290   35.9840 C.3   250  TYR250      0.0560
     94  CG       146.8200  115.8500   36.8500 C.ar  250  TYR250     -0.0198
     95  CD1      147.2280  116.7960   37.7510 C.ar  250  TYR250     -0.0009
     96  CD2      145.4870  115.5210   36.8310 C.ar  250  TYR250     -0.0009
     97  CE1      146.3340  117.4230   38.5680 C.ar  250  TYR250      0.0417
     98  CE2      144.5980  116.1470   37.6470 C.ar  250  TYR250      0.0417
     99  CZ       145.0280  117.0920   38.5120 C.ar  250  TYR250      0.1957
    100  OH       144.1550  117.7230   39.3390 O.3   250  TYR250     -0.2866
    101  N        153.7690  116.4800   34.3550 N.3   276  SER276     -0.1217
    102  CA       154.3880  115.5310   35.2490 C.3   276  SER276      0.1889
    103  C        154.5030  114.1430   34.6240 C.2   276  SER276      0.2288
    104  O        153.6550  113.7360   33.8520 O.2   276  SER276     -0.2866
    105  CB       153.5850  115.4720   36.5260 C.3   276  SER276      0.2089
    106  OG       154.1520  114.5660   37.4250 O.3   276  SER276     -0.2183
    107  N        154.9370  111.1590   36.5040 N.3   278  ASP278     -0.1225
    108  CA       154.2830  110.1420   37.2950 C.3   278  ASP278      0.1805
    109  C        152.7780  110.1980   37.2060 C.2   278  ASP278      0.2597
    110  O        152.1240  109.1650   37.2480 O.2   278  ASP278     -0.2718
    111  CB       154.7070  110.2400   38.7470 C.3   278  ASP278      0.1424
    112  CG       154.2520  111.4980   39.4040 C.2   278  ASP278      0.3668
    113  OD1      154.9670  112.5040   39.3050 O.co2 278  ASP278     -0.2456
    114  OD2      153.2010  111.4800   40.0550 O.co2 278  ASP278     -0.2456
    115  N        152.2130  111.3900   37.0760 N.am  279  LYS279     -0.1979
    116  CA       150.7670  111.5170   36.9770 C.3   279  LYS279      0.1596
    117  C        150.2360  111.0940   35.6200 C.2   279  LYS279      0.2287
    118  O        149.0910  110.7280   35.5030 O.2   279  LYS279     -0.2864
    119  CB       150.3330  112.9460   37.2710 C.3   279  LYS279      0.0298
    120  CG       150.8200  113.4780   38.5760 C.3   279  LYS279      0.0038
    121  CD       150.2430  114.8290   38.8630 C.3   279  LYS279      0.0206
    122  CE       150.9760  115.5030   39.9890 C.3   279  LYS279      0.1093
    123  NZ       150.2680  116.6870   40.4900 N.3   279  LYS279     -0.1314
    124  N        157.5730  109.2590   41.0740 N.3   285  VAL285     -0.1245
    125  CA       157.7070  110.7020   41.1790 C.3   285  VAL285      0.1561
    126  C        159.0910  111.2080   40.8500 C.2   285  VAL285      0.2260
    127  O        160.0760  110.6400   41.2850 O.2   285  VAL285     -0.2867
    128  CB       157.3880  111.1650   42.5880 C.3   285  VAL285      0.0252
    129  CG1      157.7360  112.6100   42.7610 C.3   285  VAL285      0.0019
    130  CG2      155.9480  110.9440   42.8880 C.3   285  VAL285      0.0019
@<TRIPOS>BOND
     1    76    77    1
     2    78    77    1
     3    78    79    2
     4    91    92    2
     5    91    90    1
     6   104   103    2
     7    77    80    1
     8    48    49    2
     9    48    47    1
    10    53    54    1
    11    46    47    1
    12   101   102    1
    13    84    85    1
    14   103   102    1
    15    47    50    1
    16    90    89    1
    17    90    93    1
    18    87    86    2
    19    89    86   am
    20    57    54    1
    21    57    58    1
    22    86    85    1
    23    54    55    1
    24   102   105    1
    25    85    88    1
    26    80    81    1
    27   118   117    2
    28   117   116    1
    29    93    94    1
    30    82    81    2
    31    50    52    1
    32    50    51    1
    33    81    83   am
    34   107   108    1
    35   105   106    1
    36    55    56    2
    37    55    59   am
    38    12    10    1
    39    96    94   ar
    40    96    98   ar
    41    94    95   ar
    42   116   115    1
    43   116   119    1
    44    11    10    1
    45   115   109   am
    46   109   110    2
    47   109   108    1
    48   119   120    1
    49   108   111    1
    50    59    60    1
    51    64    63    1
    52     9     8    2
    53    10     7    1
    54     7     8    1
    55     7     6    1
    56    98    99   ar
    57    95    97   ar
    58     4     3    2
    59     8    13   am
    60     6     3   am
    61     3     2    1
    62    63    60    1
    63    99    97   ar
    64    99   100    1
    65   120   121    1
    66    60    61    1
    67    62    61    2
    68   111   112    1
    69   121   122    1
    70     2     1    1
    71     2     5    1
    72   113   112   ar
    73    61    65   am
    74   112   114   ar
    75    16    15    2
    76    13    14    1
    77    15    14    1
    78   122   123    1
    79    44    45    1
    80    44    41    1
    81    24    22    1
    82    23    21    1
    83    65    66    1
    84   126   125    1
    85   126   127    2
    86    21    22    1
    87    21    18    1
    88    43    42    2
    89   124   125    1
    90   125   128    1
    91    41    42    1
    92    41    40    1
    93    67    66    1
    94    67    68    2
    95    66    69    1
    96    17    18    1
    97    18    19    1
    98    40    36   am
    99   128   129    1
   100   128   130    1
   101    69    70    1
   102    39    38    1
   103    37    36    2
   104    71    70   ar
   105    71    73   ar
   106    70    72   ar
   107    73    75   ar
   108    72    74   ar
   109    36    35    1
   110    75    74   ar
   111    19    20    2
   112    32    31    2
   113    38    35    1
   114    29    30    1
   115    29    26    1
   116    31    30    1
   117    31    33   am
   118    35    34    1
   119    28    27    2
   120    26    25    1
   121    26    27    1
