@<TRIPOS>MOLECULE
tmp/4zdqA00.pdb
 141 136 0 0 0
SMALL
GASTEIGER

@<TRIPOS>ATOM
      1  N         43.0430   88.4330   46.7740 N.3     9  PRO9       -0.2102
      2  CA        43.7640   88.0230   47.9830 C.3     9  PRO9        0.1504
      3  C         44.8490   87.0090   47.6420 C.2     9  PRO9        0.2576
      4  O         44.5540   85.8900   47.2180 O.2     9  PRO9       -0.2718
      5  CB        42.6710   87.4040   48.8620 C.3     9  PRO9        0.0282
      6  CG        41.5620   87.0650   47.9260 C.3     9  PRO9        0.0208
      7  CD        41.6110   88.1010   46.8480 C.3     9  PRO9        0.0893
      8  N         46.1000   87.4170   47.8180 N.am   10  CYS10      -0.1957
      9  CA        47.2370   86.6370   47.3520 C.3    10  CYS10       0.1843
     10  C         48.3180   86.6110   48.4250 C.2    10  CYS10       0.2625
     11  O         49.5110   86.5790   48.1250 O.2    10  CYS10      -0.2714
     12  CB        47.7750   87.2300   46.0450 C.3    10  CYS10       0.0997
     13  SG        48.8940   86.1760   45.1050 S.3    10  CYS10      -0.0797
     14  N         47.8870   86.6330   49.6810 N.am   11  ALA11      -0.1963
     15  CA        48.8100   86.6830   50.8090 C.3    11  ALA11       0.1728
     16  C         48.8160   85.3640   51.5720 C.2    11  ALA11       0.2617
     17  O         49.2360   85.3070   52.7280 O.2    11  ALA11      -0.2715
     18  CB        48.4480   87.8310   51.7380 C.3    11  ALA11       0.0334
     19  N         48.3480   84.3060   50.9190 N.am   12  GLY12      -0.1940
     20  CA        48.3180   82.9890   51.5260 C.3    12  GLY12       0.2014
     21  C         49.5960   82.2040   51.3050 C.2    12  GLY12       0.2640
     22  O         50.4260   82.5770   50.4770 O.2    12  GLY12      -0.2714
     23  N         49.7530   81.1100   52.0430 N.am   13  THR13      -0.1936
     24  CA        50.9610   80.2960   51.9570 C.3    13  THR13       0.2028
     25  C         50.7260   78.9960   51.1880 C.2    13  THR13       0.2643
     26  O         51.6530   78.4330   50.6050 O.2    13  THR13      -0.2714
     27  CB        51.5070   79.9520   53.3570 C.3    13  THR13       0.1808
     28  OG1       50.5090   79.2280   54.0600 O.3    13  THR13      -0.2208
     29  CG2       51.9120   81.1920   54.1300 C.3    13  THR13       0.0379
     30  N         49.4850   78.5210   51.1940 N.am   14  GLY14      -0.1939
     31  CA        49.1500   77.2730   50.5300 C.3    14  GLY14       0.2014
     32  C         49.7090   76.0590   51.2470 C.2    14  GLY14       0.2640
     33  O         50.3990   75.2350   50.6470 O.2    14  GLY14      -0.2714
     34  N         49.4060   75.9490   52.5370 N.am   15  SER15      -0.1935
     35  CA        49.9650   74.8900   53.3760 C.3    15  SER15       0.2055
     36  C         49.4440   73.5040   52.9970 C.2    15  SER15       0.2642
     37  O         50.1420   72.5050   53.1670 O.2    15  SER15      -0.2714
     38  CB        49.6670   75.1680   54.8530 C.3    15  SER15       0.2130
     39  OG        48.2720   75.2160   55.0920 O.3    15  SER15      -0.2179
     40  N         48.2200   73.4460   52.4810 N.am   16  ARG16      -0.1977
     41  CA        47.6160   72.1730   52.1000 C.3    16  ARG16       0.1597
     42  C         48.1400   71.6750   50.7560 C.2    16  ARG16       0.2287
     43  O         48.0550   70.4850   50.4520 O.2    16  ARG16      -0.2864
     44  CB        46.0910   72.2980   52.0490 C.3    16  ARG16       0.0334
     45  CG        45.4240   72.4030   53.4120 C.3    16  ARG16       0.0492
     46  CD        43.9430   72.7250   53.2760 C.3    16  ARG16       0.2205
     47  NE        43.7250   74.0490   52.7020 N.pl3  16  ARG16      -0.0865
     48  CZ        42.5280   74.5560   52.4190 C.cat  16  ARG16       0.5346
     49  NH1       41.4320   73.8460   52.6520 N.pl3  16  ARG16       0.1354
     50  NH2       42.4270   75.7720   51.8990 N.pl3  16  ARG16       0.1354
     51  N         51.7120   78.5730   46.5820 N.3    23  LYS23      -0.1231
     52  CA        51.0780   77.9400   45.4270 C.3    23  LYS23       0.1693
     53  C         50.6380   78.9310   44.3520 C.2    23  LYS23       0.2591
     54  O         50.5460   78.5730   43.1780 O.2    23  LYS23      -0.2718
     55  CB        49.8750   77.1000   45.8730 C.3    23  LYS23       0.0285
     56  CG        48.8090   77.8640   46.6450 C.3    23  LYS23       0.0035
     57  CD        47.5620   77.0100   46.8290 C.3    23  LYS23       0.0206
     58  CE        46.6380   77.5820   47.8900 C.3    23  LYS23       0.1093
     59  NZ        46.2620   78.9930   47.6190 N.3    23  LYS23      -0.1314
     60  N         50.3760   80.1740   44.7460 N.am   24  GLN24      -0.1979
     61  CA        49.9670   81.1970   43.7890 C.3    24  GLN24       0.1601
     62  C         51.1020   81.5570   42.8320 C.2    24  GLN24       0.2287
     63  O         50.8650   82.1010   41.7540 O.2    24  GLN24      -0.2864
     64  CB        49.4810   82.4530   44.5140 C.3    24  GLN24       0.0394
     65  CG        50.5000   83.0740   45.4590 C.3    24  GLN24       0.0908
     66  CD        50.3200   82.6180   46.8930 C.2    24  GLN24       0.2608
     67  OE1       50.0810   81.4390   47.1570 O.2    24  GLN24      -0.2717
     68  NE2       50.4210   83.5570   47.8300 N.am   24  GLN24      -0.0878
     69  N         47.1340   90.2210   55.4270 N.3    78  GLY78      -0.1210
     70  CA        46.8120   89.9830   56.8210 C.3    78  GLY78       0.1956
     71  C         47.1280   88.5710   57.2760 C.2    78  GLY78       0.2612
     72  O         47.6250   87.7550   56.5000 O.2    78  GLY78      -0.2717
     73  N         46.8380   88.2840   58.5410 N.am   79  ALA79      -0.1965
     74  CA        47.0950   86.9660   59.1100 C.3    79  ALA79       0.1728
     75  C         46.1380   85.9230   58.5390 C.2    79  ALA79       0.2617
     76  O         46.4890   84.7500   58.4090 O.2    79  ALA79      -0.2715
     77  CB        46.9850   87.0120   60.6270 C.3    79  ALA79       0.0334
     78  N         44.9280   86.3580   58.2040 N.am   80  SER80      -0.1936
     79  CA        43.9240   85.4720   57.6260 C.3    80  SER80       0.2055
     80  C         43.4420   86.0200   56.2880 C.2    80  SER80       0.2642
     81  O         43.7930   87.1360   55.9050 O.2    80  SER80      -0.2714
     82  CB        42.7440   85.2950   58.5820 C.3    80  SER80       0.2130
     83  OG        42.0880   86.5300   58.8130 O.3    80  SER80      -0.2179
     84  N         42.6410   85.2310   55.5790 N.am   81  ARG81      -0.1977
     85  CA        42.1000   85.6590   54.2940 C.3    81  ARG81       0.1597
     86  C         41.1740   86.8570   54.4710 C.2    81  ARG81       0.2287
     87  O         41.2560   87.8310   53.7230 O.2    81  ARG81      -0.2864
     88  CB        41.3490   84.5160   53.6080 C.3    81  ARG81       0.0334
     89  CG        40.8170   84.8790   52.2280 C.3    81  ARG81       0.0492
     90  CD        39.9750   83.7590   51.6360 C.3    81  ARG81       0.2205
     91  NE        39.5310   84.0720   50.2800 N.pl3  81  ARG81      -0.0865
     92  CZ        38.4440   84.7820   49.9950 C.cat  81  ARG81       0.5346
     93  NH1       37.6840   85.2580   50.9720 N.pl3  81  ARG81       0.1354
     94  NH2       38.1150   85.0170   48.7320 N.pl3  81  ARG81       0.1354
     95  N         43.0900   89.9700   55.0750 N.3    84  SER84      -0.1217
     96  CA        43.7340   90.4270   53.8500 C.3    84  SER84       0.1889
     97  C         42.7280   91.1230   52.9390 C.2    84  SER84       0.2288
     98  O         43.0640   92.0860   52.2500 O.2    84  SER84      -0.2866
     99  CB        44.3920   89.2570   53.1160 C.3    84  SER84       0.2089
    100  OG        45.4620   88.7200   53.8740 O.3    84  SER84      -0.2183
    101  N         39.8770   84.4360   44.5110 N.3   107  ASP107     -0.1225
    102  CA        41.0420   83.6850   44.9640 C.3   107  ASP107      0.1805
    103  C         42.0630   83.5410   43.8430 C.2   107  ASP107      0.2598
    104  O         41.7140   83.1850   42.7170 O.2   107  ASP107     -0.2718
    105  CB        40.6380   82.2970   45.4660 C.3   107  ASP107      0.1424
    106  CG        39.7180   82.3510   46.6680 C.2   107  ASP107      0.3668
    107  OD1       39.8210   83.3110   47.4620 O.co2 107  ASP107     -0.2456
    108  OD2       38.8950   81.4250   46.8210 O.co2 107  ASP107     -0.2456
    109  N         43.3260   83.8110   44.1570 N.am  108  ALA108     -0.1966
    110  CA        44.4050   83.6110   43.1980 C.3   108  ALA108      0.1728
    111  C         44.5860   82.1230   42.9230 C.2   108  ALA108      0.2616
    112  O         45.1360   81.7310   41.8940 O.2   108  ALA108     -0.2715
    113  CB        45.7000   84.2230   43.7120 C.3   108  ALA108      0.0334
    114  N         44.1050   81.2990   43.8500 N.am  109  ALA109     -0.1977
    115  CA        44.2110   79.8500   43.7330 C.3   109  ALA109      0.1597
    116  C         43.1660   79.2680   42.7810 C.2   109  ALA109      0.2287
    117  O         43.0460   78.0510   42.6600 O.2   109  ALA109     -0.2864
    118  CB        44.0860   79.2050   45.1030 C.3   109  ALA109      0.0319
    119  N         39.5040   75.5510   42.9120 N.3   214  LYS214     -0.1231
    120  CA        40.7020   76.1090   43.5280 C.3   214  LYS214      0.1693
    121  C         41.7560   75.0350   43.7670 C.2   214  LYS214      0.2592
    122  O         41.4520   73.9330   44.2280 O.2   214  LYS214     -0.2718
    123  CB        40.3700   76.8250   44.8440 C.3   214  LYS214      0.0285
    124  CG        39.8550   75.9360   45.9620 C.3   214  LYS214      0.0035
    125  CD        40.2010   76.5000   47.3400 C.3   214  LYS214      0.0206
    126  CE        39.6110   77.8860   47.5710 C.3   214  LYS214      0.1093
    127  NZ        40.5200   78.9900   47.1450 N.3   214  LYS214     -0.1314
    128  N         42.9980   75.3630   43.4290 N.am  215  VAL215     -0.1966
    129  CA        44.1280   74.4870   43.6990 C.3   215  VAL215      0.1727
    130  C         44.3670   74.4500   45.2010 C.2   215  VAL215      0.2616
    131  O         44.6030   75.4860   45.8210 O.2   215  VAL215     -0.2715
    132  CB        45.3850   74.9490   42.9460 C.3   215  VAL215      0.0290
    133  CG1       46.5790   74.0830   43.3190 C.3   215  VAL215      0.0023
    134  CG2       45.1410   74.9200   41.4460 C.3   215  VAL215      0.0023
    135  N         44.3060   73.2580   45.7860 N.am  216  THR216     -0.1951
    136  CA        44.3780   73.1310   47.2370 C.3   216  THR216      0.1897
    137  C         45.3170   72.0130   47.6900 C.2   216  THR216      0.2313
    138  O         45.9640   72.1260   48.7300 O.2   216  THR216     -0.2863
    139  CB        42.9760   72.8850   47.8350 C.3   216  THR216      0.1794
    140  OG1       42.0690   73.8810   47.3460 O.3   216  THR216     -0.2208
    141  CG2       43.0160   72.9560   49.3550 C.3   216  THR216      0.0378
@<TRIPOS>BOND
     1   134   132    1
     2    63    62    2
     3   112   111    2
     4   117   116    2
     5   104   103    2
     6   116   115    1
     7    62    61    1
     8   119   120    1
     9   111   110    1
    10   111   114   am
    11   132   133    1
    12   132   129    1
    13    54    53    2
    14   110   113    1
    15   110   109    1
    16   128   129    1
    17   128   121   am
    18   120   121    1
    19   120   123    1
    20   129   130    1
    21   115   114    1
    22   115   118    1
    23   121   122    2
    24    61    64    1
    25    61    60    1
    26   103   109   am
    27   103   102    1
    28    53    60   am
    29    53    52    1
    30   101   102    1
    31    64    65    1
    32   123   124    1
    33   102   105    1
    34    13    12    1
    35   130   135   am
    36   130   131    2
    37    52    55    1
    38    52    51    1
    39    65    66    1
    40   105   106    1
    41   135   136    1
    42    55    56    1
    43   124   125    1
    44    12     9    1
    45    56    57    1
    46   106   108   ar
    47   106   107   ar
    48     1     7    1
    49     1     2    1
    50    57    58    1
    51     7     6    1
    52    66    67    2
    53    66    68   am
    54   127   126    1
    55     4     3    2
    56   136   137    1
    57   136   139    1
    58   125   126    1
    59   140   139    1
    60     9     8    1
    61     9    10    1
    62    59    58    1
    63     3     8   am
    64     3     2    1
    65   137   138    2
    66   139   141    1
    67     6     5    1
    68     2     5    1
    69    11    10    2
    70    10    14   am
    71    94    92    1
    72    14    15    1
    73    92    91    2
    74    92    93    1
    75    91    90    1
    76    43    42    2
    77    22    21    2
    78    31    30    1
    79    31    32    1
    80    26    25    2
    81    33    32    2
    82    42    41    1
    83    15    16    1
    84    15    18    1
    85    19    20    1
    86    19    16   am
    87    25    30   am
    88    25    24    1
    89    32    34   am
    90    21    20    1
    91    21    23   am
    92    16    17    2
    93    90    89    1
    94    50    48    1
    95    24    23    1
    96    24    27    1
    97    44    41    1
    98    44    45    1
    99    41    40    1
   100    89    88    1
   101    98    97    2
   102    48    49    1
   103    48    47    2
   104    40    36   am
   105    34    35    1
   106    47    46    1
   107    97    96    1
   108    36    37    2
   109    36    35    1
   110    99    96    1
   111    99   100    1
   112    46    45    1
   113    27    28    1
   114    27    29    1
   115    35    38    1
   116    88    85    1
   117    87    86    2
   118    96    95    1
   119    85    86    1
   120    85    84    1
   121    38    39    1
   122    69    70    1
   123    84    80   am
   124    81    80    2
   125    80    79    1
   126    72    71    2
   127    70    71    1
   128    71    73   am
   129    79    78    1
   130    79    82    1
   131    78    75   am
   132    76    75    2
   133    75    74    1
   134    73    74    1
   135    82    83    1
   136    74    77    1
