@<TRIPOS>MOLECULE
tmp/4zduA00.pdb
 185 174 0 0 0
SMALL
GASTEIGER

@<TRIPOS>ATOM
      1  N         28.2960   11.9760   10.5150 N.3   160  LYS160     -0.1245
      2  CA        27.2490   10.9920   10.3160 C.3   160  LYS160      0.1561
      3  C         27.0700   10.2200   11.6140 C.2   160  LYS160      0.2260
      4  O         27.4920   10.6770   12.6800 O.2   160  LYS160     -0.2867
      5  CB        27.5870   10.0430    9.1670 C.3   160  LYS160      0.0271
      6  CG        28.1740   10.7330    7.9470 C.3   160  LYS160      0.0035
      7  CD        29.5680   10.2140    7.6540 C.3   160  LYS160      0.0206
      8  CE        29.9810   10.5330    6.2270 C.3   160  LYS160      0.1093
      9  NZ        31.1840    9.7620    5.8030 N.3   160  LYS160     -0.1314
     10  N         27.9720   13.4400    1.0830 N.3   200  ASP200     -0.1239
     11  CA        28.6300   12.2230    1.5440 C.3   200  ASP200      0.1674
     12  C         27.6070   11.2950    2.1910 C.2   200  ASP200      0.2266
     13  O         27.5950   11.1250    3.4070 O.2   200  ASP200     -0.2867
     14  CB        29.7500   12.5580    2.5340 C.3   200  ASP200      0.1410
     15  CG        30.7110   11.4000    2.7540 C.2   200  ASP200      0.3668
     16  OD1       30.3460   10.2410    2.4630 O.co2 200  ASP200     -0.2456
     17  OD2       31.8390   11.6520    3.2290 O.co2 200  ASP200     -0.2456
     18  N         35.9690   17.6030   -3.7300 N.3   235  ARG235     -0.1245
     19  CA        35.3500   16.5800   -2.9030 C.3   235  ARG235      0.1563
     20  C         33.8370   16.5360   -3.1110 C.2   235  ARG235      0.2260
     21  O         33.2530   15.4610   -3.2680 O.2   235  ARG235     -0.2867
     22  CB        35.6600   16.8260   -1.4280 C.3   235  ARG235      0.0307
     23  CG        35.0000   15.8200   -0.5140 C.3   235  ARG235      0.0489
     24  CD        35.6010   14.4490   -0.7360 C.3   235  ARG235      0.2205
     25  NE        36.9980   14.4280   -0.3230 N.pl3 235  ARG235     -0.0865
     26  CZ        37.3940   14.2530    0.9330 C.cat 235  ARG235      0.5346
     27  NH1       36.4940   14.0670    1.8900 N.pl3 235  ARG235      0.1354
     28  NH2       38.6880   14.2470    1.2290 N.pl3 235  ARG235      0.1354
     29  N         31.7160   13.5290   -4.7440 N.3   239  ASN239     -0.1240
     30  CA        30.6270   12.8580   -4.0420 C.3   239  ASN239      0.1653
     31  C         29.3690   12.7890   -4.9010 C.2   239  ASN239      0.2266
     32  O         28.6390   11.8000   -4.8790 O.2   239  ASN239     -0.2867
     33  CB        30.3060   13.5820   -2.7300 C.3   239  ASN239      0.1155
     34  CG        31.3570   13.3570   -1.6560 C.2   239  ASN239      0.2627
     35  OD1       32.1060   12.3820   -1.6910 O.2   239  ASN239     -0.2716
     36  ND2       31.4120   14.2660   -0.6870 N.am  239  ASN239     -0.0877
     37  N         29.1000   12.7420   -8.2350 N.3   241  VAL241     -0.1231
     38  CA        29.1950   11.8110   -9.3610 C.3   241  VAL241      0.1692
     39  C         29.3160   10.3510   -8.9130 C.2   241  VAL241      0.2593
     40  O         29.5020    9.4580   -9.7420 O.2   241  VAL241     -0.2718
     41  CB        30.3840   12.1520  -10.2940 C.3   241  VAL241      0.0266
     42  CG1       30.2240   13.5540  -10.8670 C.3   241  VAL241      0.0020
     43  CG2       31.7080   12.0040   -9.5600 C.3   241  VAL241      0.0020
     44  N         29.2050   10.1070   -7.6090 N.am  242  THR242     -0.1939
     45  CA        29.0960    8.7410   -7.1080 C.3   242  THR242      0.2028
     46  C         27.6460    8.2920   -7.1900 C.2   242  THR242      0.2642
     47  O         27.3280    7.1250   -6.9630 O.2   242  THR242     -0.2714
     48  CB        29.5720    8.6040   -5.6440 C.3   242  THR242      0.1808
     49  OG1       28.6960    9.3390   -4.7840 O.3   242  THR242     -0.2208
     50  CG2       30.9900    9.1150   -5.4820 C.3   242  THR242      0.0379
     51  N         26.7670    9.2370   -7.5090 N.am  243  GLY243     -0.1954
     52  CA        25.3370    8.9870   -7.5150 C.3   243  GLY243      0.1869
     53  C         24.8290    8.3980   -8.8130 C.2   243  GLY243      0.2309
     54  O         25.5330    7.6400   -9.4780 O.2   243  GLY243     -0.2863
     55  N         23.2560    8.2620  -12.7780 N.3   245  ASP245     -0.1239
     56  CA        23.7480    8.7630  -14.0480 C.3   245  ASP245      0.1674
     57  C         23.2560   10.1800  -14.3250 C.2   245  ASP245      0.2266
     58  O         23.9970   10.9960  -14.8640 O.2   245  ASP245     -0.2867
     59  CB        23.3410    7.8170  -15.1870 C.3   245  ASP245      0.1410
     60  CG        24.0210    6.4590  -15.0910 C.2   245  ASP245      0.3668
     61  OD1       25.1190    6.3850  -14.5040 O.co2 245  ASP245     -0.2456
     62  OD2       23.4570    5.4710  -15.6060 O.co2 245  ASP245     -0.2456
     63  N         25.0770   12.6520  -12.2080 N.3   248  THR248     -0.1218
     64  CA        26.4040   12.7880  -12.7910 C.3   248  THR248      0.1862
     65  C         26.3470   13.6470  -14.0510 C.2   248  THR248      0.2287
     66  O         27.2720   14.4020  -14.3480 O.2   248  THR248     -0.2866
     67  CB        27.0090   11.4110  -13.1220 C.3   248  THR248      0.1770
     68  OG1       27.0700   10.6160  -11.9300 O.3   248  THR248     -0.2211
     69  CG2       28.4100   11.5580  -13.7040 C.3   248  THR248      0.0375
     70  N         44.7960   12.7910   -7.0400 N.3   273  LYS273     -0.1231
     71  CA        44.1530   11.5390   -6.6630 C.3   273  LYS273      0.1693
     72  C         42.6290   11.6530   -6.6960 C.2   273  LYS273      0.2591
     73  O         41.9520   10.8140   -7.2920 O.2   273  LYS273     -0.2718
     74  CB        44.6200   11.0940   -5.2710 C.3   273  LYS273      0.0285
     75  CG        44.1550    9.6950   -4.8830 C.3   273  LYS273      0.0035
     76  CD        44.8300    9.2030   -3.6120 C.3   273  LYS273      0.0206
     77  CE        44.3850    9.9980   -2.3930 C.3   273  LYS273      0.1093
     78  NZ        42.9360    9.8120   -2.0970 N.3   273  LYS273     -0.1314
     79  N         42.0880   12.6940   -6.0700 N.am  274  GLU274     -0.1979
     80  CA        40.6380   12.8440   -5.9920 C.3   274  GLU274      0.1602
     81  C         40.0330   13.2770   -7.3310 C.2   274  GLU274      0.2287
     82  O         38.8630   13.0080   -7.6030 O.2   274  GLU274     -0.2864
     83  CB        40.2650   13.8300   -4.8820 C.3   274  GLU274      0.0415
     84  CG        40.7460   13.3780   -3.5020 C.3   274  GLU274      0.1163
     85  CD        39.9410   13.9650   -2.3540 C.2   274  GLU274      0.3649
     86  OE1       38.9030   14.6130   -2.6080 O.co2 274  GLU274     -0.2457
     87  OE2       40.3560   13.7790   -1.1900 O.co2 274  GLU274     -0.2457
     88  N         39.9400    9.9340   -8.9880 N.3   277  TRP277     -0.1241
     89  CA        38.7990    9.2570   -8.3740 C.3   277  TRP277      0.1605
     90  C         37.4890    9.7320   -8.9950 C.2   277  TRP277      0.2264
     91  O         36.6180    8.9260   -9.3340 O.2   277  TRP277     -0.2867
     92  CB        38.7810    9.5000   -6.8600 C.3   277  TRP277      0.0550
     93  CG        37.4640    9.1770   -6.1930 C.ar  277  TRP277      0.0003
     94  CD1       36.8400    7.9620   -6.1510 C.ar  277  TRP277      0.0946
     95  CD2       36.6270   10.0830   -5.4540 C.ar  277  TRP277      0.0152
     96  NE1       35.6640    8.0590   -5.4430 N.ar  277  TRP277     -0.2442
     97  CE2       35.5120    9.3460   -5.0020 C.ar  277  TRP277      0.0810
     98  CE3       36.7140   11.4430   -5.1340 C.ar  277  TRP277      0.0012
     99  CZ2       34.4860    9.9280   -4.2520 C.ar  277  TRP277      0.0191
    100  CZ3       35.6950   12.0180   -4.3840 C.ar  277  TRP277      0.0001
    101  CH2       34.5960   11.2610   -3.9540 C.ar  277  TRP277      0.0015
    102  N         37.0320    8.3880  -12.3930 N.3   280  SER280     -0.1202
    103  CA        36.6940    6.9680  -12.3730 C.3   280  SER280      0.2020
    104  C         35.1860    6.7670  -12.2660 C.2   280  SER280      0.2618
    105  O         34.6380    5.8260  -12.8310 O.2   280  SER280     -0.2717
    106  CB        37.4070    6.2470  -11.2220 C.3   280  SER280      0.2103
    107  OG        36.8470    6.5810   -9.9620 O.3   280  SER280     -0.2182
    108  N         34.5160    7.6640  -11.5500 N.am  281  ASN281     -0.1974
    109  CA        33.0690    7.5720  -11.3830 C.3   281  ASN281      0.1688
    110  C         32.3010    8.1150  -12.5810 C.2   281  ASN281      0.2292
    111  O         31.1460    7.7570  -12.8060 O.2   281  ASN281     -0.2864
    112  CB        32.6390    8.2970  -10.1110 C.3   281  ASN281      0.1181
    113  CG        32.8610    7.4560   -8.8780 C.2   281  ASN281      0.2629
    114  OD1       32.6830    6.2400   -8.9190 O.2   281  ASN281     -0.2716
    115  ND2       33.2720    8.0880   -7.7820 N.am  281  ASN281     -0.0877
    116  N         32.3900    5.4630  -15.0960 N.3   284  ALA284     -0.1231
    117  CA        31.4770    4.4270  -14.6350 C.3   284  ALA284      0.1694
    118  C         30.0570    4.7140  -15.1240 C.2   284  ALA284      0.2593
    119  O         29.1320    3.9480  -14.8570 O.2   284  ALA284     -0.2718
    120  CB        31.5090    4.3260  -13.1090 C.3   284  ALA284      0.0304
    121  N         29.8940    5.8210  -15.8420 N.am  285  GLY285     -0.1942
    122  CA        28.5900    6.2400  -16.3240 C.3   285  GLY285      0.2014
    123  C         28.2180    5.6400  -17.6690 C.2   285  GLY285      0.2638
    124  O         28.7470    4.6010  -18.0640 O.2   285  GLY285     -0.2714
    125  N         27.3010    6.3040  -18.3690 N.am  286  ARG286     -0.1977
    126  CA        26.7840    5.8150  -19.6470 C.3   286  ARG286      0.1597
    127  C         27.7640    6.0560  -20.7960 C.2   286  ARG286      0.2287
    128  O         28.7660    6.7560  -20.6380 O.2   286  ARG286     -0.2864
    129  CB        25.4430    6.4830  -19.9650 C.3   286  ARG286      0.0334
    130  CG        24.4540    6.5110  -18.8040 C.3   286  ARG286      0.0492
    131  CD        23.1340    7.1750  -19.2010 C.3   286  ARG286      0.2205
    132  NE        23.3080    8.5800  -19.5640 N.pl3 286  ARG286     -0.0865
    133  CZ        22.6810    9.5940  -18.9720 C.cat 286  ARG286      0.5346
    134  NH1       21.8260    9.3640  -17.9830 N.pl3 286  ARG286      0.1354
    135  NH2       22.9050   10.8390  -19.3710 N.pl3 286  ARG286      0.1354
    136  N         46.1930    3.6060   -8.9040 N.3   315  LYS315     -0.1231
    137  CA        45.0960    2.6800   -8.6380 C.3   315  LYS315      0.1693
    138  C         43.7600    3.2940   -9.0310 C.2   315  LYS315      0.2591
    139  O         42.8890    2.6150   -9.5770 O.2   315  LYS315     -0.2718
    140  CB        45.0620    2.2760   -7.1610 C.3   315  LYS315      0.0285
    141  CG        45.4000    0.8160   -6.9130 C.3   315  LYS315      0.0035
    142  CD        44.5030    0.1800   -5.8560 C.3   315  LYS315      0.0206
    143  CE        44.8270    0.6790   -4.4570 C.3   315  LYS315      0.1093
    144  NZ        44.0120   -0.0200   -3.4220 N.3   315  LYS315     -0.1314
    145  N         43.5980    4.5810   -8.7380 N.am  316  GLU316     -0.1979
    146  CA        42.3870    5.2970   -9.1170 C.3   316  GLU316      0.1602
    147  C         42.2940    5.4160  -10.6340 C.2   316  GLU316      0.2287
    148  O         41.2020    5.3780  -11.2060 O.2   316  GLU316     -0.2864
    149  CB        42.3500    6.6780   -8.4630 C.3   316  GLU316      0.0415
    150  CG        42.0870    6.6360   -6.9630 C.3   316  GLU316      0.1163
    151  CD        40.8090    5.8900   -6.6210 C.2   316  GLU316      0.3649
    152  OE1       39.7420    6.2650   -7.1480 O.co2 316  GLU316     -0.2457
    153  OE2       40.8710    4.9230   -5.8340 O.co2 316  GLU316     -0.2457
    154  N         41.0940    2.1560  -11.9920 N.3   319  TRP319     -0.1241
    155  CA        39.6450    2.0820  -11.8330 C.3   319  TRP319      0.1605
    156  C         38.9310    2.8320  -12.9530 C.2   319  TRP319      0.2264
    157  O         37.9010    2.3820  -13.4570 O.2   319  TRP319     -0.2867
    158  CB        39.2170    2.6590  -10.4850 C.3   319  TRP319      0.0550
    159  CG        39.1970    1.6730   -9.3630 C.ar  319  TRP319      0.0003
    160  CD1       40.0850    1.5900   -8.3290 C.ar  319  TRP319      0.0946
    161  CD2       38.2300    0.6370   -9.1470 C.ar  319  TRP319      0.0152
    162  NE1       39.7330    0.5640   -7.4850 N.ar  319  TRP319     -0.2442
    163  CE2       38.5960   -0.0360   -7.9610 C.ar  319  TRP319      0.0810
    164  CE3       37.0910    0.2130   -9.8390 C.ar  319  TRP319      0.0012
    165  CZ2       37.8680   -1.1110   -7.4550 C.ar  319  TRP319      0.0191
    166  CZ3       36.3660   -0.8540   -9.3340 C.ar  319  TRP319      0.0001
    167  CH2       36.7580   -1.5040   -8.1520 C.ar  319  TRP319      0.0015
    168  N         36.4540    0.9370  -15.5960 N.3   323  ASN323     -0.1240
    169  CA        35.0920    1.4450  -15.7340 C.3   323  ASN323      0.1653
    170  C         34.8160    1.9190  -17.1610 C.2   323  ASN323      0.2266
    171  O         33.6990    1.7950  -17.6620 O.2   323  ASN323     -0.2867
    172  CB        34.8340    2.5850  -14.7480 C.3   323  ASN323      0.1155
    173  CG        34.7290    2.1020  -13.3100 C.2   323  ASN323      0.2627
    174  OD1       34.4470    0.9320  -13.0580 O.2   323  ASN323     -0.2716
    175  ND2       34.9480    3.0080  -12.3610 N.am  323  ASN323     -0.0877
    176  N         34.2770   -1.1490  -19.3260 N.3   326  SER326     -0.1202
    177  CA        33.0800   -1.9010  -18.9650 C.3   326  SER326      0.2020
    178  C         31.8340   -1.3420  -19.6410 C.2   326  SER326      0.2619
    179  O         30.9770   -2.0970  -20.0940 O.2   326  SER326     -0.2717
    180  CB        32.8830   -1.9130  -17.4470 C.3   326  SER326      0.2103
    181  OG        33.8450   -2.7380  -16.8160 O.3   326  SER326     -0.2182
    182  N         31.7370   -0.0190  -19.7030 N.am  327  GLY327     -0.1956
    183  CA        30.5730    0.6240  -20.2840 C.3   327  GLY327      0.1869
    184  C         30.8050    1.1900  -21.6730 C.2   327  GLY327      0.2309
    185  O         29.8540    1.4910  -22.3870 O.2   327  GLY327     -0.2863
@<TRIPOS>BOND
     1   185   184    2
     2   184   183    1
     3   127   128    2
     4   127   126    1
     5   183   182    1
     6   179   178    2
     7   129   126    1
     8   129   130    1
     9   182   178   am
    10   126   125    1
    11   178   177    1
    12   132   131    1
    13   132   133    2
    14   135   133    1
    15   176   177    1
    16   131   130    1
    17   133   134    1
    18   177   180    1
    19   125   123   am
    20   124   123    2
    21   123   122    1
    22   171   170    2
    23   180   181    1
    24   170   169    1
    25   122   121    1
    26   121   118   am
    27   169   168    1
    28   169   172    1
    29    62    60   ar
    30    59    60    1
    31    59    56    1
    32   118   119    2
    33   118   117    1
    34   116   117    1
    35    60    61   ar
    36    58    57    2
    37   172   173    1
    38   117   120    1
    39    66    65    2
    40    57    56    1
    41    65    64    1
    42    56    55    1
    43    69    67    1
    44   157   156    2
    45   173   174    2
    46   173   175   am
    47    67    64    1
    48    67    68    1
    49   156   155    1
    50   105   104    2
    51   111   110    2
    52    64    63    1
    53   110   109    1
    54   102   103    1
    55   103   104    1
    56   103   106    1
    57   104   108   am
    58   154   155    1
    59   155   158    1
    60   108   109    1
    61   109   112    1
    62   106   107    1
    63   148   147    2
    64    42    41    1
    65   147   146    1
    66   158   159    1
    67    41    43    1
    68    41    38    1
    69   112   113    1
    70   164   166   ar
    71   164   161   ar
    72    40    39    2
    73   139   138    2
    74    54    53    2
    75   159   161   ar
    76   159   160   ar
    77    38    39    1
    78    38    37    1
    79    91    90    2
    80   166   167   ar
    81   161   163   ar
    82   146   145    1
    83   146   149    1
    84   138   145   am
    85   138   137    1
    86    90    89    1
    87    88    89    1
    88   114   113    2
    89    39    44   am
    90   136   137    1
    91   113   115   am
    92    53    52    1
    93   137   140    1
    94   149   150    1
    95    89    92    1
    96   160   162   ar
    97   167   165   ar
    98   163   162   ar
    99   163   165   ar
   100    44    45    1
   101    82    81    2
   102    52    51    1
   103    51    46   am
   104    81    80    1
   105    73    72    2
   106    46    45    1
   107    46    47    2
   108   140   141    1
   109   152   151   ar
   110    45    48    1
   111    70    71    1
   112   150   151    1
   113   141   142    1
   114    92    93    1
   115    72    71    1
   116    72    79   am
   117    71    74    1
   118   151   153   ar
   119    93    94   ar
   120    93    95   ar
   121    94    96   ar
   122    79    80    1
   123    80    83    1
   124   142   143    1
   125    48    50    1
   126    48    49    1
   127    95    98   ar
   128    95    97   ar
   129    96    97   ar
   130    74    75    1
   131    98   100   ar
   132    97    99   ar
   133    31    32    2
   134    31    30    1
   135    75    76    1
   136    83    84    1
   137    29    30    1
   138   143   144    1
   139   100   101   ar
   140    99   101   ar
   141    30    33    1
   142    18    19    1
   143    76    77    1
   144    84    85    1
   145    21    20    2
   146    20    19    1
   147    19    22    1
   148    33    34    1
   149    86    85   ar
   150    77    78    1
   151    85    87   ar
   152    35    34    2
   153    34    36   am
   154    22    23    1
   155    24    23    1
   156    24    25    1
   157    25    26    2
   158    26    28    1
   159    26    27    1
   160    10    11    1
   161    11    12    1
   162    11    14    1
   163    12    13    2
   164    16    15   ar
   165    14    15    1
   166    15    17   ar
   167     9     8    1
   168     8     7    1
   169     7     6    1
   170     6     5    1
   171     5     2    1
   172     2     1    1
   173     2     3    1
   174     3     4    2
