@<TRIPOS>MOLECULE
tmp/4zdxA00.pdb
 99 99 0 0 0
SMALL
GASTEIGER

@<TRIPOS>ATOM
      1  N         26.9800   31.4960    8.1360 N.3    77  PHE77      -0.1241
      2  CA        27.4760   32.7800    8.6160 C.3    77  PHE77       0.1605
      3  C         28.7730   32.5610    9.3800 C.2    77  PHE77       0.2264
      4  O         28.9220   31.5440   10.0690 O.2    77  PHE77      -0.2867
      5  CB        26.4340   33.4680    9.5100 C.3    77  PHE77       0.0534
      6  CG        25.0820   33.6130    8.8600 C.ar   77  PHE77      -0.0203
      7  CD1       24.1510   32.5790    8.9240 C.ar   77  PHE77      -0.0042
      8  CD2       24.7480   34.7730    8.1710 C.ar   77  PHE77      -0.0042
      9  CE1       22.9080   32.7000    8.3100 C.ar   77  PHE77      -0.0003
     10  CE2       23.5110   34.9080    7.5590 C.ar   77  PHE77      -0.0003
     11  CZ        22.5850   33.8680    7.6300 C.ar   77  PHE77      -0.0000
     12  N         29.7500   34.0220   12.0090 N.3    79  GLU79      -0.1231
     13  CA        29.4540   34.0120   13.4390 C.3    79  GLU79       0.1699
     14  C         29.1550   32.6110   13.9740 C.2    79  GLU79       0.2592
     15  O         29.2940   32.3640   15.1710 O.2    79  GLU79      -0.2718
     16  CB        28.2670   34.9260   13.7600 C.3    79  GLU79       0.0402
     17  CG        28.5650   36.4180   13.6020 C.3    79  GLU79       0.1161
     18  CD        28.1170   36.9560   12.2610 C.2    79  GLU79       0.3649
     19  OE1       28.0790   36.1750   11.2810 O.co2  79  GLU79      -0.2457
     20  OE2       27.7990   38.1620   12.1940 O.co2  79  GLU79      -0.2457
     21  N         28.7220   31.7080   13.0970 N.am   80  TRP80      -0.1976
     22  CA        28.4110   30.3370   13.5040 C.3    80  TRP80       0.1640
     23  C         29.6420   29.4330   13.5210 C.2    80  TRP80       0.2290
     24  O         29.5780   28.2790   13.9490 O.2    80  TRP80      -0.2864
     25  CB        27.3690   29.7320   12.5670 C.3    80  TRP80       0.0576
     26  CG        26.0190   30.3930   12.6160 C.ar   80  TRP80       0.0006
     27  CD1       25.6060   31.3890   13.4700 C.ar   80  TRP80       0.0946
     28  CD2       24.8970   30.0980   11.7690 C.ar   80  TRP80       0.0152
     29  NE1       24.2890   31.7190   13.2070 N.ar   80  TRP80      -0.2442
     30  CE2       23.8340   30.9410   12.1700 C.ar   80  TRP80       0.0810
     31  CE3       24.6900   29.2010   10.7150 C.ar   80  TRP80       0.0012
     32  CZ2       22.5880   30.9150   11.5450 C.ar   80  TRP80       0.0191
     33  CZ3       23.4510   29.1760   10.0950 C.ar   80  TRP80       0.0001
     34  CH2       22.4130   30.0220   10.5170 C.ar   80  TRP80       0.0015
     35  N         21.3140   32.7830   20.9660 N.3    91  LYS91      -0.1231
     36  CA        21.4940   34.1940   20.6350 C.3    91  LYS91       0.1693
     37  C         21.8850   34.4240   19.1750 C.2    91  LYS91       0.2592
     38  O         21.4430   35.3890   18.5460 O.2    91  LYS91      -0.2718
     39  CB        22.5580   34.8010   21.5470 C.3    91  LYS91       0.0285
     40  CG        22.7180   36.3050   21.4190 C.3    91  LYS91       0.0035
     41  CD        23.8160   36.7830   22.3640 C.3    91  LYS91       0.0206
     42  CE        23.9210   38.3070   22.4090 C.3    91  LYS91       0.1093
     43  NZ        25.0590   38.7130   23.2900 N.3    91  LYS91      -0.1314
     44  N         22.7220   33.5370   18.6420 N.am   92  ALA92      -0.1966
     45  CA        23.1990   33.6740   17.2680 C.3    92  ALA92       0.1728
     46  C         22.2850   33.0020   16.2470 C.2    92  ALA92       0.2616
     47  O         22.5890   33.0100   15.0530 O.2    92  ALA92      -0.2715
     48  CB        24.6210   33.1030   17.1510 C.3    92  ALA92       0.0334
     49  N         21.1800   32.4210   16.7200 N.am   93  SER93      -0.1950
     50  CA        20.3510   31.5150   15.9250 C.3    93  SER93       0.1924
     51  C         21.1700   30.4860   15.1410 C.2    93  SER93       0.2314
     52  O         20.8610   30.2090   13.9790 O.2    93  SER93      -0.2863
     53  CB        19.4540   32.2980   14.9510 C.3    93  SER93       0.2116
     54  OG        18.5480   33.1490   15.6270 O.3    93  SER93      -0.2180
     55  N         13.6120   33.3590   10.9960 N.3   186  TRP186     -0.1241
     56  CA        13.5510   33.7760    9.6080 C.3   186  TRP186      0.1605
     57  C         13.5210   32.5350    8.7340 C.2   186  TRP186      0.2264
     58  O         14.5170   31.8270    8.6130 O.2   186  TRP186     -0.2867
     59  CB        14.7400   34.6750    9.2580 C.3   186  TRP186      0.0550
     60  CG        14.6770   35.2990    7.8930 C.ar  186  TRP186      0.0003
     61  CD1       13.8090   34.9950    6.8700 C.ar  186  TRP186      0.0946
     62  CD2       15.5270   36.3380    7.3990 C.ar  186  TRP186      0.0152
     63  NE1       14.0770   35.7830    5.7740 N.ar  186  TRP186     -0.2442
     64  CE2       15.1250   36.6160    6.0730 C.ar  186  TRP186      0.0810
     65  CE3       16.5930   37.0610    7.9480 C.ar  186  TRP186      0.0012
     66  CZ2       15.7560   37.5830    5.2890 C.ar  186  TRP186      0.0191
     67  CZ3       17.2100   38.0260    7.1680 C.ar  186  TRP186      0.0001
     68  CH2       16.7890   38.2750    5.8530 C.ar  186  TRP186      0.0015
     69  N         13.8390   31.4670    5.5230 N.3   188  TRP188     -0.1241
     70  CA        14.2920   31.9050    4.2150 C.3   188  TRP188      0.1605
     71  C         14.3190   30.7610    3.1990 C.2   188  TRP188      0.2264
     72  O         14.5880   30.9890    2.0250 O.2   188  TRP188     -0.2867
     73  CB        15.6760   32.5550    4.3170 C.3   188  TRP188      0.0550
     74  CG        16.7370   31.6820    4.9240 C.ar  188  TRP188      0.0003
     75  CD1       17.3230   30.5850    4.3560 C.ar  188  TRP188      0.0946
     76  CD2       17.3570   31.8500    6.2100 C.ar  188  TRP188      0.0152
     77  NE1       18.2570   30.0510    5.2140 N.ar  188  TRP188     -0.2442
     78  CE2       18.3000   30.8100    6.3560 C.ar  188  TRP188      0.0810
     79  CE3       17.2060   32.7770    7.2490 C.ar  188  TRP188      0.0012
     80  CZ2       19.0940   30.6730    7.5000 C.ar  188  TRP188      0.0191
     81  CZ3       17.9930   32.6380    8.3910 C.ar  188  TRP188      0.0001
     82  CH2       18.9230   31.5930    8.5060 C.ar  188  TRP188      0.0015
     83  N         16.8960   42.4010    8.2380 N.3   223  SER223     -0.1217
     84  CA        16.3960   41.5720    9.3300 C.3   223  SER223      0.1889
     85  C         16.1200   42.4030   10.5930 C.2   223  SER223      0.2288
     86  O         15.2630   42.0420   11.4040 O.2   223  SER223     -0.2866
     87  CB        17.3680   40.4290    9.6440 C.3   223  SER223      0.2089
     88  OG        18.6320   40.9030   10.0300 O.3   223  SER223     -0.2183
     89  N         12.4760   43.4370   12.2760 N.3   226  ARG226     -0.1245
     90  CA        11.6650   42.6610   13.2000 C.3   226  ARG226      0.1563
     91  C         11.7120   43.2850   14.5920 C.2   226  ARG226      0.2260
     92  O         10.6730   43.6010   15.1730 O.2   226  ARG226     -0.2867
     93  CB        12.1280   41.1970   13.2190 C.3   226  ARG226      0.0307
     94  CG        12.0340   40.5270   11.8460 C.3   226  ARG226      0.0489
     95  CD        12.7310   39.1770   11.8120 C.3   226  ARG226      0.2205
     96  NE        14.1760   39.3370   11.9080 N.pl3 226  ARG226     -0.0865
     97  CZ        15.0270   38.3230   12.0370 C.cat 226  ARG226      0.5346
     98  NH1       16.3260   38.5590   12.1520 N.pl3 226  ARG226      0.1354
     99  NH2       14.5720   37.0740   12.0600 N.pl3 226  ARG226      0.1354
@<TRIPOS>BOND
     1    72    71    2
     2    71    70    1
     3    70    73    1
     4    70    69    1
     5    73    74    1
     6    75    74   ar
     7    75    77   ar
     8    74    76   ar
     9    77    78   ar
    10    66    68   ar
    11    66    64   ar
    12    63    64   ar
    13    63    61   ar
    14    68    67   ar
    15    64    62   ar
    16    76    78   ar
    17    76    79   ar
    18    78    80   ar
    19    61    60   ar
    20    67    65   ar
    21    79    81   ar
    22    62    60   ar
    23    62    65   ar
    24    80    82   ar
    25    10    11   ar
    26    10     8   ar
    27    11     9   ar
    28    60    59    1
    29     1     2    1
    30     8     6   ar
    31    83    84    1
    32     9     7   ar
    33    81    82   ar
    34    58    57    2
    35     2     3    1
    36     2     5    1
    37    57    56    1
    38     6     7   ar
    39     6     5    1
    40    59    56    1
    41    84    87    1
    42    84    85    1
    43     3     4    2
    44    56    55    1
    45    87    88    1
    46    33    34   ar
    47    33    31   ar
    48    34    32   ar
    49    85    86    2
    50    31    28   ar
    51    19    18   ar
    52    32    30   ar
    53    28    30   ar
    54    28    26   ar
    55    95    94    1
    56    95    96    1
    57    94    93    1
    58    96    97    2
    59    12    13    1
    60    97    99    1
    61    97    98    1
    62    30    29   ar
    63    20    18   ar
    64    18    17    1
    65    89    90    1
    66    25    26    1
    67    25    22    1
    68    26    27   ar
    69    21    22    1
    70    21    14   am
    71    90    93    1
    72    90    91    1
    73    29    27   ar
    74    13    16    1
    75    13    14    1
    76    22    23    1
    77    23    24    2
    78    17    16    1
    79    14    15    2
    80    52    51    2
    81    91    92    2
    82    53    54    1
    83    53    50    1
    84    47    46    2
    85    51    50    1
    86    50    49    1
    87    46    49   am
    88    46    45    1
    89    48    45    1
    90    45    44    1
    91    38    37    2
    92    44    37   am
    93    37    36    1
    94    36    35    1
    95    36    39    1
    96    40    39    1
    97    40    41    1
    98    41    42    1
    99    42    43    1
