@<TRIPOS>MOLECULE
tmp/4zdzA01.pdb
 149 141 0 0 0
SMALL
GASTEIGER

@<TRIPOS>ATOM
      1  N         82.6970    3.4040   92.5360 N.3   121  TYR121     -0.1241
      2  CA        82.9960    4.8040   92.2470 C.3   121  TYR121      0.1605
      3  C         83.1130    5.1920   90.7670 C.2   121  TYR121      0.2264
      4  O         83.0300    6.3760   90.4460 O.2   121  TYR121     -0.2867
      5  CB        84.2950    5.1990   92.9500 C.3   121  TYR121      0.0534
      6  CG        84.2140    5.2350   94.4590 C.ar  121  TYR121     -0.0201
      7  CD1       83.6680    6.3280   95.1140 C.ar  121  TYR121     -0.0009
      8  CD2       84.7080    4.1890   95.2270 C.ar  121  TYR121     -0.0009
      9  CE1       83.6030    6.3760   96.4920 C.ar  121  TYR121      0.0417
     10  CE2       84.6490    4.2260   96.6070 C.ar  121  TYR121      0.0417
     11  CZ        84.0950    5.3240   97.2340 C.ar  121  TYR121      0.1957
     12  OH        84.0280    5.3680   98.6060 O.3   121  TYR121     -0.2866
     13  N         80.8710    7.7240   89.0840 N.3   124  LEU124     -0.1231
     14  CA        81.0670    9.1030   89.4980 C.3   124  LEU124      0.1693
     15  C         82.3370    9.6900   88.8960 C.2   124  LEU124      0.2592
     16  O         82.2960   10.7070   88.2050 O.2   124  LEU124     -0.2718
     17  CB        81.1160    9.1920   91.0240 C.3   124  LEU124      0.0284
     18  CG        81.5570   10.5150   91.6500 C.3   124  LEU124      0.0019
     19  CD1       80.7920   11.7000   91.0690 C.3   124  LEU124      0.0001
     20  CD2       81.3660   10.4350   93.1530 C.3   124  LEU124      0.0001
     21  N         83.4640    9.0360   89.1510 N.am  125  THR125     -0.1953
     22  CA        84.7640    9.6010   88.8020 C.3   125  THR125      0.1897
     23  C         85.0310    9.6800   87.3000 C.2   125  THR125      0.2313
     24  O         85.4910   10.7140   86.8150 O.2   125  THR125     -0.2863
     25  CB        85.8980    8.8040   89.4530 C.3   125  THR125      0.1794
     26  OG1       85.7560    7.4200   89.1130 O.3   125  THR125     -0.2208
     27  CG2       85.8670    8.9710   90.9760 C.3   125  THR125      0.0378
     28  N         86.8740   12.7890   85.4730 N.3   129  PHE129     -0.1241
     29  CA        88.3060   12.7380   85.1980 C.3   129  PHE129      0.1605
     30  C         88.5860   12.3680   83.7380 C.2   129  PHE129      0.2264
     31  O         89.5140   12.8900   83.1150 O.2   129  PHE129     -0.2867
     32  CB        89.0060   11.7350   86.1220 C.3   129  PHE129      0.0534
     33  CG        88.7340   11.9440   87.5990 C.ar  129  PHE129     -0.0203
     34  CD1       88.3580   13.1840   88.1030 C.ar  129  PHE129     -0.0042
     35  CD2       88.8690   10.8860   88.4890 C.ar  129  PHE129     -0.0042
     36  CE1       88.1140   13.3570   89.4580 C.ar  129  PHE129     -0.0003
     37  CE2       88.6290   11.0570   89.8460 C.ar  129  PHE129     -0.0003
     38  CZ        88.2500   12.2930   90.3310 C.ar  129  PHE129     -0.0000
     39  N         92.2480    5.7450   87.0740 N.3   134  ILE134     -0.1231
     40  CA        91.6520    5.6930   88.4130 C.3   134  ILE134      0.1692
     41  C         90.7040    4.5100   88.5570 C.2   134  ILE134      0.2592
     42  O         91.1320    3.4140   88.9090 O.2   134  ILE134     -0.2718
     43  CB        90.8950    7.0020   88.7750 C.3   134  ILE134      0.0266
     44  CG1       91.7380    8.2270   88.4300 C.3   134  ILE134      0.0019
     45  CG2       90.5460    7.0240   90.2600 C.3   134  ILE134      0.0020
     46  CD1       93.0650    8.2270   89.1160 C.3   134  ILE134      0.0001
     47  N         89.4220    4.7230   88.2810 N.am  135  PHE135     -0.1976
     48  CA        88.4340    3.6570   88.4210 C.3   135  PHE135      0.1639
     49  C         87.8810    3.1520   87.0750 C.2   135  PHE135      0.2290
     50  O         87.0260    2.2630   87.0390 O.2   135  PHE135     -0.2864
     51  CB        87.2970    4.1330   89.3190 C.3   135  PHE135      0.0560
     52  CG        87.7260    4.4040   90.7380 C.ar  135  PHE135     -0.0200
     53  CD1       88.5030    3.4850   91.4290 C.ar  135  PHE135     -0.0042
     54  CD2       87.3730    5.5830   91.3720 C.ar  135  PHE135     -0.0042
     55  CE1       88.9030    3.7240   92.7300 C.ar  135  PHE135     -0.0003
     56  CE2       87.7700    5.8340   92.6750 C.ar  135  PHE135     -0.0003
     57  CZ        88.5380    4.9020   93.3570 C.ar  135  PHE135     -0.0000
     58  N         95.3460    0.8620   88.3510 N.3   142  LEU142     -0.1245
     59  CA        95.3110    1.8810   89.4020 C.3   142  LEU142      0.1561
     60  C         96.5470    1.8070   90.2970 C.2   142  LEU142      0.2260
     61  O         97.1280    2.8330   90.6540 O.2   142  LEU142     -0.2867
     62  CB        94.0490    1.7370   90.2540 C.3   142  LEU142      0.0270
     63  CG        93.9900    2.6330   91.4970 C.3   142  LEU142      0.0019
     64  CD1       94.1280    4.1060   91.1220 C.3   142  LEU142      0.0001
     65  CD2       92.7140    2.3940   92.3010 C.3   142  LEU142      0.0001
     66  N         81.4900   16.7060   90.2580 N.3   231  PHE231     -0.1241
     67  CA        81.9950   15.9370   91.3900 C.3   231  PHE231      0.1605
     68  C         81.1130   16.1560   92.6220 C.2   231  PHE231      0.2264
     69  O         81.5390   16.7660   93.6020 O.2   231  PHE231     -0.2867
     70  CB        83.4490   16.3360   91.6780 C.3   231  PHE231      0.0534
     71  CG        84.2060   15.3620   92.5480 C.ar  231  PHE231     -0.0203
     72  CD1       84.3270   14.0300   92.1870 C.ar  231  PHE231     -0.0042
     73  CD2       84.8360   15.7950   93.7040 C.ar  231  PHE231     -0.0042
     74  CE1       85.0340   13.1440   92.9780 C.ar  231  PHE231     -0.0003
     75  CE2       85.5480   14.9130   94.4990 C.ar  231  PHE231     -0.0003
     76  CZ        85.6460   13.5850   94.1350 C.ar  231  PHE231     -0.0000
     77  N         92.2890   13.9060   87.8510 N.3   305  GLY305     -0.1210
     78  CA        91.7890   13.1960   89.0150 C.3   305  GLY305      0.1956
     79  C         92.6320   13.4590   90.2470 C.2   305  GLY305      0.2611
     80  O         92.1070   13.7030   91.3360 O.2   305  GLY305     -0.2717
     81  N         93.9480   13.4180   90.0650 N.am  306  VAL306     -0.1979
     82  CA        94.8940   13.6420   91.1500 C.3   306  VAL306      0.1595
     83  C         94.7990   15.0720   91.6900 C.2   306  VAL306      0.2287
     84  O         94.7420   15.2750   92.9010 O.2   306  VAL306     -0.2864
     85  CB        96.3440   13.3270   90.6860 C.3   306  VAL306      0.0276
     86  CG1       97.3730   13.9250   91.6340 C.3   306  VAL306      0.0022
     87  CG2       96.5390   11.8250   90.5810 C.3   306  VAL306      0.0022
     88  N         91.1230   15.5460   93.3470 N.3   309  GLY309     -0.1210
     89  CA        91.0110   14.8750   94.6280 C.3   309  GLY309      0.1956
     90  C         91.7440   15.6320   95.7130 C.2   309  GLY309      0.2612
     91  O         91.1670   15.9670   96.7420 O.2   309  GLY309     -0.2717
     92  N         93.0200   15.9140   95.4770 N.am  310  GLY310     -0.1956
     93  CA        93.8150   16.6960   96.4040 C.3   310  GLY310      0.1869
     94  C         93.2950   18.1060   96.6250 C.2   310  GLY310      0.2309
     95  O         93.4720   18.6700   97.7070 O.2   310  GLY310     -0.2863
     96  N         90.1780   17.7200   99.2830 N.3   313  THR313     -0.1218
     97  CA        90.5810   17.2710  100.6120 C.3   313  THR313      0.1862
     98  C         91.3860   18.3480  101.3330 C.2   313  THR313      0.2287
     99  O         91.1940   18.5840  102.5240 O.2   313  THR313     -0.2866
    100  CB        91.4130   15.9830  100.5440 C.3   313  THR313      0.1770
    101  OG1       92.5200   16.1770   99.6570 O.3   313  THR313     -0.2211
    102  CG2       90.5620   14.8310  100.0340 C.3   313  THR313      0.0375
    103  N         86.4130   12.6260  104.1560 N.3   375  LEU375     -0.1245
    104  CA        85.5110   11.6140  103.6160 C.3   375  LEU375      0.1561
    105  C         84.8710   10.8260  104.7570 C.2   375  LEU375      0.2260
    106  O         85.5290   10.0080  105.3940 O.2   375  LEU375     -0.2867
    107  CB        86.2650   10.6750  102.6660 C.3   375  LEU375      0.0270
    108  CG        87.1820   11.3710  101.6440 C.3   375  LEU375      0.0019
    109  CD1       88.0680   10.3890  100.8850 C.3   375  LEU375      0.0001
    110  CD2       86.3650   12.1990  100.6730 C.3   375  LEU375      0.0001
    111  N         82.5160    8.5730  104.7260 N.3   377  SER377     -0.1202
    112  CA        82.2110    7.1880  104.3780 C.3   377  SER377      0.2020
    113  C         82.9890    6.7390  103.1510 C.2   377  SER377      0.2619
    114  O         83.0860    7.4690  102.1640 O.2   377  SER377     -0.2717
    115  CB        80.7140    7.0080  104.1180 C.3   377  SER377      0.2103
    116  OG        79.9480    7.3530  105.2540 O.3   377  SER377     -0.2182
    117  N         83.5380    5.5330  103.2160 N.am  378  LEU378     -0.1965
    118  CA        84.2240    4.9480  102.0780 C.3   378  LEU378      0.1728
    119  C         83.5370    3.6370  101.7190 C.2   378  LEU378      0.2616
    120  O         83.2020    2.8460  102.6000 O.2   378  LEU378     -0.2715
    121  CB        85.7060    4.7390  102.3910 C.3   378  LEU378      0.0311
    122  CG        86.4580    6.0390  102.7070 C.3   378  LEU378      0.0022
    123  CD1       87.9180    5.7730  103.0320 C.3   378  LEU378      0.0001
    124  CD2       86.3430    7.0340  101.5500 C.3   378  LEU378      0.0001
    125  N         83.3180    3.4210  100.4240 N.am  379  PHE379     -0.1974
    126  CA        82.5200    2.2920   99.9510 C.3   379  PHE379      0.1639
    127  C         83.3310    1.2530   99.1950 C.2   379  PHE379      0.2290
    128  O         84.3700    1.5540   98.6130 O.2   379  PHE379     -0.2864
    129  CB        81.3920    2.7650   99.0280 C.3   379  PHE379      0.0560
    130  CG        80.6200    3.9370   99.5510 C.ar  379  PHE379     -0.0200
    131  CD1       79.8710    3.8290  100.7090 C.ar  379  PHE379     -0.0042
    132  CD2       80.6190    5.1430   98.8680 C.ar  379  PHE379     -0.0042
    133  CE1       79.1480    4.9050  101.1880 C.ar  379  PHE379     -0.0003
    134  CE2       79.8980    6.2270   99.3430 C.ar  379  PHE379     -0.0003
    135  CZ        79.1610    6.1070  100.5050 C.ar  379  PHE379     -0.0000
    136  N         95.8090    6.4150  100.4650 N.3   465  CYS465     -0.1235
    137  CA        96.2180    7.6930   99.8870 C.3   465  CYS465      0.1677
    138  C         97.7170    7.7550   99.6300 C.2   465  CYS465      0.2270
    139  O         98.5070    7.2080  100.4000 O.2   465  CYS465     -0.2867
    140  CB        95.8080    8.8500  100.8120 C.3   465  CYS465      0.0956
    141  SG        96.1230   10.4980  100.1320 S.3   465  CYS465     -0.0801
    142  N         80.7380   15.8730   98.3820 N.3   504  MET504     -0.1245
    143  CA        81.6690   14.7500   98.2660 C.3   504  MET504      0.1570
    144  C         82.7040   14.7850   99.3930 C.2   504  MET504      0.2261
    145  O         83.1610   13.7450   99.8740 O.2   504  MET504     -0.2867
    146  CB        82.3630   14.7530   96.9000 C.3   504  MET504      0.0387
    147  CG        81.4860   14.2850   95.7350 C.3   504  MET504      0.0595
    148  SD        80.7090   12.6600   95.9430 S.3   504  MET504     -0.1393
    149  CE        82.1270   11.6610   96.3490 C.3   504  MET504      0.0692
@<TRIPOS>BOND
     1    31    30    2
     2    30    29    1
     3    29    28    1
     4    29    32    1
     5    32    33    1
     6    24    23    2
     7    50    49    2
     8    39    40    1
     9    49    48    1
    10    23    22    1
    11    33    34   ar
    12    33    35   ar
    13    77    78    1
    14    34    36   ar
    15    16    15    2
    16    47    48    1
    17    47    41   am
    18    58    59    1
    19    40    41    1
    20    40    43    1
    21    48    51    1
    22    44    43    1
    23    44    46    1
    24    35    37   ar
    25    41    42    2
    26    43    45    1
    27    22    21    1
    28    22    25    1
    29    15    21   am
    30    15    14    1
    31    78    79    1
    32    13    14    1
    33    26    25    1
    34    51    52    1
    35    59    62    1
    36    59    60    1
    37    25    27    1
    38    36    38   ar
    39    14    17    1
    40    37    38   ar
    41    81    79   am
    42    81    82    1
    43    79    80    2
    44    62    63    1
    45    66    67    1
    46    60    61    2
    47     4     3    2
    48    87    85    1
    49    85    82    1
    50    85    86    1
    51    52    54   ar
    52    52    53   ar
    53     3     2    1
    54    17    18    1
    55    19    18    1
    56    64    63    1
    57    82    83    1
    58    54    56   ar
    59    67    70    1
    60    67    68    1
    61    53    55   ar
    62    63    65    1
    63    18    20    1
    64    70    71    1
    65    83    84    2
    66    72    71   ar
    67    72    74   ar
    68     2     1    1
    69     2     5    1
    70    71    73   ar
    71    68    69    2
    72    56    57   ar
    73    55    57   ar
    74     5     6    1
    75    74    76   ar
    76    88    89    1
    77    73    75   ar
    78    76    75   ar
    79     6     7   ar
    80     6     8   ar
    81    89    90    1
    82     7     9   ar
    83     8    10   ar
    84    92    90   am
    85    92    93    1
    86    90    91    2
    87   147   148    1
    88   147   146    1
    89   148   149    1
    90    93    94    1
    91     9    11   ar
    92    10    11   ar
    93    94    95    2
    94   146   143    1
    95    11    12    1
    96   143   142    1
    97   143   144    1
    98   128   127    2
    99   132   134   ar
   100   132   130   ar
   101   129   130    1
   102   129   126    1
   103   127   126    1
   104    96    97    1
   105   134   135   ar
   106   144   145    2
   107   130   131   ar
   108   138   137    1
   109   138   139    2
   110   101   100    1
   111   137   136    1
   112   137   140    1
   113   126   125    1
   114   102   100    1
   115   141   140    1
   116   125   119   am
   117   135   133   ar
   118   100    97    1
   119    97    98    1
   120   110   108    1
   121   131   133   ar
   122   109   108    1
   123    98    99    2
   124   124   122    1
   125   108   107    1
   126   119   118    1
   127   119   120    2
   128   118   121    1
   129   118   117    1
   130   114   113    2
   131   121   122    1
   132   107   104    1
   133   122   123    1
   134   113   117   am
   135   113   112    1
   136   104   103    1
   137   104   105    1
   138   115   112    1
   139   115   116    1
   140   112   111    1
   141   105   106    2
