@<TRIPOS>MOLECULE
tmp/4ze6A00.pdb
 110 101 0 0 0
SMALL
GASTEIGER

@<TRIPOS>ATOM
      1  N          1.4560   -5.6120   11.3180 N.3    33  ASP33      -0.1239
      2  CA         1.5500   -4.6860   10.1930 C.3    33  ASP33       0.1674
      3  C          2.8730   -3.9420   10.3400 C.2    33  ASP33       0.2266
      4  O          3.0320   -3.0910   11.2320 O.2    33  ASP33      -0.2867
      5  CB         0.3420   -3.7490   10.2710 C.3    33  ASP33       0.1410
      6  CG         0.2430   -2.7820    9.1320 C.2    33  ASP33       0.3668
      7  OD1        1.1700   -2.6680    8.3060 O.co2  33  ASP33      -0.2456
      8  OD2       -0.8190   -2.1010    9.1010 O.co2  33  ASP33      -0.2456
      9  N          5.3970   -1.2430    9.7370 N.3    35  ASP35      -0.1239
     10  CA         5.0650    0.1440    9.4390 C.3    35  ASP35       0.1674
     11  C          6.3060    1.0360    9.4790 C.2    35  ASP35       0.2266
     12  O          6.7470    1.4400   10.5590 O.2    35  ASP35      -0.2867
     13  CB         4.0430    0.6420   10.4630 C.3    35  ASP35       0.1410
     14  CG         3.6230    2.0730   10.2220 C.2    35  ASP35       0.3668
     15  OD1        3.9290    2.5890    9.1320 O.co2  35  ASP35      -0.2456
     16  OD2        2.9970    2.6750   11.1220 O.co2  35  ASP35      -0.2456
     17  N          6.4220    3.9910    8.8260 N.3    37  GLY37      -0.1225
     18  CA         5.9790    5.3040    9.2420 C.3    37  GLY37       0.1811
     19  C          5.7170    5.4930   10.7320 C.2    37  GLY37       0.2280
     20  O          5.2150    6.5430   11.1220 O.2    37  GLY37      -0.2866
     21  N         -2.3560    7.7440   14.9910 N.3    79  TYR79      -0.1227
     22  CA        -1.8770    7.6640   13.6280 C.3    79  TYR79       0.1736
     23  C         -2.5990    8.6710   12.7460 C.2    79  TYR79       0.2596
     24  O         -3.6230    9.2380   13.1370 O.2    79  TYR79      -0.2718
     25  CB        -2.0720    6.2400   13.1100 C.3    79  TYR79       0.0548
     26  CG        -1.2950    5.1930   13.8830 C.ar   79  TYR79      -0.0200
     27  CD1        0.0650    5.0320   13.6750 C.ar   79  TYR79      -0.0009
     28  CD2       -1.9180    4.3710   14.8070 C.ar   79  TYR79      -0.0009
     29  CE1        0.7920    4.0580   14.3670 C.ar   79  TYR79       0.0417
     30  CE2       -1.2060    3.4050   15.5130 C.ar   79  TYR79       0.0417
     31  CZ         0.1440    3.2560   15.2860 C.ar   79  TYR79       0.1957
     32  OH         0.8340    2.2960   15.9800 O.3    79  TYR79      -0.2866
     33  N         -2.0600    8.8820   11.5510 N.am   80  GLY80      -0.1942
     34  CA        -2.5630    9.8900   10.6350 C.3    80  GLY80       0.2014
     35  C         -3.9830    9.6700   10.1500 C.2    80  GLY80       0.2638
     36  O         -4.6310   10.6090    9.6780 O.2    80  GLY80      -0.2714
     37  N         -4.4750    8.4400   10.2570 N.am   81  ASP81      -0.1971
     38  CA        -5.8360    8.1230    9.8410 C.3    81  ASP81       0.1709
     39  C         -6.8380    8.3120   10.9750 C.2    81  ASP81       0.2293
     40  O         -8.0220    8.0210   10.8140 O.2    81  ASP81      -0.2864
     41  CB        -5.9140    6.6890    9.3040 C.3    81  ASP81       0.1436
     42  CG        -5.7230    5.6410   10.3850 C.2    81  ASP81       0.3671
     43  OD1       -5.2230    5.9850   11.4740 O.co2  81  ASP81      -0.2456
     44  OD2       -6.0550    4.4610   10.1380 O.co2  81  ASP81      -0.2456
     45  N         -6.7240    6.7670   13.9310 N.3    83  SER83      -0.1217
     46  CA        -6.7680    5.6140   14.8240 C.3    83  SER83       0.1889
     47  C         -5.7560    5.7860   15.9510 C.2    83  SER83       0.2288
     48  O         -4.8640    6.6290   15.8790 O.2    83  SER83      -0.2866
     49  CB        -6.4980    4.3180   14.0610 C.3    83  SER83       0.2089
     50  OG        -5.1870    4.2950   13.5320 O.3    83  SER83      -0.2183
     51  N        -11.2000    1.2080   14.5760 N.3   115  SER115     -0.1202
     52  CA       -10.7250    0.6660   13.3110 C.3   115  SER115      0.2020
     53  C         -9.7840   -0.5130   13.5370 C.2   115  SER115      0.2618
     54  O         -9.7290   -1.4100   12.7020 O.2   115  SER115     -0.2717
     55  CB       -10.0680    1.7320   12.4400 C.3   115  SER115      0.2103
     56  OG        -8.9160    2.2560   13.0530 O.3   115  SER115     -0.2182
     57  N         -9.0690   -0.5390   14.6670 N.am  116  PHE116     -0.1975
     58  CA        -8.2520   -1.7030   14.9960 C.3   116  PHE116      0.1639
     59  C         -9.1500   -2.8850   15.3740 C.2   116  PHE116      0.2290
     60  O         -8.9750   -3.9940   14.8720 O.2   116  PHE116     -0.2864
     61  CB        -7.2360   -1.3730   16.0910 C.3   116  PHE116      0.0560
     62  CG        -6.1150   -0.4980   15.6190 C.ar  116  PHE116     -0.0200
     63  CD1       -5.2290   -0.9510   14.6640 C.ar  116  PHE116     -0.0042
     64  CD2       -5.9570    0.7850   16.1150 C.ar  116  PHE116     -0.0042
     65  CE1       -4.1960   -0.1530   14.2240 C.ar  116  PHE116     -0.0003
     66  CE2       -4.9240    1.5780   15.6880 C.ar  116  PHE116     -0.0003
     67  CZ        -4.0520    1.1160   14.7360 C.ar  116  PHE116     -0.0000
     68  N        -10.7580   -4.6450   12.4280 N.3   119  ASP119     -0.1239
     69  CA        -9.8900   -5.3710   11.5240 C.3   119  ASP119      0.1674
     70  C         -9.2870   -6.5910   12.2130 C.2   119  ASP119      0.2266
     71  O         -8.2720   -6.5130   12.8970 O.2   119  ASP119     -0.2867
     72  CB        -8.7930   -4.4750   10.9920 C.3   119  ASP119      0.1410
     73  CG        -7.9380   -5.1750    9.9810 C.2   119  ASP119      0.3668
     74  OD1       -8.2340   -6.3490    9.6480 O.co2 119  ASP119     -0.2456
     75  OD2       -6.9700   -4.5550    9.5130 O.co2 119  ASP119     -0.2456
     76  N         -5.2700   -7.9290   11.6740 N.3   122  ILE122     -0.1245
     77  CA        -4.0700   -7.2570   12.1610 C.3   122  ILE122      0.1561
     78  C         -4.0000   -7.3490   13.6840 C.2   122  ILE122      0.2260
     79  O         -4.8670   -6.8380   14.3920 O.2   122  ILE122     -0.2867
     80  CB        -4.0220   -5.7970   11.6630 C.3   122  ILE122      0.0252
     81  CG1       -3.8040   -5.7960   10.1450 C.3   122  ILE122      0.0019
     82  CG2       -2.9260   -5.0000   12.3780 C.3   122  ILE122      0.0019
     83  CD1       -3.8540   -4.4210    9.4820 C.3   122  ILE122      0.0001
     84  N          1.1280   -3.7270   15.3780 N.3   125  LEU125     -0.1245
     85  CA         2.0270   -3.0310   14.4640 C.3   125  LEU125      0.1561
     86  C          3.4610   -3.2690   14.8950 C.2   125  LEU125      0.2260
     87  O          3.7500   -3.4090   16.0830 O.2   125  LEU125     -0.2867
     88  CB         1.7630   -1.5120   14.4270 C.3   125  LEU125      0.0270
     89  CG         0.8010   -1.0570   13.3140 C.3   125  LEU125      0.0019
     90  CD1       -0.5970   -1.6060   13.5310 C.3   125  LEU125      0.0001
     91  CD2        0.7780    0.4570   13.1830 C.3   125  LEU125      0.0001
     92  N          6.4420    4.9510    3.4960 N.3   219  ASP219     -0.1239
     93  CA         5.5690    4.5230    4.5850 C.3   219  ASP219      0.1674
     94  C          4.7900    3.2550    4.2300 C.2   219  ASP219      0.2266
     95  O          3.7220    3.3050    3.6170 O.2   219  ASP219     -0.2867
     96  CB         4.6200    5.6670    4.9460 C.3   219  ASP219      0.1410
     97  CG         3.7490    5.3590    6.1420 C.2   219  ASP219      0.3668
     98  OD1        3.8920    4.2640    6.7300 O.co2 219  ASP219     -0.2456
     99  OD2        2.9280    6.2360    6.5040 O.co2 219  ASP219     -0.2456
    100  N          3.0950    1.4810    6.1300 N.3   221  GLY221     -0.1210
    101  CA         1.8640    1.4040    6.8900 C.3   221  GLY221      0.1956
    102  C          0.7250    2.2690    6.3620 C.2   221  GLY221      0.2612
    103  O         -0.3470    2.2710    6.9600 O.2   221  GLY221     -0.2717
    104  N          0.9510    2.9820    5.2650 N.am  222  THR222     -0.1952
    105  CA        -0.0890    3.7580    4.5990 C.3   222  THR222      0.1897
    106  C         -0.4180    3.0680    3.2880 C.2   222  THR222      0.2313
    107  O          0.4850    2.6910    2.5430 O.2   222  THR222     -0.2863
    108  CB         0.3760    5.2090    4.3680 C.3   222  THR222      0.1794
    109  OG1        0.4650    5.8700    5.6300 O.3   222  THR222     -0.2208
    110  CG2       -0.5990    5.9890    3.4910 C.3   222  THR222      0.0378
@<TRIPOS>BOND
     1   107   106    2
     2   106   105    1
     3   110   108    1
     4    92    93    1
     5    95    94    2
     6    94    93    1
     7   108   105    1
     8   108   109    1
     9    93    96    1
    10   105   104    1
    11    96    97    1
    12   104   102   am
    13   100   101    1
    14    97    99   ar
    15    97    98   ar
    16   102   101    1
    17   102   103    2
    18     7     6   ar
    19    17    18    1
    20     8     6   ar
    21     6     5    1
    22    15    14   ar
    23    18    19    1
    24    41    38    1
    25    41    42    1
    26    10    11    1
    27    10     9    1
    28    10    13    1
    29    11    12    2
    30    83    81    1
    31    75    73   ar
    32    74    73   ar
    33    36    35    2
    34    38    37    1
    35    38    39    1
    36    73    72    1
    37    44    42   ar
    38    81    80    1
    39    35    37   am
    40    35    34    1
    41     2     5    1
    42     2     3    1
    43     2     1    1
    44    14    13    1
    45    14    16   ar
    46     3     4    2
    47    42    43   ar
    48    34    33    1
    49    19    20    2
    50    40    39    2
    51    72    69    1
    52    69    70    1
    53    69    68    1
    54    33    23   am
    55    80    77    1
    56    80    82    1
    57    76    77    1
    58    77    78    1
    59    70    71    2
    60    55    56    1
    61    55    52    1
    62    54    53    2
    63    23    24    2
    64    23    22    1
    65    25    22    1
    66    25    26    1
    67    91    89    1
    68    52    53    1
    69    52    51    1
    70    89    90    1
    71    89    88    1
    72    50    49    1
    73    53    57   am
    74    22    21    1
    75    27    26   ar
    76    27    29   ar
    77    78    79    2
    78    26    28   ar
    79    45    46    1
    80    49    46    1
    81    65    63   ar
    82    65    67   ar
    83    29    31   ar
    84    88    85    1
    85    85    86    1
    86    85    84    1
    87    63    62   ar
    88    57    58    1
    89    67    66   ar
    90    28    30   ar
    91    46    47    1
    92    60    59    2
    93    86    87    2
    94    58    59    1
    95    58    61    1
    96    31    30   ar
    97    31    32    1
    98    62    61    1
    99    62    64   ar
   100    66    64   ar
   101    48    47    2
