@<TRIPOS>MOLECULE
tmp/4ze8A00.pdb
 84 82 0 0 0
SMALL
GASTEIGER

@<TRIPOS>ATOM
      1  N         24.5010  -13.7990   15.4400 N.3    39  ALA39      -0.1231
      2  CA        24.6270  -15.1370   15.9860 C.3    39  ALA39       0.1694
      3  C         23.5850  -16.0620   15.3790 C.2    39  ALA39       0.2592
      4  O         22.4610  -15.6460   15.0920 O.2    39  ALA39      -0.2718
      5  CB        24.4540  -15.1010   17.4990 C.3    39  ALA39       0.0304
      6  N         23.9530  -17.3310   15.2160 N.am   40  ARG40      -0.1966
      7  CA        23.0120  -18.3350   14.7400 C.3    40  ARG40       0.1729
      8  C         22.2770  -18.8640   15.9720 C.2    40  ARG40       0.2616
      9  O         22.9090  -19.2580   16.9690 O.2    40  ARG40      -0.2715
     10  CB        23.7610  -19.4660   14.0220 C.3    40  ARG40       0.0348
     11  CG        22.8290  -20.5510   13.5710 C.3    40  ARG40       0.0492
     12  CD        23.5350  -21.5140   12.6390 C.3    40  ARG40       0.2205
     13  NE        22.6790  -22.6710   12.4070 N.pl3  40  ARG40      -0.0865
     14  CZ        23.0950  -23.7960   11.8450 C.cat  40  ARG40       0.5346
     15  NH1       24.3640  -23.9370   11.4900 N.pl3  40  ARG40       0.1354
     16  NH2       22.2650  -24.8170   11.7040 N.pl3  40  ARG40       0.1354
     17  N         20.9390  -18.8190   15.9420 N.am   41  ASP41      -0.1957
     18  CA        20.1940  -19.3630   17.0650 C.3    41  ASP41       0.1840
     19  C         19.7240  -20.7640   16.6640 C.2    41  ASP41       0.2622
     20  O         18.6490  -20.9380   16.0850 O.2    41  ASP41      -0.2715
     21  CB        19.0050  -18.4730   17.4620 C.3    41  ASP41       0.1450
     22  CG        18.2010  -19.0110   18.6520 C.2    41  ASP41       0.3671
     23  OD1       18.5940  -20.0810   19.2280 O.co2  41  ASP41      -0.2456
     24  OD2       17.1710  -18.4000   18.9890 O.co2  41  ASP41      -0.2456
     25  N         20.5120  -21.7630   17.0180 N.am   42  PHE42      -0.1974
     26  CA        20.2210  -23.1650   16.6930 C.3    42  PHE42       0.1639
     27  C         18.9010  -23.7020   17.2450 C.2    42  PHE42       0.2290
     28  O         18.4040  -24.6980   16.7240 O.2    42  PHE42      -0.2864
     29  CB        21.3540  -24.0710   17.1650 C.3    42  PHE42       0.0560
     30  CG        22.6560  -23.9490   16.4000 C.ar   42  PHE42      -0.0200
     31  CD1       23.6080  -23.0050   16.7660 C.ar   42  PHE42      -0.0042
     32  CD2       22.9720  -24.8530   15.3900 C.ar   42  PHE42      -0.0042
     33  CE1       24.8360  -22.9280   16.1070 C.ar   42  PHE42      -0.0003
     34  CE2       24.2030  -24.7890   14.7400 C.ar   42  PHE42      -0.0003
     35  CZ        25.1200  -23.8110   15.0930 C.ar   42  PHE42      -0.0000
     36  N         20.3130  -14.0380   14.3970 N.3    55  VAL55      -0.1231
     37  CA        19.8000  -13.0050   15.3030 C.3    55  VAL55       0.1678
     38  C         20.8710  -11.9690   15.6490 C.2    55  VAL55       0.2434
     39  O         22.0550  -12.2740   15.5750 O.2    55  VAL55      -0.2733
     40  CB        19.1870  -13.6390   16.6040 C.3    55  VAL55       0.0265
     41  CG1       17.9820  -14.5260   16.2850 C.3    55  VAL55       0.0020
     42  CG2       20.2430  -14.4020   17.4340 C.3    55  VAL55       0.0020
     43  N         20.4970  -10.7590   16.0990 N.am   56  PRO56      -0.2729
     44  CA        21.5280   -9.8100   16.5550 C.3    56  PRO56       0.1401
     45  C         22.3770  -10.3560   17.7170 C.2    56  PRO56       0.2269
     46  O         21.8880  -11.1120   18.5730 O.2    56  PRO56      -0.2865
     47  CB        20.7060   -8.5900   17.0070 C.3    56  PRO56       0.0296
     48  CG        19.3870   -8.7060   16.2850 C.3    56  PRO56       0.0237
     49  CD        19.1370  -10.2000   16.2590 C.3    56  PRO56       0.0939
     50  N         22.8770  -13.3190   28.0480 N.3   198  PRO198     -0.2116
     51  CA        22.5740  -14.2220   29.1990 C.3   198  PRO198      0.1372
     52  C         23.7750  -14.5370   30.0840 C.2   198  PRO198      0.2244
     53  O         24.8320  -14.8990   29.5850 O.2   198  PRO198     -0.2868
     54  CB        21.9950  -15.4990   28.5400 C.3   198  PRO198      0.0268
     55  CG        22.4510  -15.4580   27.1260 C.3   198  PRO198      0.0207
     56  CD        22.5810  -13.9980   26.7600 C.3   198  PRO198      0.0892
     57  N         27.3050  -25.1070   22.5460 N.3   483  GLU483     -0.1245
     58  CA        26.6800  -23.8070   22.8600 C.3   483  GLU483      0.1567
     59  C         26.1440  -23.8830   24.2870 C.2   483  GLU483      0.2260
     60  O         25.4360  -24.8340   24.6260 O.2   483  GLU483     -0.2867
     61  CB        25.5210  -23.5280   21.8860 C.3   483  GLU483      0.0388
     62  CG        24.8650  -22.1660   22.0790 C.3   483  GLU483      0.1160
     63  CD        25.8550  -21.0250   22.0300 C.2   483  GLU483      0.3649
     64  OE1       26.3890  -20.7500   20.9370 O.co2 483  GLU483     -0.2457
     65  OE2       26.1610  -20.4540   23.0980 O.co2 483  GLU483     -0.2457
     66  N         24.9690  -20.6970   25.7980 N.3   485  ARG485     -0.1231
     67  CA        24.0850  -19.5220   25.9970 C.3   485  ARG485      0.1694
     68  C         22.6390  -20.0130   25.9990 C.2   485  ARG485      0.2592
     69  O         22.2160  -20.6220   25.0150 O.2   485  ARG485     -0.2718
     70  CB        24.2900  -18.4760   24.8770 C.3   485  ARG485      0.0321
     71  CG        25.6690  -17.8180   24.8700 C.3   485  ARG485      0.0489
     72  CD        25.8660  -17.0870   23.5520 C.3   485  ARG485      0.2205
     73  NE        27.1980  -16.4920   23.4180 N.pl3 485  ARG485     -0.0865
     74  CZ        28.2810  -17.1340   22.9930 C.cat 485  ARG485      0.5346
     75  NH1       28.2200  -18.4270   22.6860 N.pl3 485  ARG485      0.1354
     76  NH2       29.4290  -16.4880   22.8620 N.pl3 485  ARG485      0.1354
     77  N         21.9150  -19.8070   27.1200 N.am  486  ASN486     -0.1974
     78  CA        20.5300  -20.2500   27.3560 C.3   486  ASN486      0.1688
     79  C         20.4420  -21.7550   27.1390 C.2   486  ASN486      0.2292
     80  O         19.4340  -22.2450   26.6310 O.2   486  ASN486     -0.2864
     81  CB        19.5540  -19.5120   26.4240 C.3   486  ASN486      0.1181
     82  CG        19.4220  -18.0340   26.7530 C.2   486  ASN486      0.2629
     83  OD1       19.4150  -17.1800   25.8670 O.2   486  ASN486     -0.2716
     84  ND2       19.3170  -17.7060   28.0370 N.am  486  ASN486     -0.0877
@<TRIPOS>BOND
     1    15    14    1
     2    16    14    1
     3    14    13    2
     4    13    12    1
     5    12    11    1
     6    11    10    1
     7    10     7    1
     8    36    37    1
     9    34    35   ar
    10    34    32   ar
    11     7     6    1
    12     7     8    1
    13     4     3    2
    14    35    33   ar
    15     6     3   am
    16    37    38    1
    17    37    40    1
    18     3     2    1
    19    32    30   ar
    20     1     2    1
    21    39    38    2
    22    38    43   am
    23    17     8   am
    24    17    18    1
    25     8     9    2
    26     2     5    1
    27    20    19    2
    28    43    49    1
    29    43    44    1
    30    33    31   ar
    31    49    48    1
    32    48    47    1
    33    41    40    1
    34    30    31   ar
    35    30    29    1
    36    44    47    1
    37    44    45    1
    38    40    42    1
    39    19    25   am
    40    19    18    1
    41    26    25    1
    42    26    29    1
    43    26    27    1
    44    28    27    2
    45    18    21    1
    46    21    22    1
    47    45    46    2
    48    22    24   ar
    49    22    23   ar
    50    64    63   ar
    51    61    62    1
    52    61    58    1
    53    63    62    1
    54    63    65   ar
    55    57    58    1
    56    75    74    1
    57    58    59    1
    58    76    74    1
    59    74    73    2
    60    73    72    1
    61    72    71    1
    62    59    60    2
    63    71    70    1
    64    70    67    1
    65    69    68    2
    66    66    67    1
    67    83    82    2
    68    67    68    1
    69    68    77   am
    70    81    82    1
    71    81    78    1
    72    80    79    2
    73    82    84   am
    74    56    55    1
    75    56    50    1
    76    77    78    1
    77    55    54    1
    78    79    78    1
    79    50    51    1
    80    54    51    1
    81    51    52    1
    82    53    52    2
