@<TRIPOS>MOLECULE
tmp/4zeaA00.pdb
 115 105 0 0 0
SMALL
GASTEIGER

@<TRIPOS>ATOM
      1  N         -3.5550   -3.4300    3.4630 N.3    16  ALA16      -0.1245
      2  CA        -2.4050   -3.5010    4.3350 C.3    16  ALA16       0.1562
      3  C         -1.7900   -4.8730    4.1660 C.2    16  ALA16       0.2260
      4  O         -2.3660   -5.7510    3.5160 O.2    16  ALA16      -0.2867
      5  CB        -2.7990   -3.2620    5.7800 C.3    16  ALA16       0.0290
      6  N          1.4100   -5.6080   11.3230 N.3    33  ASP33      -0.1239
      7  CA         1.4920   -4.6850   10.2010 C.3    33  ASP33       0.1674
      8  C          2.8170   -3.9310   10.3570 C.2    33  ASP33       0.2266
      9  O          2.9620   -3.0720   11.2350 O.2    33  ASP33      -0.2867
     10  CB         0.2860   -3.7430   10.3020 C.3    33  ASP33       0.1410
     11  CG         0.1730   -2.7660    9.1660 C.2    33  ASP33       0.3668
     12  OD1        1.0860   -2.6270    8.3430 O.co2  33  ASP33      -0.2456
     13  OD2       -0.8940   -2.1140    9.1140 O.co2  33  ASP33      -0.2456
     14  N          5.3400   -1.2190    9.7720 N.3    35  ASP35      -0.1239
     15  CA         5.0050    0.1700    9.4740 C.3    35  ASP35       0.1674
     16  C          6.2450    1.0570    9.5250 C.2    35  ASP35       0.2266
     17  O          6.6770    1.4700   10.6050 O.2    35  ASP35      -0.2867
     18  CB         3.9870    0.6590   10.4990 C.3    35  ASP35       0.1410
     19  CG         3.5470    2.0800   10.2580 C.2    35  ASP35       0.3668
     20  OD1        3.8390    2.6120    9.1690 O.co2  35  ASP35      -0.2456
     21  OD2        2.8970    2.6410   11.1670 O.co2  35  ASP35      -0.2456
     22  N          6.3180    4.0450    8.9050 N.3    37  GLY37      -0.1225
     23  CA         5.8760    5.3610    9.3260 C.3    37  GLY37       0.1811
     24  C          5.6360    5.5340   10.8150 C.2    37  GLY37       0.2280
     25  O          5.1300    6.5700   11.2340 O.2    37  GLY37      -0.2866
     26  N         -2.4530    7.6260   14.9640 N.3    79  TYR79      -0.1227
     27  CA        -1.9620    7.5700   13.6020 C.3    79  TYR79       0.1736
     28  C         -2.6650    8.5980   12.7270 C.2    79  TYR79       0.2596
     29  O         -3.6930    9.1570   13.1080 O.2    79  TYR79      -0.2718
     30  CB        -2.1690    6.1570   13.0390 C.3    79  TYR79       0.0548
     31  CG        -1.3970    5.0920   13.8070 C.ar   79  TYR79      -0.0200
     32  CD1       -0.0240    4.9660   13.6490 C.ar   79  TYR79      -0.0009
     33  CD2       -2.0320    4.2420   14.6970 C.ar   79  TYR79      -0.0009
     34  CE1        0.6900    3.9990   14.3430 C.ar   79  TYR79       0.0417
     35  CE2       -1.3270    3.2790   15.4080 C.ar   79  TYR79       0.0417
     36  CZ         0.0280    3.1630   15.2270 C.ar   79  TYR79       0.1957
     37  OH         0.7020    2.1970   15.9460 O.3    79  TYR79      -0.2866
     38  N         -2.1120    8.8230   11.5430 N.am   80  GLY80      -0.1942
     39  CA        -2.6210    9.8390   10.6390 C.3    80  GLY80       0.2014
     40  C         -4.0750    9.6700   10.2480 C.2    80  GLY80       0.2638
     41  O         -4.7460   10.6490    9.9130 O.2    80  GLY80      -0.2714
     42  N         -4.5640    8.4340   10.2630 N.am   81  ASP81      -0.1971
     43  CA        -5.9500    8.1560    9.8920 C.3    81  ASP81       0.1709
     44  C         -6.9230    8.3090   11.0620 C.2    81  ASP81       0.2293
     45  O         -8.1160    8.0350   10.9230 O.2    81  ASP81      -0.2864
     46  CB        -6.0710    6.7470    9.2980 C.3    81  ASP81       0.1436
     47  CG        -5.9180    5.6510   10.3390 C.2    81  ASP81       0.3671
     48  OD1       -5.3800    5.9260   11.4310 O.co2  81  ASP81      -0.2456
     49  OD2       -6.3290    4.5080   10.0600 O.co2  81  ASP81      -0.2456
     50  N         -6.8260    6.6470   13.9300 N.3    83  SER83      -0.1217
     51  CA        -6.8700    5.4680   14.7910 C.3    83  SER83       0.1889
     52  C         -5.8490    5.6080   15.9190 C.2    83  SER83       0.2288
     53  O         -4.9310    6.4200   15.8400 O.2    83  SER83      -0.2866
     54  CB        -6.6240    4.1930   13.9830 C.3    83  SER83       0.2089
     55  OG        -5.3300    4.1740   13.4120 O.3    83  SER83      -0.2183
     56  N        -11.3130    1.0910   14.5450 N.3   115  SER115     -0.1202
     57  CA       -10.8170    0.5530   13.2820 C.3   115  SER115      0.2020
     58  C         -9.8820   -0.6360   13.5080 C.2   115  SER115      0.2618
     59  O         -9.7860   -1.5180   12.6540 O.2   115  SER115     -0.2717
     60  CB       -10.1190    1.6310   12.4570 C.3   115  SER115      0.2103
     61  OG        -8.9660    2.1040   13.1140 O.3   115  SER115     -0.2182
     62  N         -9.2030   -0.6720   14.6520 N.am  116  PHE116     -0.1975
     63  CA        -8.3670   -1.8180   14.9760 C.3   116  PHE116      0.1639
     64  C         -9.2470   -3.0030   15.3420 C.2   116  PHE116      0.2290
     65  O         -9.0630   -4.0980   14.8310 O.2   116  PHE116     -0.2864
     66  CB        -7.3810   -1.4760   16.0900 C.3   116  PHE116      0.0560
     67  CG        -6.2260   -0.6290   15.6250 C.ar  116  PHE116     -0.0200
     68  CD1       -5.3020   -1.1420   14.7340 C.ar  116  PHE116     -0.0042
     69  CD2       -6.0730    0.6790   16.0620 C.ar  116  PHE116     -0.0042
     70  CE1       -4.2510   -0.3710   14.2800 C.ar  116  PHE116     -0.0003
     71  CE2       -5.0130    1.4500   15.6160 C.ar  116  PHE116     -0.0003
     72  CZ        -4.1040    0.9260   14.7330 C.ar  116  PHE116     -0.0000
     73  N        -10.7690   -4.7200   12.3780 N.3   119  ASP119     -0.1239
     74  CA        -9.8980   -5.4570   11.4800 C.3   119  ASP119      0.1674
     75  C         -9.3220   -6.6770   12.1790 C.2   119  ASP119      0.2266
     76  O         -8.3030   -6.6020   12.8670 O.2   119  ASP119     -0.2867
     77  CB        -8.7720   -4.5850   10.9600 C.3   119  ASP119      0.1410
     78  CG        -8.0240   -5.2470    9.8400 C.2   119  ASP119      0.3668
     79  OD1       -8.1930   -6.4800    9.6480 O.co2 119  ASP119     -0.2456
     80  OD2       -7.2810   -4.5420    9.1390 O.co2 119  ASP119     -0.2456
     81  N         -5.3210   -7.9780   11.6820 N.3   122  ILE122     -0.1245
     82  CA        -4.1270   -7.2860   12.1670 C.3   122  ILE122      0.1561
     83  C         -4.0470   -7.4020   13.6870 C.2   122  ILE122      0.2260
     84  O         -4.9170   -6.9100   14.4090 O.2   122  ILE122     -0.2867
     85  CB        -4.1080   -5.8060   11.6780 C.3   122  ILE122      0.0252
     86  CG1       -3.8780   -5.7880   10.1660 C.3   122  ILE122      0.0019
     87  CG2       -3.0310   -4.9950   12.3990 C.3   122  ILE122      0.0019
     88  CD1       -4.0230   -4.4150    9.5030 C.3   122  ILE122      0.0001
     89  N          1.0360   -3.7310   15.3840 N.3   125  LEU125     -0.1245
     90  CA         1.9530   -3.0650   14.4670 C.3   125  LEU125      0.1561
     91  C          3.3850   -3.2830   14.9080 C.2   125  LEU125      0.2260
     92  O          3.6600   -3.4040   16.0980 O.2   125  LEU125     -0.2867
     93  CB         1.6820   -1.5480   14.3920 C.3   125  LEU125      0.0270
     94  CG         0.7340   -1.1170   13.2500 C.3   125  LEU125      0.0019
     95  CD1       -0.6840   -1.6480   13.4420 C.3   125  LEU125      0.0001
     96  CD2        0.7150    0.3820   13.0580 C.3   125  LEU125      0.0001
     97  N          6.4110    4.9630    3.4890 N.3   219  ASP219     -0.1239
     98  CA         5.5240    4.5740    4.5820 C.3   219  ASP219      0.1674
     99  C          4.7330    3.2970    4.2580 C.2   219  ASP219      0.2266
    100  O          3.6710    3.3470    3.6340 O.2   219  ASP219     -0.2867
    101  CB         4.5510    5.7160    4.8620 C.3   219  ASP219      0.1410
    102  CG         3.7420    5.5110    6.1240 C.2   219  ASP219      0.3668
    103  OD1        3.7970    4.4140    6.7190 O.co2 219  ASP219     -0.2456
    104  OD2        3.0400    6.4700    6.5250 O.co2 219  ASP219     -0.2456
    105  N          3.0350    1.5310    6.1750 N.3   221  GLY221     -0.1210
    106  CA         1.8130    1.4640    6.9540 C.3   221  GLY221      0.1956
    107  C          0.6380    2.2770    6.4420 C.2   221  GLY221      0.2612
    108  O         -0.4160    2.2930    7.0730 O.2   221  GLY221     -0.2717
    109  N          0.8350    2.9620    5.3230 N.am  222  THR222     -0.1952
    110  CA        -0.2020    3.7400    4.6580 C.3   222  THR222      0.1897
    111  C         -0.5230    3.0550    3.3300 C.2   222  THR222      0.2313
    112  O          0.3900    2.7080    2.5870 O.2   222  THR222     -0.2863
    113  CB         0.3070    5.1750    4.3970 C.3   222  THR222      0.1794
    114  OG1        0.4470    5.8600    5.6440 O.3   222  THR222     -0.2208
    115  CG2       -0.6460    5.9480    3.5360 C.3   222  THR222      0.0378
@<TRIPOS>BOND
     1   112   111    2
     2   111   110    1
     3     1     2    1
     4    97    98    1
     5     4     3    2
     6   115   113    1
     7   100    99    2
     8     3     2    1
     9    99    98    1
    10     2     5    1
    11   113   110    1
    12   113   114    1
    13    98   101    1
    14   110   109    1
    15   101   102    1
    16   109   107   am
    17   102   104   ar
    18   102   103   ar
    19   105   106    1
    20   107   106    1
    21   107   108    2
    22    12    11   ar
    23    22    23    1
    24    13    11   ar
    25    80    78   ar
    26    11    10    1
    27    20    19   ar
    28    46    43    1
    29    46    47    1
    30    23    24    1
    31    15    16    1
    32    15    14    1
    33    15    18    1
    34    88    86    1
    35    16    17    2
    36    79    78   ar
    37    78    77    1
    38    43    42    1
    39    43    44    1
    40    41    40    2
    41    49    47   ar
    42    86    85    1
    43     7    10    1
    44     7     8    1
    45     7     6    1
    46    40    42   am
    47    40    39    1
    48    19    18    1
    49    19    21   ar
    50    47    48   ar
    51     8     9    2
    52    39    38    1
    53    24    25    2
    54    45    44    2
    55    77    74    1
    56    74    75    1
    57    74    73    1
    58    38    28   am
    59    85    82    1
    60    85    87    1
    61    81    82    1
    62    82    83    1
    63    75    76    2
    64    60    61    1
    65    60    57    1
    66    59    58    2
    67    28    29    2
    68    28    27    1
    69    30    27    1
    70    30    31    1
    71    96    94    1
    72    94    95    1
    73    94    93    1
    74    57    58    1
    75    57    56    1
    76    55    54    1
    77    58    62   am
    78    27    26    1
    79    32    31   ar
    80    32    34   ar
    81    83    84    2
    82    31    33   ar
    83    50    51    1
    84    54    51    1
    85    70    72   ar
    86    70    68   ar
    87    34    36   ar
    88    93    90    1
    89    90    91    1
    90    90    89    1
    91    62    63    1
    92    33    35   ar
    93    72    71   ar
    94    68    67   ar
    95    51    52    1
    96    65    64    2
    97    91    92    2
    98    63    64    1
    99    63    66    1
   100    36    35   ar
   101    36    37    1
   102    71    69   ar
   103    67    69   ar
   104    67    66    1
   105    53    52    2
