@<TRIPOS>MOLECULE
tmp/4zecA01.pdb
 96 95 0 0 0
SMALL
GASTEIGER

@<TRIPOS>ATOM
      1  N         -1.7430  -38.8670   -2.5380 N.3   136  PRO136     -0.2102
      2  CA        -2.9220  -38.3770   -3.2770 C.3   136  PRO136      0.1504
      3  C         -4.0950  -37.9220   -2.4050 C.2   136  PRO136      0.2576
      4  O         -4.5240  -38.6390   -1.4990 O.2   136  PRO136     -0.2718
      5  CB        -3.2990  -39.5680   -4.1680 C.3   136  PRO136      0.0282
      6  CG        -2.0320  -40.3130   -4.3370 C.3   136  PRO136      0.0208
      7  CD        -1.3600  -40.2170   -3.0060 C.3   136  PRO136      0.0893
      8  N         -4.5950  -36.7050   -2.6690 N.am  137  SER137     -0.1938
      9  CA        -5.7190  -36.1250   -1.9380 C.3   137  SER137      0.2055
     10  C         -6.5420  -35.2020   -2.8380 C.2   137  SER137      0.2643
     11  O         -5.9950  -34.2620   -3.4270 O.2   137  SER137     -0.2714
     12  CB        -5.2370  -35.3750   -0.6950 C.3   137  SER137      0.2130
     13  OG        -6.2950  -34.6890   -0.0440 O.3   137  SER137     -0.2179
     14  N         -7.8570  -35.4810   -2.9370 N.am  138  TYR138     -0.1959
     15  CA        -8.8070  -34.6630   -3.6920 C.3   138  TYR138      0.1771
     16  C         -9.5750  -33.7480   -2.7220 C.2   138  TYR138      0.2619
     17  O        -10.6050  -33.1790   -3.0860 O.2   138  TYR138     -0.2715
     18  CB        -9.7640  -35.5340   -4.5390 C.3   138  TYR138      0.0574
     19  CG        -9.0900  -36.3190   -5.6460 C.ar  138  TYR138     -0.0198
     20  CD1       -9.2200  -37.7020   -5.7240 C.ar  138  TYR138     -0.0009
     21  CD2       -8.3480  -35.6760   -6.6360 C.ar  138  TYR138     -0.0009
     22  CE1       -8.6070  -38.4310   -6.7430 C.ar  138  TYR138      0.0417
     23  CE2       -7.7350  -36.3950   -7.6630 C.ar  138  TYR138      0.0417
     24  CZ        -7.8670  -37.7740   -7.7120 C.ar  138  TYR138      0.1957
     25  OH        -7.2660  -38.4920   -8.7190 O.3   138  TYR138     -0.2866
     26  N         -9.0340  -33.5820   -1.4960 N.am  139  LEU139     -0.1977
     27  CA        -9.6120  -32.7810   -0.4160 C.3   139  LEU139      0.1596
     28  C         -9.0120  -31.3750   -0.2780 C.2   139  LEU139      0.2287
     29  O         -9.4840  -30.5980    0.5590 O.2   139  LEU139     -0.2864
     30  CB        -9.5310  -33.5450    0.9280 C.3   139  LEU139      0.0297
     31  CG       -10.3920  -34.8000    1.0890 C.3   139  LEU139      0.0022
     32  CD1      -10.0790  -35.5060    2.3860 C.3   139  LEU139      0.0001
     33  CD2      -11.8630  -34.4630    1.0370 C.3   139  LEU139      0.0001
     34  N        -17.2600  -33.4460    2.3250 N.3   395  ASP395     -0.1239
     35  CA       -16.8190  -34.8500    2.3380 C.3   395  ASP395      0.1674
     36  C        -16.8870  -35.4310    3.7690 C.2   395  ASP395      0.2266
     37  O        -16.7460  -34.6850    4.7370 O.2   395  ASP395     -0.2867
     38  CB       -15.3640  -34.9020    1.8340 C.3   395  ASP395      0.1410
     39  CG       -14.8300  -36.2790    1.5210 C.2   395  ASP395      0.3668
     40  OD1      -14.9330  -36.6990    0.3510 O.co2 395  ASP395     -0.2456
     41  OD2      -14.2330  -36.9000    2.4230 O.co2 395  ASP395     -0.2456
     42  N         -9.7260  -44.2480    3.6230 N.3   429  VAL429     -0.1231
     43  CA       -10.5890  -43.1280    3.2000 C.3   429  VAL429      0.1692
     44  C         -9.8330  -41.8520    2.8110 C.2   429  VAL429      0.2593
     45  O        -10.2500  -41.1470    1.8910 O.2   429  VAL429     -0.2718
     46  CB       -11.8240  -42.8540    4.1060 C.3   429  VAL429      0.0266
     47  CG1      -12.7760  -44.0430    4.1350 C.3   429  VAL429      0.0020
     48  CG2      -11.4270  -42.4360    5.5190 C.3   429  VAL429      0.0020
     49  N         -8.7180  -41.5740    3.5020 N.am  430  THR430     -0.1939
     50  CA        -7.8310  -40.4300    3.2600 C.3   430  THR430      0.2028
     51  C         -7.1110  -40.6040    1.9030 C.2   430  THR430      0.2642
     52  O         -6.8110  -39.6200    1.2230 O.2   430  THR430     -0.2714
     53  CB        -6.7900  -40.3600    4.4040 C.3   430  THR430      0.1808
     54  OG1       -7.4550  -40.4360    5.6670 O.3   430  THR430     -0.2208
     55  CG2       -5.9100  -39.1160    4.3440 C.3   430  THR430      0.0379
     56  N         -6.8360  -41.8680    1.5390 N.am  431  VAL431     -0.1963
     57  CA        -6.0820  -42.2900    0.3620 C.3   431  VAL431      0.1727
     58  C         -6.9510  -42.5880   -0.8630 C.2   431  VAL431      0.2616
     59  O         -6.6180  -42.1310   -1.9600 O.2   431  VAL431     -0.2715
     60  CB        -5.1520  -43.4770    0.7550 C.3   431  VAL431      0.0290
     61  CG1       -4.6360  -44.2430   -0.4600 C.3   431  VAL431      0.0023
     62  CG2       -3.9940  -42.9990    1.6270 C.3   431  VAL431      0.0023
     63  N         -8.0300  -43.3730   -0.6870 N.am  432  LEU432     -0.1964
     64  CA        -8.9070  -43.7900   -1.7820 C.3   432  LEU432      0.1713
     65  C         -9.7310  -42.6540   -2.3820 C.2   432  LEU432      0.2458
     66  O        -10.2120  -41.8070   -1.6260 O.2   432  LEU432     -0.2730
     67  CB        -9.8480  -44.9290   -1.3420 C.3   432  LEU432      0.0310
     68  CG        -9.2210  -46.2940   -1.0620 C.3   432  LEU432      0.0022
     69  CD1      -10.0980  -47.0970   -0.1290 C.3   432  LEU432      0.0001
     70  CD2       -8.9620  -47.0690   -2.3460 C.3   432  LEU432      0.0001
     71  N         -9.9430  -42.6340   -3.7280 N.am  433  PRO433     -0.2716
     72  CA       -10.8260  -41.6050   -4.3130 C.3   433  PRO433      0.1536
     73  C        -12.2960  -42.0100   -4.1110 C.2   433  PRO433      0.2598
     74  O        -12.5440  -43.0550   -3.5070 O.2   433  PRO433     -0.2715
     75  CB       -10.4330  -41.6180   -5.7930 C.3   433  PRO433      0.0310
     76  CG       -10.0160  -43.0290   -6.0520 C.3   433  PRO433      0.0237
     77  CD        -9.4610  -43.5800   -4.7620 C.3   433  PRO433      0.0939
     78  N        -13.2660  -41.2270   -4.6210 N.am  434  ASN434     -0.1973
     79  CA       -14.6740  -41.6280   -4.4750 C.3   434  ASN434      0.1688
     80  C        -15.0270  -42.8580   -5.3040 C.2   434  ASN434      0.2292
     81  O        -14.6100  -42.9790   -6.4570 O.2   434  ASN434     -0.2864
     82  CB       -15.6590  -40.4700   -4.6790 C.3   434  ASN434      0.1181
     83  CG       -15.8870  -39.6450   -3.4270 C.2   434  ASN434      0.2629
     84  OD1      -15.7330  -40.1130   -2.2960 O.2   434  ASN434     -0.2716
     85  ND2      -16.2650  -38.3950   -3.5960 N.am  434  ASN434     -0.0877
     86  N        -14.6200  -46.6420   -0.9100 N.3   438  ARG438     -0.1245
     87  CA       -14.5930  -45.4990    0.0070 C.3   438  ARG438      0.1563
     88  C        -15.9380  -45.2620    0.7320 C.2   438  ARG438      0.2260
     89  O        -15.9280  -44.9930    1.9340 O.2   438  ARG438     -0.2867
     90  CB       -14.1180  -44.2300   -0.7150 C.3   438  ARG438      0.0307
     91  CG       -13.7030  -43.1350    0.2540 C.3   438  ARG438      0.0489
     92  CD       -13.3370  -41.8480   -0.4370 C.3   438  ARG438      0.2205
     93  NE       -12.6900  -40.9290    0.4980 N.pl3 438  ARG438     -0.0865
     94  CZ       -13.1630  -39.7310    0.8190 C.cat 438  ARG438      0.5346
     95  NH1      -14.2840  -39.2830    0.2690 N.pl3 438  ARG438      0.1354
     96  NH2      -12.5120  -38.9660    1.6820 N.pl3 438  ARG438      0.1354
@<TRIPOS>BOND
     1    25    24    1
     2    24    23   ar
     3    24    22   ar
     4    23    21   ar
     5    22    20   ar
     6    21    19   ar
     7    81    80    2
     8    76    75    1
     9    76    77    1
    10    75    72    1
    11    20    19   ar
    12    19    18    1
    13    80    79    1
    14    77    71    1
    15    82    79    1
    16    82    83    1
    17    78    79    1
    18    78    73   am
    19    18    15    1
    20     6     5    1
    21     6     7    1
    22    72    73    1
    23    72    71    1
    24     5     2    1
    25    73    74    2
    26    71    65   am
    27    15    14    1
    28    15    16    1
    29    85    83   am
    30    11    10    2
    31    83    84    2
    32     2     1    1
    33     2     3    1
    34    17    16    2
    35     7     1    1
    36    14    10   am
    37    10     9    1
    38    16    26   am
    39     8     3   am
    40     8     9    1
    41     3     4    2
    42    65    64    1
    43    65    66    2
    44    70    68    1
    45    59    58    2
    46     9    12    1
    47    64    67    1
    48    64    63    1
    49    26    27    1
    50    67    68    1
    51    68    69    1
    52    86    87    1
    53    58    63   am
    54    58    57    1
    55    90    87    1
    56    90    91    1
    57    12    13    1
    58    61    60    1
    59    92    91    1
    60    92    93    1
    61    27    28    1
    62    27    30    1
    63    28    29    2
    64    87    88    1
    65    95    94    1
    66    40    39   ar
    67    57    60    1
    68    57    56    1
    69    93    94    2
    70    88    89    2
    71    60    62    1
    72    94    96    1
    73    30    31    1
    74    33    31    1
    75    31    32    1
    76    52    51    2
    77    39    38    1
    78    39    41   ar
    79    56    51   am
    80    38    35    1
    81    45    44    2
    82    51    50    1
    83    34    35    1
    84    35    36    1
    85    44    43    1
    86    44    49   am
    87    43    42    1
    88    43    46    1
    89    50    49    1
    90    50    53    1
    91    36    37    2
    92    46    47    1
    93    46    48    1
    94    55    53    1
    95    53    54    1
