@<TRIPOS>MOLECULE
tmp/4zecA00.pdb
 255 250 0 0 0
SMALL
GASTEIGER

@<TRIPOS>ATOM
      1  N        -10.1230  -18.5370   23.1480 N.3    13  ASN13      -0.1240
      2  CA        -8.9510  -18.2140   23.9760 C.3    13  ASN13       0.1653
      3  C         -7.9000  -17.5040   23.1190 C.2    13  ASN13       0.2266
      4  O         -6.9400  -16.9390   23.6470 O.2    13  ASN13      -0.2867
      5  CB        -8.3140  -19.4930   24.5600 C.3    13  ASN13       0.1155
      6  CG        -9.2540  -20.4780   25.2090 C.2    13  ASN13       0.2627
      7  OD1      -10.1440  -20.1240   25.9980 O.2    13  ASN13      -0.2716
      8  ND2       -9.0240  -21.7560   24.9330 N.am   13  ASN13      -0.0877
      9  N        -10.8660  -22.1230   16.1220 N.3    21  ILE21      -0.1231
     10  CA       -11.8770  -23.0650   15.6190 C.3    21  ILE21       0.1692
     11  C        -12.6970  -23.5500   16.8250 C.2    21  ILE21       0.2593
     12  O        -12.1500  -24.1830   17.7330 O.2    21  ILE21      -0.2718
     13  CB       -11.2650  -24.2220   14.7770 C.3    21  ILE21       0.0266
     14  CG1      -10.8090  -23.7010   13.4020 C.3    21  ILE21       0.0019
     15  CG2      -12.2650  -25.3890   14.6230 C.3    21  ILE21       0.0020
     16  CD1       -9.7660  -24.5210   12.7420 C.3    21  ILE21       0.0001
     17  N        -13.9810  -23.1460   16.8580 N.am   22  SER22      -0.1938
     18  CA       -14.9600  -23.4060   17.9180 C.3    22  SER22       0.2055
     19  C        -16.3390  -22.9080   17.4540 C.2    22  SER22       0.2643
     20  O        -16.4990  -22.5740   16.2850 O.2    22  SER22      -0.2714
     21  CB       -14.5500  -22.6880   19.2100 C.3    22  SER22       0.2130
     22  OG       -14.3400  -21.2980   19.0060 O.3    22  SER22      -0.2179
     23  N        -17.3320  -22.8680   18.3540 N.am   23  ASN23      -0.1971
     24  CA       -18.6740  -22.3530   18.0380 C.3    23  ASN23       0.1688
     25  C        -18.6690  -20.8290   18.1370 C.2    23  ASN23       0.2292
     26  O        -19.5140  -20.1730   17.5180 O.2    23  ASN23      -0.2864
     27  CB       -19.7170  -22.8970   19.0400 C.3    23  ASN23       0.1181
     28  CG       -20.0960  -24.3600   18.9090 C.2    23  ASN23       0.2629
     29  OD1      -19.5650  -25.1370   18.1030 O.2    23  ASN23      -0.2716
     30  ND2      -21.0430  -24.7660   19.7110 N.am   23  ASN23      -0.0877
     31  N         -3.9160  -28.7020   17.6860 N.3   110  LEU110     -0.1245
     32  CA        -4.7120  -29.5760   16.8170 C.3   110  LEU110      0.1561
     33  C         -4.4580  -29.4020   15.3030 C.2   110  LEU110      0.2260
     34  O         -5.1020  -30.0770   14.4960 O.2   110  LEU110     -0.2867
     35  CB        -6.2090  -29.4310   17.1640 C.3   110  LEU110      0.0270
     36  CG        -6.6050  -29.8150   18.5960 C.3   110  LEU110      0.0019
     37  CD1       -7.8410  -29.0580   19.0480 C.3   110  LEU110      0.0001
     38  CD2       -6.7920  -31.3210   18.7420 C.3   110  LEU110      0.0001
     39  N         -5.7730  -32.0310   12.3480 N.3   114  TYR114     -0.1241
     40  CA        -6.8670  -31.4960   11.5090 C.3   114  TYR114      0.1605
     41  C         -6.4370  -31.2240   10.0610 C.2   114  TYR114      0.2264
     42  O         -7.2840  -30.9710    9.2020 O.2   114  TYR114     -0.2867
     43  CB        -7.4530  -30.2040   12.1130 C.3   114  TYR114      0.0534
     44  CG        -8.2110  -30.3290   13.4200 C.ar  114  TYR114     -0.0201
     45  CD1       -8.3680  -31.5640   14.0490 C.ar  114  TYR114     -0.0009
     46  CD2       -8.7670  -29.2090   14.0350 C.ar  114  TYR114     -0.0009
     47  CE1       -9.0440  -31.6780   15.2610 C.ar  114  TYR114      0.0417
     48  CE2       -9.4480  -29.3120   15.2480 C.ar  114  TYR114      0.0417
     49  CZ        -9.5930  -30.5520   15.8520 C.ar  114  TYR114      0.1957
     50  OH       -10.2630  -30.6590   17.0440 O.3   114  TYR114     -0.2866
     51  N        -12.3330  -23.0950    7.7080 N.3   147  TRP147     -0.1241
     52  CA       -11.8440  -22.3710    8.8840 C.3   147  TRP147      0.1605
     53  C        -10.3680  -22.7020    9.2440 C.2   147  TRP147      0.2264
     54  O         -9.7680  -22.0010   10.0610 O.2   147  TRP147     -0.2867
     55  CB       -12.7850  -22.5870   10.0970 C.3   147  TRP147      0.0550
     56  CG       -13.0950  -24.0160   10.4800 C.ar  147  TRP147      0.0003
     57  CD1      -12.5070  -25.1540   10.0010 C.ar  147  TRP147      0.0946
     58  CD2      -14.0430  -24.4420   11.4660 C.ar  147  TRP147      0.0152
     59  NE1      -13.0280  -26.2580   10.6340 N.ar  147  TRP147     -0.2442
     60  CE2      -13.9980  -25.8540   11.5130 C.ar  147  TRP147      0.0810
     61  CE3      -14.9330  -23.7650   12.3190 C.ar  147  TRP147      0.0012
     62  CZ2      -14.8150  -26.6030   12.3740 C.ar  147  TRP147      0.0191
     63  CZ3      -15.7320  -24.5070   13.1800 C.ar  147  TRP147      0.0001
     64  CH2      -15.6830  -25.9070   13.1890 C.ar  147  TRP147      0.0015
     65  N        -23.4020  -28.7900   12.0140 N.3   253  ASN253     -0.1240
     66  CA       -22.7790  -29.0780   13.2940 C.3   253  ASN253      0.1653
     67  C        -23.6600  -30.0650   14.0390 C.2   253  ASN253      0.2266
     68  O        -24.8810  -30.0480   13.8770 O.2   253  ASN253     -0.2867
     69  CB       -22.6680  -27.7770   14.1210 C.3   253  ASN253      0.1155
     70  CG       -22.0610  -27.9470   15.4960 C.2   253  ASN253      0.2627
     71  OD1      -22.7430  -28.2470   16.4780 O.2   253  ASN253     -0.2716
     72  ND2      -20.7730  -27.7320   15.6010 N.am  253  ASN253     -0.0877
     73  N        -20.0320  -26.3170   30.4450 N.3   341  MET341     -0.1245
     74  CA       -19.6640  -24.9130   30.6380 C.3   341  MET341      0.1570
     75  C        -20.9580  -24.0920   30.5820 C.2   341  MET341      0.2261
     76  O        -21.1370  -23.2640   29.6810 O.2   341  MET341     -0.2867
     77  CB       -18.6690  -24.4980   29.5380 C.3   341  MET341      0.0387
     78  CG       -17.8380  -23.2760   29.8660 C.3   341  MET341      0.0595
     79  SD       -17.2920  -22.4380   28.3530 S.3   341  MET341     -0.1393
     80  CE       -15.9680  -23.5010   27.8440 C.3   341  MET341      0.0692
     81  N        -23.0630  -22.9180   27.1500 N.3   344  TYR344     -0.1227
     82  CA       -22.1590  -22.5730   26.0510 C.3   344  TYR344      0.1736
     83  C        -22.8130  -23.1270   24.7730 C.2   344  TYR344      0.2595
     84  O        -22.9080  -22.4230   23.7650 O.2   344  TYR344     -0.2718
     85  CB       -20.7810  -23.2000   26.3000 C.3   344  TYR344      0.0548
     86  CG       -19.8150  -23.0660   25.1450 C.ar  344  TYR344     -0.0200
     87  CD1      -19.0150  -21.9310   25.0060 C.ar  344  TYR344     -0.0009
     88  CD2      -19.6640  -24.0900   24.2130 C.ar  344  TYR344     -0.0009
     89  CE1      -18.0940  -21.8190   23.9650 C.ar  344  TYR344      0.0417
     90  CE2      -18.7940  -23.9610   23.1330 C.ar  344  TYR344      0.0417
     91  CZ       -17.9870  -22.8370   23.0280 C.ar  344  TYR344      0.1957
     92  OH       -17.0830  -22.7350   21.9960 O.3   344  TYR344     -0.2866
     93  N        -23.3110  -24.3760   24.8600 N.am  345  TYR345     -0.1976
     94  CA       -24.0950  -25.0160   23.8210 C.3   345  TYR345      0.1639
     95  C        -25.5460  -24.7370   24.1750 C.2   345  TYR345      0.2290
     96  O        -25.9090  -24.8310   25.3500 O.2   345  TYR345     -0.2864
     97  CB       -23.8600  -26.5460   23.7790 C.3   345  TYR345      0.0560
     98  CG       -22.4250  -26.9500   23.5290 C.ar  345  TYR345     -0.0198
     99  CD1      -21.8030  -26.6730   22.3110 C.ar  345  TYR345     -0.0009
    100  CD2      -21.7120  -27.6820   24.4730 C.ar  345  TYR345     -0.0009
    101  CE1      -20.4770  -27.0300   22.0790 C.ar  345  TYR345      0.0417
    102  CE2      -20.3870  -28.0670   24.2410 C.ar  345  TYR345      0.0417
    103  CZ       -19.7810  -27.7480   23.0380 C.ar  345  TYR345      0.1957
    104  OH       -18.4760  -28.1040   22.8090 O.3   345  TYR345     -0.2866
    105  N        -18.9680  -25.6420   35.1380 N.3   371  TYR371     -0.1241
    106  CA       -17.6820  -24.9450   35.2230 C.3   371  TYR371      0.1605
    107  C        -17.6770  -23.6450   34.4060 C.2   371  TYR371      0.2264
    108  O        -18.3190  -23.5680   33.3590 O.2   371  TYR371     -0.2867
    109  CB       -16.5030  -25.8750   34.8530 C.3   371  TYR371      0.0534
    110  CG       -16.3430  -26.1570   33.3730 C.ar  371  TYR371     -0.0201
    111  CD1      -15.4920  -25.3840   32.5850 C.ar  371  TYR371     -0.0009
    112  CD2      -16.9940  -27.2290   32.7720 C.ar  371  TYR371     -0.0009
    113  CE1      -15.3280  -25.6450   31.2250 C.ar  371  TYR371      0.0417
    114  CE2      -16.8400  -27.5000   31.4120 C.ar  371  TYR371      0.0417
    115  CZ       -16.0030  -26.7050   30.6420 C.ar  371  TYR371      0.1957
    116  OH       -15.8420  -26.9620   29.3010 O.3   371  TYR371     -0.2866
    117  N        -12.5050  -21.2710   31.0320 N.3   374  GLY374     -0.1225
    118  CA       -11.1070  -21.2370   31.4460 C.3   374  GLY374      0.1811
    119  C        -10.8170  -22.0670   32.6850 C.2   374  GLY374      0.2280
    120  O         -9.6510  -22.2640   33.0410 O.2   374  GLY374     -0.2866
    121  N        -11.8640  -25.3880   33.1150 N.3   376  PHE376     -0.1241
    122  CA       -12.0690  -26.8140   32.8260 C.3   376  PHE376      0.1605
    123  C        -11.0310  -27.5700   33.6700 C.2   376  PHE376      0.2264
    124  O         -9.8520  -27.2150   33.6230 O.2   376  PHE376     -0.2867
    125  CB       -11.9190  -27.1390   31.3250 C.3   376  PHE376      0.0534
    126  CG       -12.0780  -28.6100   30.9750 C.ar  376  PHE376     -0.0203
    127  CD1      -10.9650  -29.4150   30.7570 C.ar  376  PHE376     -0.0042
    128  CD2      -13.3400  -29.1830   30.8570 C.ar  376  PHE376     -0.0042
    129  CE1      -11.1090  -30.7740   30.4570 C.ar  376  PHE376     -0.0003
    130  CE2      -13.4820  -30.5390   30.5380 C.ar  376  PHE376     -0.0003
    131  CZ       -12.3650  -31.3210   30.3270 C.ar  376  PHE376     -0.0000
    132  N        -18.6960  -35.4810   29.3680 N.3   385  ARG385     -0.1231
    133  CA       -18.6810  -34.0540   29.0050 C.3   385  ARG385      0.1694
    134  C        -19.4110  -33.8340   27.6840 C.2   385  ARG385      0.2592
    135  O        -19.4380  -34.7310   26.8400 O.2   385  ARG385     -0.2718
    136  CB       -17.2320  -33.4800   28.9470 C.3   385  ARG385      0.0321
    137  CG       -16.4190  -33.9330   27.7370 C.3   385  ARG385      0.0489
    138  CD       -14.9860  -33.4300   27.7170 C.3   385  ARG385      0.2205
    139  NE       -14.3700  -33.6980   26.4140 N.pl3 385  ARG385     -0.0865
    140  CZ       -13.8090  -34.8520   26.0560 C.cat 385  ARG385      0.5346
    141  NH1      -13.7580  -35.8690   26.9090 N.pl3 385  ARG385      0.1354
    142  NH2      -13.3220  -35.0060   24.8360 N.pl3 385  ARG385      0.1354
    143  N        -19.9820  -32.6510   27.4910 N.am  386  ASN386     -0.1960
    144  CA       -20.6160  -32.3440   26.2080 C.3   386  ASN386      0.1819
    145  C        -19.5790  -31.7360   25.2490 C.2   386  ASN386      0.2621
    146  O        -18.5340  -31.2550   25.6850 O.2   386  ASN386     -0.2715
    147  CB       -21.8650  -31.4600   26.3610 C.3   386  ASN386      0.1195
    148  CG       -21.6990  -30.2050   27.1970 C.2   386  ASN386      0.2630
    149  OD1      -20.6010  -29.7210   27.4560 O.2   386  ASN386     -0.2716
    150  ND2      -22.8020  -29.6600   27.6460 N.am  386  ASN386     -0.0877
    151  N        -19.8450  -31.8290   23.9450 N.am  387  TRP387     -0.1960
    152  CA       -18.9950  -31.3120   22.8760 C.3   387  TRP387      0.1771
    153  C        -19.8580  -31.1220   21.6260 C.2   387  TRP387      0.2620
    154  O        -21.0460  -31.4210   21.6430 O.2   387  TRP387     -0.2715
    155  CB       -17.8010  -32.2750   22.6120 C.3   387  TRP387      0.0590
    156  CG       -16.6460  -31.6940   21.8300 C.ar  387  TRP387      0.0006
    157  CD1      -16.2680  -30.3810   21.7580 C.ar  387  TRP387      0.0946
    158  CD2      -15.6970  -32.4270   21.0400 C.ar  387  TRP387      0.0152
    159  NE1      -15.1580  -30.2500   20.9550 N.ar  387  TRP387     -0.2442
    160  CE2      -14.7870  -31.4900   20.5000 C.ar  387  TRP387      0.0810
    161  CE3      -15.5360  -33.7880   20.7240 C.ar  387  TRP387      0.0012
    162  CZ2      -13.7330  -31.8720   19.6640 C.ar  387  TRP387      0.0191
    163  CZ3      -14.4830  -34.1650   19.9060 C.ar  387  TRP387      0.0001
    164  CH2      -13.5980  -33.2140   19.3830 C.ar  387  TRP387      0.0015
    165  N        -19.2800  -30.5560   20.5770 N.am  388  SER388     -0.1936
    166  CA       -19.9300  -30.3720   19.2860 C.3   388  SER388      0.2055
    167  C        -18.8820  -30.5050   18.1840 C.2   388  SER388      0.2643
    168  O        -17.6850  -30.3370   18.4460 O.2   388  SER388     -0.2714
    169  CB       -20.6660  -29.0350   19.2090 C.3   388  SER388      0.2130
    170  OG       -19.7910  -27.9610   18.9130 O.3   388  SER388     -0.2179
    171  N        -19.3220  -30.8430   16.9730 N.am  389  ASN389     -0.1957
    172  CA       -18.4250  -30.9730   15.8380 C.3   389  ASN389      0.1819
    173  C        -19.0170  -30.3480   14.5800 C.2   389  ASN389      0.2621
    174  O        -20.0950  -30.7400   14.1310 O.2   389  ASN389     -0.2715
    175  CB       -18.0080  -32.4320   15.6120 C.3   389  ASN389      0.1195
    176  CG       -16.8610  -32.9780   16.4600 C.2   389  ASN389      0.2630
    177  OD1      -16.3880  -32.3960   17.4400 O.2   389  ASN389     -0.2716
    178  ND2      -16.4110  -34.1590   16.1230 N.am  389  ASN389     -0.0877
    179  N        -18.3190  -29.3490   14.0540 N.am  390  GLY390     -0.1954
    180  CA       -18.6850  -28.6660   12.8180 C.3   390  GLY390      0.1869
    181  C        -18.1610  -29.4500   11.6340 C.2   390  GLY390      0.2309
    182  O        -16.9700  -29.7650   11.5850 O.2   390  GLY390     -0.2863
    183  N        -16.8990  -29.3810    8.4950 N.3   392  TRP392     -0.1241
    184  CA       -16.1540  -28.3740    7.7390 C.3   392  TRP392      0.1605
    185  C        -15.6680  -28.6600    6.3100 C.2   392  TRP392      0.2264
    186  O        -14.9960  -27.8050    5.7210 O.2   392  TRP392     -0.2867
    187  CB       -15.0270  -27.8070    8.6090 C.3   392  TRP392      0.0550
    188  CG       -14.0420  -28.8140    9.1300 C.ar  392  TRP392      0.0003
    189  CD1      -14.1370  -29.5280   10.2870 C.ar  392  TRP392      0.0946
    190  CD2      -12.7380  -29.0820    8.6000 C.ar  392  TRP392      0.0152
    191  NE1      -12.9930  -30.2670   10.4850 N.ar  392  TRP392     -0.2442
    192  CE2      -12.1140  -30.0060    9.4670 C.ar  392  TRP392      0.0810
    193  CE3      -12.0480  -28.6630    7.4450 C.ar  392  TRP392      0.0012
    194  CZ2      -10.8330  -30.5150    9.2210 C.ar  392  TRP392      0.0191
    195  CZ3      -10.7700  -29.1450    7.2160 C.ar  392  TRP392      0.0001
    196  CH2      -10.1810  -30.0720    8.0870 C.ar  392  TRP392      0.0015
    197  N        -14.3530  -34.4950   10.4750 N.3   399  THR399     -0.1218
    198  CA       -14.7540  -34.7640   11.8190 C.3   399  THR399      0.1862
    199  C        -14.4870  -36.2020   12.2160 C.2   399  THR399      0.2287
    200  O        -13.7380  -36.3870   13.1680 O.2   399  THR399     -0.2866
    201  CB       -15.9990  -34.0180   12.1780 C.3   399  THR399      0.1770
    202  OG1      -15.6070  -32.6460   12.3300 O.3   399  THR399     -0.2211
    203  CG2      -16.6190  -34.5190   13.4000 C.3   399  THR399      0.0375
    204  N        -10.9550  -35.8030   14.2460 N.3   403  GLU403     -0.1245
    205  CA       -11.2850  -35.9140   15.6740 C.3   403  GLU403      0.1567
    206  C        -11.1210  -37.3160   16.2640 C.2   403  GLU403      0.2260
    207  O        -10.5280  -37.4560   17.3330 O.2   403  GLU403     -0.2867
    208  CB       -12.7190  -35.3990   15.9740 C.3   403  GLU403      0.0388
    209  CG       -13.0310  -34.0030   15.4530 C.3   403  GLU403      0.1160
    210  CD       -12.3440  -32.8300   16.1320 C.2   403  GLU403      0.3649
    211  OE1      -11.4600  -33.0440   16.9930 O.co2 403  GLU403     -0.2457
    212  OE2      -12.6750  -31.6810   15.7680 O.co2 403  GLU403     -0.2457
    213  N         -7.2470  -36.3470   18.7880 N.3   409  GLN409     -0.1245
    214  CA        -7.3130  -36.1160   20.2300 C.3   409  GLN409      0.1566
    215  C         -8.2140  -37.1160   20.9960 C.2   409  GLN409      0.2260
    216  O         -7.9520  -37.3570   22.1670 O.2   409  GLN409     -0.2867
    217  CB        -7.7000  -34.6520   20.5350 C.3   409  GLN409      0.0367
    218  CG        -9.1970  -34.3270   20.3420 C.3   409  GLN409      0.0905
    219  CD        -9.5540  -32.8840   20.5910 C.2   409  GLN409      0.2608
    220  OE1      -10.3370  -32.2760   19.8370 O.2   409  GLN409     -0.2717
    221  NE2       -9.0240  -32.3060   21.6660 N.am  409  GLN409     -0.0878
    222  N         -5.5220  -38.2400   23.3090 N.3   413  ARG413     -0.1231
    223  CA        -5.6850  -37.4990   24.5580 C.3   413  ARG413      0.1694
    224  C         -6.7390  -38.1510   25.4370 C.2   413  ARG413      0.2592
    225  O         -6.4820  -38.4140   26.6170 O.2   413  ARG413     -0.2718
    226  CB        -6.0440  -36.0220   24.2800 C.3   413  ARG413      0.0321
    227  CG        -6.3030  -35.1830   25.5320 C.3   413  ARG413      0.0489
    228  CD        -6.7330  -33.7720   25.1930 C.3   413  ARG413      0.2205
    229  NE        -7.0390  -33.0020   26.4000 N.pl3 413  ARG413     -0.0865
    230  CZ        -7.2320  -31.6870   26.4250 C.cat 413  ARG413      0.5346
    231  NH1       -7.1390  -30.9720   25.3080 N.pl3 413  ARG413      0.1354
    232  NH2       -7.5080  -31.0730   27.5690 N.pl3 413  ARG413      0.1354
    233  N         -7.9200  -38.4080   24.8590 N.am  414  TRP414     -0.1976
    234  CA        -9.0770  -38.9390   25.5680 C.3   414  TRP414      0.1640
    235  C         -9.1430  -40.4440   25.8230 C.2   414  TRP414      0.2290
    236  O        -10.0540  -40.8940   26.5140 O.2   414  TRP414     -0.2864
    237  CB       -10.3810  -38.3090   25.0550 C.3   414  TRP414      0.0576
    238  CG       -10.3810  -36.8230   25.2420 C.ar  414  TRP414      0.0006
    239  CD1      -10.2130  -35.8740   24.2770 C.ar  414  TRP414      0.0946
    240  CD2      -10.4160  -36.1180   26.4970 C.ar  414  TRP414      0.0152
    241  NE1      -10.2200  -34.6150   24.8430 N.ar  414  TRP414     -0.2442
    242  CE2      -10.3270  -34.7370   26.2050 C.ar  414  TRP414      0.0810
    243  CE3      -10.5690  -36.5180   27.8370 C.ar  414  TRP414      0.0012
    244  CZ2      -10.3820  -33.7540   27.2040 C.ar  414  TRP414      0.0191
    245  CZ3      -10.6310  -35.5430   28.8240 C.ar  414  TRP414      0.0001
    246  CH2      -10.5450  -34.1800   28.5050 C.ar  414  TRP414      0.0015
    247  N        -21.4710  -22.5710   11.9270 N.3   479  GLU479     -0.1245
    248  CA       -21.2210  -21.9410   13.2280 C.3   479  GLU479      0.1567
    249  C        -20.3470  -20.6800   13.1090 C.2   479  GLU479      0.2260
    250  O        -19.2610  -20.5820   13.6940 O.2   479  GLU479     -0.2867
    251  CB       -20.6520  -22.9710   14.2220 C.3   479  GLU479      0.0388
    252  CG       -19.2750  -23.5090   13.8580 C.3   479  GLU479      0.1160
    253  CD       -18.9440  -24.8020   14.5610 C.2   479  GLU479      0.3649
    254  OE1      -18.1780  -24.7600   15.5490 O.co2 479  GLU479     -0.2457
    255  OE2      -19.4740  -25.8560   14.1430 O.co2 479  GLU479     -0.2457
@<TRIPOS>BOND
     1   186   185    2
     2   185   184    1
     3   195   193   ar
     4   195   196   ar
     5   193   190   ar
     6    51    52    1
     7   184   183    1
     8   184   187    1
     9   196   194   ar
    10   190   188   ar
    11   190   192   ar
    12   187   188    1
    13    52    53    1
    14    52    55    1
    15   188   189   ar
    16    42    41    2
    17   194   192   ar
    18    53    54    2
    19   192   191   ar
    20    57    56   ar
    21    57    59   ar
    22    41    40    1
    23    55    56    1
    24   189   191   ar
    25   197   198    1
    26    56    58   ar
    27    59    60   ar
    28    58    60   ar
    29    58    61   ar
    30    40    43    1
    31    40    39    1
    32    60    62   ar
    33   182   181    2
    34   181   180    1
    35   198   201    1
    36   198   199    1
    37   247   248    1
    38    65    66    1
    39    43    44    1
    40   201   202    1
    41   201   203    1
    42   199   200    2
    43    61    63   ar
    44    62    64   ar
    45    16    14    1
    46   180   179    1
    47   249   248    1
    48   249   250    2
    49    63    64   ar
    50   248   251    1
    51    66    67    1
    52    66    69    1
    53    14    13    1
    54    44    46   ar
    55    44    45   ar
    56   252   251    1
    57   252   253    1
    58    68    67    2
    59    46    48   ar
    60    45    47   ar
    61   179   173   am
    62    69    70    1
    63   174   173    2
    64   255   253   ar
    65   204   205    1
    66    34    33    2
    67   253   254   ar
    68   173   172    1
    69    15    13    1
    70    13    10    1
    71    48    49   ar
    72    47    49   ar
    73    33    32    1
    74   209   208    1
    75   209   210    1
    76    70    72   am
    77    70    71    2
    78   175   172    1
    79   175   176    1
    80    10     9    1
    81    10    11    1
    82   205   208    1
    83   205   206    1
    84   212   210   ar
    85   172   171    1
    86    49    50    1
    87   178   176   am
    88   210   211   ar
    89   206   207    2
    90    20    19    2
    91   176   177    2
    92    32    35    1
    93    32    31    1
    94    11    17   am
    95    11    12    2
    96    17    18    1
    97   171   167   am
    98    35    36    1
    99    19    18    1
   100    19    23   am
   101    26    25    2
   102    18    21    1
   103    24    25    1
   104    24    23    1
   105    24    27    1
   106    29    28    2
   107   167   168    2
   108   167   166    1
   109    36    38    1
   110    36    37    1
   111   213   214    1
   112    28    27    1
   113    28    30   am
   114   170   169    1
   115    22    21    1
   116   169   166    1
   117   166   165    1
   118   164   162   ar
   119   164   163   ar
   120   162   160   ar
   121   220   219    2
   122   163   161   ar
   123   214   217    1
   124   214   215    1
   125   218   217    1
   126   218   219    1
   127   160   159   ar
   128   160   158   ar
   129   165   153   am
   130   219   221   am
   131   161   158   ar
   132   159   157   ar
   133   215   216    2
   134   158   156   ar
   135   153   154    2
   136   153   152    1
   137   157   156   ar
   138   156   155    1
   139    92    91    1
   140   101    99   ar
   141   101   103   ar
   142    99    98   ar
   143   155   152    1
   144   104   103    1
   145   152   151    1
   146    91    90   ar
   147    91    89   ar
   148   103   102   ar
   149     3     4    2
   150     3     2    1
   151    90    88   ar
   152     1     2    1
   153   222   223    1
   154    98    97    1
   155    98   100   ar
   156    84    83    2
   157    97    94    1
   158    94    95    1
   159    94    93    1
   160   151   145   am
   161    89    87   ar
   162     2     5    1
   163    95    96    2
   164    88    86   ar
   165   102   100   ar
   166   239   241   ar
   167   239   238   ar
   168   226   223    1
   169   226   227    1
   170   223   224    1
   171     5     6    1
   172    83    93   am
   173    83    82    1
   174   142   140    1
   175   241   242   ar
   176   233   224   am
   177   233   234    1
   178     8     6   am
   179    87    86   ar
   180   237   238    1
   181   237   234    1
   182    86    85    1
   183   228   227    1
   184   228   229    1
   185     6     7    2
   186   238   240   ar
   187   145   146    2
   188   145   144    1
   189   231   230    1
   190   224   225    2
   191   234   235    1
   192   235   236    2
   193    82    85    1
   194    82    81    1
   195   140   139    2
   196   140   141    1
   197   242   240   ar
   198   242   244   ar
   199   144   147    1
   200   144   143    1
   201   147   148    1
   202   229   230    2
   203   139   138    1
   204   230   232    1
   205   240   243   ar
   206   135   134    2
   207   148   149    2
   208   148   150   am
   209   244   246   ar
   210   143   134   am
   211   134   133    1
   212   138   137    1
   213   137   136    1
   214   243   245   ar
   215    80    79    1
   216    79    78    1
   217   246   245   ar
   218   136   133    1
   219   133   132    1
   220   116   115    1
   221    77    78    1
   222    77    74    1
   223    76    75    2
   224   131   129   ar
   225   131   130   ar
   226    73    74    1
   227   129   127   ar
   228   130   128   ar
   229    75    74    1
   230   115   113   ar
   231   115   114   ar
   232   127   126   ar
   233   128   126   ar
   234   126   125    1
   235   117   118    1
   236   113   111   ar
   237   125   122    1
   238   114   112   ar
   239   118   119    1
   240   111   110   ar
   241   119   120    2
   242   112   110   ar
   243   122   121    1
   244   122   123    1
   245   108   107    2
   246   110   109    1
   247   124   123    2
   248   107   106    1
   249   109   106    1
   250   105   106    1
