@<TRIPOS>MOLECULE
tmp/4zefA00.pdb
 118 112 0 0 0
SMALL
GASTEIGER

@<TRIPOS>ATOM
      1  N        -23.6710   -9.1980    0.1830 N.3    23  ASP23      -0.1239
      2  CA       -23.6820  -10.6430   -0.0590 C.3    23  ASP23       0.1674
      3  C        -22.2630  -11.0940   -0.4020 C.2    23  ASP23       0.2266
      4  O        -21.3960  -10.2820   -0.6750 O.2    23  ASP23      -0.2867
      5  CB       -24.6780  -10.9380   -1.2020 C.3    23  ASP23       0.1410
      6  CG       -25.2540  -12.3520   -1.1850 C.2    23  ASP23       0.3668
      7  OD1      -24.6480  -13.2900   -0.6240 O.co2  23  ASP23      -0.2456
      8  OD2      -26.3190  -12.5450   -1.7990 O.co2  23  ASP23      -0.2456
      9  N        -22.7010  -12.5410   -5.8100 N.3    26  PHE26      -0.1241
     10  CA       -24.0240  -12.2760   -6.3610 C.3    26  PHE26       0.1605
     11  C        -23.7850  -11.4520   -7.6270 C.2    26  PHE26       0.2264
     12  O        -24.0750  -10.2560   -7.6930 O.2    26  PHE26      -0.2867
     13  CB       -24.8600  -11.5150   -5.3300 C.3    26  PHE26       0.0534
     14  CG       -26.3530  -11.5030   -5.6080 C.ar   26  PHE26      -0.0203
     15  CD1      -27.0640  -12.6870   -5.7230 C.ar   26  PHE26      -0.0042
     16  CD2      -27.0590  -10.3040   -5.6780 C.ar   26  PHE26      -0.0042
     17  CE1      -28.4330  -12.6790   -5.9370 C.ar   26  PHE26      -0.0003
     18  CE2      -28.4180  -10.3080   -5.8820 C.ar   26  PHE26      -0.0003
     19  CZ       -29.1060  -11.4920   -6.0000 C.ar   26  PHE26      -0.0000
     20  N        -26.2330  -12.4740    2.4620 N.3    64  PHE64      -0.1241
     21  CA       -27.4240  -11.6230    2.4620 C.3    64  PHE64       0.1605
     22  C        -28.0780  -11.4860    3.8410 C.2    64  PHE64       0.2264
     23  O        -28.2350  -10.3720    4.3700 O.2    64  PHE64      -0.2867
     24  CB       -28.4500  -12.1030    1.4250 C.3    64  PHE64       0.0534
     25  CG       -29.6470  -11.1920    1.3040 C.ar   64  PHE64      -0.0203
     26  CD1      -29.5150   -9.9260    0.7640 C.ar   64  PHE64      -0.0042
     27  CD2      -30.8930  -11.5880    1.7620 C.ar   64  PHE64      -0.0042
     28  CE1      -30.5830   -9.0760    0.6700 C.ar   64  PHE64      -0.0003
     29  CE2      -31.9830  -10.7400    1.6630 C.ar   64  PHE64      -0.0003
     30  CZ       -31.8260   -9.4760    1.1200 C.ar   64  PHE64      -0.0000
     31  N        -26.8000   -5.1930   -1.5870 N.3    81  ALA81      -0.1231
     32  CA       -26.7560   -6.6210   -1.8680 C.3    81  ALA81       0.1694
     33  C        -27.8640   -7.0120   -2.8290 C.2    81  ALA81       0.2593
     34  O        -28.5840   -7.9860   -2.6000 O.2    81  ALA81      -0.2718
     35  CB       -26.8480   -7.4290   -0.5640 C.3    81  ALA81       0.0304
     36  N        -27.9970   -6.2570   -3.9150 N.am   82  GLY82      -0.1942
     37  CA       -29.1210   -6.4540   -4.8200 C.3    82  GLY82       0.2014
     38  C        -30.4130   -6.5950   -4.0320 C.2    82  GLY82       0.2639
     39  O        -31.1910   -7.5090   -4.2650 O.2    82  GLY82      -0.2714
     40  N        -30.6400   -5.6820   -3.0960 N.am   83  MET83      -0.1963
     41  CA       -31.7150   -5.8320   -2.1290 C.3    83  MET83       0.1736
     42  C        -32.9970   -5.1530   -2.5910 C.2    83  MET83       0.2617
     43  O        -33.0420   -3.9310   -2.7810 O.2    83  MET83      -0.2715
     44  CB       -31.2800   -5.2130   -0.8050 C.3    83  MET83       0.0427
     45  CG       -32.2670   -5.3850    0.3180 C.3    83  MET83       0.0599
     46  SD       -31.6020   -4.5840    1.7940 S.3    83  MET83      -0.1393
     47  CE       -32.6990   -5.1940    3.0360 C.3    83  MET83       0.0692
     48  N        -34.0480   -5.9480   -2.7680 N.am   84  THR84      -0.1951
     49  CA       -35.3260   -5.4230   -3.2320 C.3    84  THR84       0.1897
     50  C        -35.9960   -4.5480   -2.1750 C.2    84  THR84       0.2313
     51  O        -36.1070   -4.9250   -1.0090 O.2    84  THR84      -0.2863
     52  CB       -36.2590   -6.5750   -3.6010 C.3    84  THR84       0.1794
     53  OG1      -35.5950   -7.4230   -4.5410 O.3    84  THR84      -0.2208
     54  CG2      -37.5750   -6.0700   -4.2010 C.3    84  THR84       0.0378
     55  N        -39.9250   -4.5240    4.4000 N.3    89  ARG89      -0.1245
     56  CA       -38.5490   -4.1580    4.7430 C.3    89  ARG89       0.1563
     57  C        -38.4100   -2.6960    5.1790 C.2    89  ARG89       0.2260
     58  O        -37.4870   -2.3500    5.9310 O.2    89  ARG89      -0.2867
     59  CB       -37.6100   -4.4690    3.5840 C.3    89  ARG89       0.0307
     60  CG       -37.3780   -5.9590    3.4300 C.3    89  ARG89       0.0489
     61  CD       -36.7010   -6.2930    2.1120 C.3    89  ARG89       0.2205
     62  NE       -36.3370   -7.6980    2.0590 N.pl3  89  ARG89      -0.0865
     63  CZ       -35.6900   -8.2800    1.0480 C.cat  89  ARG89       0.5346
     64  NH1      -35.3440   -7.5810   -0.0200 N.pl3  89  ARG89       0.1354
     65  NH2      -35.3890   -9.5670    1.1130 N.pl3  89  ARG89       0.1354
     66  N        -32.2380  -19.3640   -2.0650 N.3   129  LYS129     -0.1245
     67  CA       -31.4820  -18.7190   -0.9960 C.3   129  LYS129      0.1561
     68  C        -32.4360  -18.2560    0.1080 C.2   129  LYS129      0.2260
     69  O        -33.3910  -17.5200   -0.1450 O.2   129  LYS129     -0.2867
     70  CB       -30.6930  -17.5380   -1.5540 C.3   129  LYS129      0.0271
     71  CG       -29.7520  -16.8550   -0.5400 C.3   129  LYS129      0.0035
     72  CD       -29.1150  -15.5510   -1.0760 C.3   129  LYS129      0.0206
     73  CE       -28.4080  -15.7790   -2.4130 C.3   129  LYS129      0.1093
     74  NZ       -27.7920  -14.5490   -3.0260 N.3   129  LYS129     -0.1314
     75  N        -34.9150  -14.4960    1.0690 N.3   132  THR132     -0.1203
     76  CA       -35.0310  -13.6700   -0.1360 C.3   132  THR132      0.1994
     77  C        -36.4260  -13.5820   -0.7140 C.2   132  THR132      0.2617
     78  O        -37.3450  -14.3220   -0.3260 O.2   132  THR132     -0.2717
     79  CB       -34.1490  -14.2280   -1.2560 C.3   132  THR132      0.1784
     80  OG1      -34.6220  -15.5350   -1.6220 O.3   132  THR132     -0.2211
     81  CG2      -32.6820  -14.2690   -0.8060 C.3   132  THR132      0.0376
     82  N        -36.5610  -12.6880   -1.6830 N.am  133  GLU133     -0.1979
     83  CA       -37.8000  -12.5390   -2.4240 C.3   133  GLU133      0.1602
     84  C        -38.1330  -13.8330   -3.1600 C.2   133  GLU133      0.2287
     85  O        -39.3070  -14.2140   -3.2660 O.2   133  GLU133     -0.2864
     86  CB       -37.6740  -11.3590   -3.3960 C.3   133  GLU133      0.0415
     87  CG       -37.5330   -9.9960   -2.6700 C.3   133  GLU133      0.1163
     88  CD       -38.7050   -9.7060   -1.6950 C.2   133  GLU133      0.3649
     89  OE1      -39.7930   -9.5590   -2.2060 O.co2 133  GLU133     -0.2457
     90  OE2      -38.5430   -9.6240   -0.4350 O.co2 133  GLU133     -0.2457
     91  N        -33.7820  -17.4950   -8.3830 N.3   172  ASP172     -0.1225
     92  CA       -32.9140  -16.4030   -7.9670 C.3   172  ASP172      0.1805
     93  C        -33.2520  -15.1760   -8.8080 C.2   172  ASP172      0.2597
     94  O        -34.1460  -15.2160   -9.6530 O.2   172  ASP172     -0.2718
     95  CB       -31.4380  -16.8170   -8.0830 C.3   172  ASP172      0.1424
     96  CG       -30.5150  -16.0620   -7.1270 C.2   172  ASP172      0.3668
     97  OD1      -30.8490  -14.9490   -6.6590 O.co2 172  ASP172     -0.2456
     98  OD2      -29.4250  -16.6030   -6.8340 O.co2 172  ASP172     -0.2456
     99  N        -32.5690  -14.0670   -8.5720 N.am  173  ASP173     -0.1974
    100  CA       -32.9000  -12.8540   -9.3050 C.3   173  ASP173      0.1709
    101  C        -32.5520  -12.9970  -10.7870 C.2   173  ASP173      0.2293
    102  O        -31.5240  -13.5630  -11.1450 O.2   173  ASP173     -0.2864
    103  CB       -32.2030  -11.6480   -8.6930 C.3   173  ASP173      0.1436
    104  CG       -32.8380  -11.1890   -7.3880 C.2   173  ASP173      0.3671
    105  OD1      -33.7710  -11.8470   -6.8670 O.co2 173  ASP173     -0.2456
    106  OD2      -32.4010  -10.1360   -6.8890 O.co2 173  ASP173     -0.2456
    107  N        -34.0110   -2.4980   -6.7260 N.3   199  TYR199     -0.1241
    108  CA       -33.0160   -2.5740   -5.6750 C.3   199  TYR199      0.1605
    109  C        -32.7470   -1.2200   -5.0350 C.2   199  TYR199      0.2264
    110  O        -32.8060   -0.1750   -5.7050 O.2   199  TYR199     -0.2867
    111  CB       -31.6880   -3.0670   -6.2290 C.3   199  TYR199      0.0534
    112  CG       -31.6650   -4.4590   -6.8050 C.ar  199  TYR199     -0.0201
    113  CD1      -32.6650   -5.3910   -6.5310 C.ar  199  TYR199     -0.0009
    114  CD2      -30.6250   -4.8410   -7.6330 C.ar  199  TYR199     -0.0009
    115  CE1      -32.6000   -6.6860   -7.0590 C.ar  199  TYR199      0.0417
    116  CE2      -30.5410   -6.1100   -8.1560 C.ar  199  TYR199      0.0417
    117  CZ       -31.5370   -7.0370   -7.8890 C.ar  199  TYR199      0.1957
    118  OH       -31.4350   -8.2940   -8.4650 O.3   199  TYR199     -0.2866
@<TRIPOS>BOND
     1   102   101    2
     2   101   100    1
     3    94    93    2
     4   100   103    1
     5   100    99    1
     6    93    99   am
     7    93    92    1
     8   103   104    1
     9   118   117    1
    10    91    92    1
    11   116   117   ar
    12   116   114   ar
    13    95    92    1
    14    95    96    1
    15   117   115   ar
    16    12    11    2
    17   114   112   ar
    18    11    10    1
    19   104   106   ar
    20   104   105   ar
    21    96    98   ar
    22    96    97   ar
    23   115   113   ar
    24   112   113   ar
    25   112   111    1
    26   107   108    1
    27    10     9    1
    28    10    13    1
    29   111   108    1
    30    19    17   ar
    31    19    18   ar
    32    17    15   ar
    33    18    16   ar
    34    15    14   ar
    35   110   109    2
    36    16    14   ar
    37   108   109    1
    38    14    13    1
    39    37    38    1
    40    37    36    1
    41    53    52    1
    42    39    38    2
    43    54    52    1
    44    38    40   am
    45    36    33   am
    46    52    49    1
    47    86    87    1
    48    86    83    1
    49    85    84    2
    50    49    48    1
    51    49    50    1
    52    84    83    1
    53    40    41    1
    54    74    73    1
    55    33    34    2
    56    33    32    1
    57    43    42    2
    58    48    42   am
    59    87    88    1
    60    42    41    1
    61    83    82    1
    62    73    72    1
    63    89    88   ar
    64    50    51    2
    65    41    44    1
    66    66    67    1
    67    32    31    1
    68    32    35    1
    69     8     6   ar
    70    88    90   ar
    71    82    77   am
    72    80    79    1
    73    70    67    1
    74    70    71    1
    75    79    81    1
    76    79    76    1
    77     5     6    1
    78     5     2    1
    79     6     7   ar
    80    72    71    1
    81    67    68    1
    82    44    45    1
    83    77    78    2
    84    77    76    1
    85     4     3    2
    86     3     2    1
    87    69    68    2
    88    76    75    1
    89     2     1    1
    90    64    63    1
    91    45    46    1
    92    28    26   ar
    93    28    30   ar
    94    26    25   ar
    95    63    65    1
    96    63    62    2
    97    30    29   ar
    98    25    24    1
    99    25    27   ar
   100    24    21    1
   101    29    27   ar
   102    46    47    1
   103    62    61    1
   104    61    60    1
   105    20    21    1
   106    21    22    1
   107    60    59    1
   108    59    56    1
   109    22    23    2
   110    55    56    1
   111    56    57    1
   112    57    58    2
