@<TRIPOS>MOLECULE
tmp/4zegA01.pdb
 207 194 0 0 0
SMALL
GASTEIGER

@<TRIPOS>ATOM
      1  N         41.4740   35.1160   57.0830 N.3    14  LYS14      -0.1245
      2  CA        41.5720   36.4710   57.5380 C.3    14  LYS14       0.1561
      3  C         41.6680   36.4970   59.0500 C.2    14  LYS14       0.2260
      4  O         41.5550   35.4770   59.7200 O.2    14  LYS14      -0.2867
      5  CB        40.3880   37.3040   57.0500 C.3    14  LYS14       0.0271
      6  CG        39.0340   36.7280   57.4060 C.3    14  LYS14       0.0035
      7  CD        37.9110   37.7140   57.1090 C.3    14  LYS14       0.0206
      8  CE        38.1350   39.0830   57.7390 C.3    14  LYS14       0.1093
      9  NZ        36.9810   40.0070   57.5430 N.3    14  LYS14      -0.1314
     10  N         40.2000   37.8360   62.3650 N.3    16  ILE16      -0.1231
     11  CA        38.8660   38.2330   62.8110 C.3    16  ILE16       0.1692
     12  C         38.9280   38.9190   64.1390 C.2    16  ILE16       0.2592
     13  O         37.9230   39.3780   64.6380 O.2    16  ILE16      -0.2718
     14  CB        37.9020   37.0400   62.8830 C.3    16  ILE16       0.0266
     15  CG1       38.4160   35.9550   63.8500 C.3    16  ILE16       0.0019
     16  CG2       37.6700   36.4820   61.4750 C.3    16  ILE16       0.0020
     17  CD1       37.6110   34.6650   63.7560 C.3    16  ILE16       0.0001
     18  N         40.1110   38.9840   64.7290 N.am   17  GLY17      -0.1957
     19  CA        40.2030   39.5780   66.0410 C.3    17  GLY17       0.1869
     20  C         41.6020   39.8400   66.5060 C.2    17  GLY17       0.2309
     21  O         42.5460   39.2490   66.0440 O.2    17  GLY17      -0.2863
     22  N         43.3600   36.5300   66.5270 N.3    24  VAL24      -0.1245
     23  CA        42.4940   35.4170   66.1480 C.3    24  VAL24       0.1561
     24  C         42.2800   35.4120   64.6310 C.2    24  VAL24       0.2260
     25  O         41.9300   36.4070   64.0470 O.2    24  VAL24      -0.2867
     26  CB        41.1190   35.4890   66.8610 C.3    24  VAL24       0.0252
     27  CG1       40.3450   34.1930   66.7020 C.3    24  VAL24       0.0019
     28  CG2       41.3280   35.7380   68.3240 C.3    24  VAL24       0.0019
     29  N         40.5450   33.4290   61.2470 N.3    26  GLN26      -0.1245
     30  CA        39.7080   32.4260   60.5840 C.3    26  GLN26       0.1566
     31  C         40.5850   31.6700   59.6330 C.2    26  GLN26       0.2260
     32  O         41.3530   32.2620   58.9520 O.2    26  GLN26      -0.2867
     33  CB        38.6120   33.1550   59.8500 C.3    26  GLN26       0.0367
     34  CG        37.5400   32.3060   59.2210 C.3    26  GLN26       0.0905
     35  CD        36.5320   33.1910   58.4750 C.2    26  GLN26       0.2608
     36  OE1       36.8680   34.2530   57.9670 O.2    26  GLN26      -0.2717
     37  NE2       35.3030   32.7640   58.4410 N.am   26  GLN26      -0.0878
     38  N         38.7140   28.6580   64.0330 N.3    36  ALA36      -0.1245
     39  CA        39.2820   29.9020   64.5210 C.3    36  ALA36       0.1562
     40  C         40.5600   29.5240   65.2490 C.2    36  ALA36       0.2260
     41  O         40.5530   28.6130   66.0620 O.2    36  ALA36      -0.2867
     42  CB        38.3170   30.6240   65.4460 C.3    36  ALA36       0.0290
     43  N         43.4790   31.0300   67.7040 N.3    38  LYS38      -0.1245
     44  CA        44.0900   32.1160   68.4830 C.3    38  LYS38       0.1561
     45  C         45.5950   31.8870   68.5420 C.2    38  LYS38       0.2260
     46  O         46.0440   30.7660   68.8550 O.2    38  LYS38      -0.2867
     47  CB        43.5710   32.1970   69.9320 C.3    38  LYS38       0.0271
     48  CG        44.2540   33.3730   70.6520 C.3    38  LYS38       0.0035
     49  CD        43.4080   34.0050   71.7460 C.3    38  LYS38       0.0206
     50  CE        43.3970   33.1710   72.9990 C.3    38  LYS38       0.1093
     51  NZ        42.5390   33.8310   74.0300 N.3    38  LYS38      -0.1314
     52  N         43.2240   29.9070   81.2800 N.3    56  GLU56      -0.1245
     53  CA        42.1800   29.8320   80.1870 C.3    56  GLU56       0.1567
     54  C         42.1370   28.5260   79.4670 C.2    56  GLU56       0.2260
     55  O         41.0860   27.9290   79.2990 O.2    56  GLU56      -0.2867
     56  CB        42.4630   30.9090   79.1640 C.3    56  GLU56       0.0388
     57  CG        41.3280   31.2820   78.2250 C.3    56  GLU56       0.1160
     58  CD        41.7490   32.4270   77.3480 C.2    56  GLU56       0.3649
     59  OE1       42.6430   32.2220   76.4820 O.co2  56  GLU56      -0.2457
     60  OE2       41.2520   33.5510   77.5750 O.co2  56  GLU56      -0.2457
     61  N         39.0630   26.0770   79.5130 N.3    60  LEU60      -0.1245
     62  CA        38.4260   25.7980   78.2550 C.3    60  LEU60       0.1561
     63  C         38.4000   24.3010   78.0170 C.2    60  LEU60       0.2260
     64  O         37.3710   23.7190   77.6270 O.2    60  LEU60      -0.2867
     65  CB        39.1420   26.5200   77.0930 C.3    60  LEU60       0.0270
     66  CG        38.4690   26.3400   75.7350 C.3    60  LEU60       0.0019
     67  CD1       36.9960   26.6990   75.7690 C.3    60  LEU60       0.0001
     68  CD2       39.1870   27.0790   74.6130 C.3    60  LEU60       0.0001
     69  N         32.4330   27.5500   73.4760 N.3    71  ILE71      -0.1245
     70  CA        33.2500   27.3600   72.3090 C.3    71  ILE71       0.1561
     71  C         34.0760   26.0770   72.4160 C.2    71  ILE71       0.2260
     72  O         34.5770   25.7290   73.4940 O.2    71  ILE71      -0.2867
     73  CB        34.0980   28.6360   72.0560 C.3    71  ILE71       0.0252
     74  CG1       34.6450   28.6710   70.6430 C.3    71  ILE71       0.0019
     75  CG2       35.2280   28.7770   73.0400 C.3    71  ILE71       0.0019
     76  CD1       33.6020   29.0870   69.6350 C.3    71  ILE71       0.0001
     77  N         45.7260   28.1010   69.6630 N.3    85  MET85      -0.1245
     78  CA        44.5450   27.3890   69.9860 C.3    85  MET85       0.1570
     79  C         43.6410   27.2470   68.7450 C.2    85  MET85       0.2261
     80  O         43.2080   28.2310   68.1640 O.2    85  MET85      -0.2867
     81  CB        43.8060   28.1560   71.1130 C.3    85  MET85       0.0387
     82  CG        44.5940   28.2290   72.4350 C.3    85  MET85       0.0595
     83  SD        44.0200   29.3860   73.6870 S.3    85  MET85      -0.1393
     84  CE        42.6020   28.4710   74.2270 C.3    85  MET85       0.0692
     85  N         40.0740   26.4250   67.6130 N.3    87  MET87      -0.1230
     86  CA        38.7290   26.3840   68.1450 C.3    87  MET87       0.1702
     87  C         37.6540   26.5420   67.0500 C.2    87  MET87       0.2592
     88  O         37.9400   26.9120   65.9350 O.2    87  MET87      -0.2718
     89  CB        38.6010   27.5230   69.1030 C.3    87  MET87       0.0401
     90  CG        39.5010   27.3440   70.3310 C.3    87  MET87       0.0596
     91  SD        39.5990   28.8960   71.1870 S.3    87  MET87      -0.1393
     92  CE        40.6290   29.8980   70.1410 C.3    87  MET87       0.0692
     93  N         36.4060   26.3120   67.3870 N.am   88  GLU88      -0.1966
     94  CA        35.3860   26.4050   66.3770 C.3    88  GLU88       0.1733
     95  C         35.2580   27.8440   65.9590 C.2    88  GLU88       0.2616
     96  O         35.6170   28.7430   66.7250 O.2    88  GLU88      -0.2715
     97  CB        34.0610   25.7500   66.8220 C.3    88  GLU88       0.0429
     98  CG        33.1150   26.5710   67.6310 C.3    88  GLU88       0.1163
     99  CD        31.9610   25.7320   68.2050 C.2    88  GLU88       0.3649
    100  OE1       31.8680   25.6120   69.4440 O.co2  88  GLU88      -0.2457
    101  OE2       31.1330   25.2110   67.4400 O.co2  88  GLU88      -0.2457
    102  N         34.8940   28.0380   64.6800 N.am   89  CYS89      -0.1954
    103  CA        34.6090   29.3360   64.0900 C.3    89  CYS89       0.1843
    104  C         33.0980   29.5420   64.0890 C.2    89  CYS89       0.2626
    105  O         32.3690   28.6210   63.7200 O.2    89  CYS89      -0.2714
    106  CB        35.0730   29.3800   62.6080 C.3    89  CYS89       0.0997
    107  SG        34.9870   31.0500   61.9500 S.3    89  CYS89      -0.0797
    108  N         32.6150   30.7160   64.4690 N.am   90  GLY90      -0.1940
    109  CA        31.1760   31.0200   64.3310 C.3    90  GLY90       0.2014
    110  C         30.7790   31.8640   63.1060 C.2    90  GLY90       0.2639
    111  O         31.6200   32.2540   62.2780 O.2    90  GLY90      -0.2714
    112  N         29.4930   32.1920   63.0110 N.am   91  ASN91      -0.1958
    113  CA        28.9700   32.9270   61.8500 C.3    91  ASN91       0.1819
    114  C         29.2620   34.3950   62.0750 C.2    91  ASN91       0.2621
    115  O         29.8470   35.0890   61.2430 O.2    91  ASN91      -0.2715
    116  CB        27.4660   32.6790   61.6870 C.3    91  ASN91       0.1195
    117  CG        27.0990   31.1920   61.6880 C.2    91  ASN91       0.2630
    118  OD1       27.7970   30.3540   61.1190 O.2    91  ASN91      -0.2716
    119  ND2       25.9830   30.8610   62.3310 N.am   91  ASN91      -0.0877
    120  N         28.9240   34.8500   63.2680 N.am   92  ILE92      -0.1963
    121  CA        29.0870   36.2500   63.6230 C.3    92  ILE92       0.1727
    122  C         29.0870   36.3830   65.1630 C.2    92  ILE92       0.2616
    123  O         28.4690   35.5620   65.8610 O.2    92  ILE92      -0.2715
    124  CB        27.9300   37.0830   63.0140 C.3    92  ILE92       0.0290
    125  CG1       28.1520   38.5870   63.2730 C.3    92  ILE92       0.0022
    126  CG2       26.5950   36.6190   63.5910 C.3    92  ILE92       0.0023
    127  CD1       27.2520   39.5150   62.4700 C.3    92  ILE92       0.0001
    128  N         29.7810   37.3960   65.6690 N.am   93  ASP93      -0.1971
    129  CA        29.7320   37.7320   67.0820 C.3    93  ASP93       0.1709
    130  C         28.5450   38.5650   67.3640 C.2    93  ASP93       0.2293
    131  O         28.1100   39.3530   66.5320 O.2    93  ASP93      -0.2864
    132  CB        30.9830   38.4710   67.5750 C.3    93  ASP93       0.1436
    133  CG        31.0240   39.9020   67.1760 C.2    93  ASP93       0.3671
    134  OD1       31.3940   40.1630   66.0280 O.co2  93  ASP93      -0.2456
    135  OD2       30.7130   40.7870   68.0020 O.co2  93  ASP93      -0.2456
    136  N         30.2580   41.0790   72.7080 N.3   136  ALA136     -0.1231
    137  CA        31.4570   40.5260   72.0490 C.3   136  ALA136      0.1694
    138  C         31.8540   39.1400   72.5820 C.2   136  ALA136      0.2592
    139  O         32.4200   38.3190   71.8440 O.2   136  ALA136     -0.2718
    140  CB        32.6310   41.4760   72.2340 C.3   136  ALA136      0.0304
    141  N         31.5600   38.8750   73.8590 N.am  137  ASN137     -0.1974
    142  CA        31.8860   37.5650   74.4510 C.3   137  ASN137      0.1688
    143  C         31.0220   36.4170   73.9380 C.2   137  ASN137      0.2292
    144  O         31.2770   35.2300   74.2510 O.2   137  ASN137     -0.2864
    145  CB        31.8210   37.6350   75.9590 C.3   137  ASN137      0.1181
    146  CG        32.8370   38.5840   76.5390 C.2   137  ASN137      0.2629
    147  OD1       32.5560   39.3510   77.4600 O.2   137  ASN137     -0.2716
    148  ND2       34.0390   38.4970   76.0450 N.am  137  ASN137     -0.0877
    149  N         28.9050   34.3630   70.6320 N.3   139  LEU139     -0.1245
    150  CA        29.1160   34.0600   69.2380 C.3   139  LEU139      0.1561
    151  C         27.9760   33.2010   68.7170 C.2   139  LEU139      0.2260
    152  O         27.5980   32.2130   69.3430 O.2   139  LEU139     -0.2867
    153  CB        30.4000   33.2680   69.1030 C.3   139  LEU139      0.0270
    154  CG        31.0170   33.0310   67.7490 C.3   139  LEU139      0.0019
    155  CD1       31.4970   34.3260   67.1120 C.3   139  LEU139      0.0001
    156  CD2       32.1890   32.0740   67.9630 C.3   139  LEU139      0.0001
    157  N         32.4600   32.5450   74.3290 N.3   148  ILE148     -0.1231
    158  CA        33.8010   32.5460   73.6750 C.3   148  ILE148      0.1692
    159  C         34.9220   32.5370   74.7260 C.2   148  ILE148      0.2592
    160  O         35.9450   31.9030   74.5120 O.2   148  ILE148     -0.2718
    161  CB        33.9750   33.8530   72.8550 C.3   148  ILE148      0.0266
    162  CG1       33.3520   33.7060   71.4820 C.3   148  ILE148      0.0019
    163  CG2       35.3950   34.2970   72.6760 C.3   148  ILE148      0.0020
    164  CD1       32.8890   35.0580   71.0060 C.3   148  ILE148      0.0001
    165  N         34.7620   33.2810   75.8230 N.am  149  ASP149     -0.1960
    166  CA        35.7650   33.2760   76.8930 C.3   149  ASP149      0.1840
    167  C         35.1860   33.4700   78.2910 C.2   149  ASP149      0.2622
    168  O         33.9820   33.6530   78.4780 O.2   149  ASP149     -0.2715
    169  CB        36.8170   34.3580   76.6540 C.3   149  ASP149      0.1450
    170  CG        36.2510   35.7350   76.7990 C.2   149  ASP149      0.3671
    171  OD1       35.1790   35.8800   76.2490 O.co2 149  ASP149     -0.2456
    172  OD2       36.8240   36.6430   77.4730 O.co2 149  ASP149     -0.2456
    173  N         36.0950   33.4530   79.2580 N.am  150  PHE150     -0.1974
    174  CA        35.7820   33.3490   80.6720 C.3   150  PHE150      0.1639
    175  C         36.2840   34.5200   81.4980 C.2   150  PHE150      0.2290
    176  O         36.2190   34.4770   82.7200 O.2   150  PHE150     -0.2864
    177  CB        36.4480   32.1100   81.2280 C.3   150  PHE150      0.0560
    178  CG        36.2630   30.9130   80.4070 C.ar  150  PHE150     -0.0200
    179  CD1       34.9990   30.5390   79.9730 C.ar  150  PHE150     -0.0042
    180  CD2       37.3630   30.1390   80.0540 C.ar  150  PHE150     -0.0042
    181  CE1       34.8100   29.4090   79.2010 C.ar  150  PHE150     -0.0003
    182  CE2       37.1900   29.0080   79.2860 C.ar  150  PHE150     -0.0003
    183  CZ        35.9130   28.6370   78.8640 C.ar  150  PHE150     -0.0000
    184  N         40.1310   40.0860   73.8320 N.3   156  MET156     -0.1230
    185  CA        40.3830   40.4120   72.4280 C.3   156  MET156      0.1702
    186  C         39.2080   41.2100   71.9420 C.2   156  MET156      0.2592
    187  O         38.1670   41.1760   72.5610 O.2   156  MET156     -0.2718
    188  CB        40.4400   39.1460   71.5830 C.3   156  MET156      0.0401
    189  CG        41.3450   38.0340   72.0760 C.3   156  MET156      0.0596
    190  SD        43.0510   38.2740   71.5600 S.3   156  MET156     -0.1393
    191  CE        43.0790   37.6860   69.8920 C.3   156  MET156      0.0692
    192  N         39.3710   41.9190   70.8330 N.am  157  GLN157     -0.1966
    193  CA        38.2580   42.6000   70.1790 C.3   157  GLN157      0.1718
    194  C         38.1380   42.2360   68.7040 C.2   157  GLN157      0.2458
    195  O         39.1300   41.9060   68.0600 O.2   157  GLN157     -0.2730
    196  CB        38.4300   44.0980   70.2570 C.3   157  GLN157      0.0407
    197  CG        37.8270   44.7460   71.4840 C.3   157  GLN157      0.0908
    198  CD        37.7210   46.2570   71.3280 C.2   157  GLN157      0.2608
    199  OE1       37.6290   46.7820   70.2070 O.2   157  GLN157     -0.2717
    200  NE2       37.7410   46.9680   72.4520 N.am  157  GLN157     -0.0878
    201  N         36.9190   42.3550   68.1500 N.am  158  PRO158     -0.2727
    202  CA        36.7150   41.9770   66.7500 C.3   158  PRO158      0.1402
    203  C         37.4440   42.8820   65.7690 C.2   158  PRO158      0.2269
    204  O         37.4130   44.0840   65.9490 O.2   158  PRO158     -0.2865
    205  CB        35.1980   42.0870   66.5590 C.3   158  PRO158      0.0296
    206  CG        34.5970   42.2160   67.9390 C.3   158  PRO158      0.0237
    207  CD        35.6610   42.6790   68.8550 C.3   158  PRO158      0.0939
@<TRIPOS>BOND
     1     5     6    1
     2     5     2    1
     3     1     2    1
     4     7     6    1
     5     7     8    1
     6     2     3    1
     7     9     8    1
     8    36    35    2
     9    37    35   am
    10    35    34    1
    11    32    31    2
    12     3     4    2
    13    34    33    1
    14    31    30    1
    15    33    30    1
    16    30    29    1
    17   118   117    2
    18   115   114    2
    19    16    14    1
    20   116   117    1
    21   116   113    1
    22   117   119   am
    23   113   114    1
    24   113   112    1
    25   107   106    1
    26   114   120   am
    27   111   110    2
    28    10    11    1
    29   127   125    1
    30   106   103    1
    31    11    14    1
    32    11    12    1
    33    14    15    1
    34   112   110   am
    35   124   125    1
    36   124   126    1
    37   124   121    1
    38   110   109    1
    39   120   121    1
    40   121   122    1
    41   105   104    2
    42    17    15    1
    43    38    39    1
    44    25    24    2
    45   104   103    1
    46   104   108   am
    47   103   102    1
    48    12    13    2
    49    12    18   am
    50   109   108    1
    51    39    40    1
    52    39    42    1
    53    24    23    1
    54   102    95   am
    55    18    19    1
    56   122   128   am
    57   122   123    2
    58    40    41    2
    59   128   129    1
    60   203   204    2
    61   203   202    1
    62    88    87    2
    63    95    94    1
    64    95    96    2
    65   134   133   ar
    66    19    20    1
    67    21    20    2
    68    23    22    1
    69    23    26    1
    70    94    97    1
    71    94    93    1
    72   131   130    2
    73   205   202    1
    74   205   206    1
    75    27    26    1
    76   202   201    1
    77    97    98    1
    78    26    28    1
    79    87    93   am
    80    87    86    1
    81   129   130    1
    82   129   132    1
    83   155   154    1
    84   133   132    1
    85   133   135   ar
    86   101    99   ar
    87    85    86    1
    88    98    99    1
    89    43    44    1
    90   154   156    1
    91   154   153    1
    92   206   207    1
    93   195   194    2
    94    86    89    1
    95   201   194   am
    96   201   207    1
    97    80    79    2
    98    99   100   ar
    99    44    45    1
   100    44    47    1
   101    45    46    2
   102   194   193    1
   103   151   150    1
   104   151   152    2
   105    79    78    1
   106   153   150    1
   107    89    90    1
   108   150   149    1
   109    76    74    1
   110    77    78    1
   111   191   190    1
   112    47    48    1
   113    78    81    1
   114    92    91    1
   115   193   196    1
   116   193   192    1
   117   199   198    2
   118   196   197    1
   119    90    91    1
   120    74    73    1
   121    48    49    1
   122   192   186   am
   123   164   162    1
   124    81    82    1
   125   198   197    1
   126   198   200   am
   127   162   161    1
   128   190   189    1
   129   188   189    1
   130   188   185    1
   131    49    50    1
   132   139   138    2
   133   186   185    1
   134   186   187    2
   135   137   140    1
   136   137   138    1
   137   137   136    1
   138    73    70    1
   139    73    75    1
   140    70    71    1
   141    70    69    1
   142    71    72    2
   143   185   184    1
   144    82    83    1
   145   138   141   am
   146   163   161    1
   147   161   158    1
   148    50    51    1
   149   158   157    1
   150   158   159    1
   151    83    84    1
   152   141   142    1
   153   143   144    2
   154   143   142    1
   155   142   145    1
   156   160   159    2
   157    68    66    1
   158   159   165   am
   159    66    67    1
   160    66    65    1
   161   165   166    1
   162   145   146    1
   163   148   146   am
   164   171   170   ar
   165    59    58   ar
   166   146   147    2
   167   169   170    1
   168   169   166    1
   169   170   172   ar
   170   166   167    1
   171    65    62    1
   172    58    60   ar
   173    58    57    1
   174    64    63    2
   175    63    62    1
   176    57    56    1
   177    62    61    1
   178   167   168    2
   179   167   173   am
   180   183   181   ar
   181   183   182   ar
   182    56    53    1
   183   181   179   ar
   184   173   174    1
   185   182   180   ar
   186    55    54    2
   187    54    53    1
   188   179   178   ar
   189   180   178   ar
   190    53    52    1
   191   178   177    1
   192   174   177    1
   193   174   175    1
   194   175   176    2
