@<TRIPOS>MOLECULE
tmp/4zeiA00.pdb
 168 165 0 0 0
SMALL
GASTEIGER

@<TRIPOS>ATOM
      1  N        -11.1530  -22.7130   16.1840 N.3    21  ILE21      -0.1231
      2  CA       -12.1560  -23.6910   15.7220 C.3    21  ILE21       0.1692
      3  C        -12.9980  -24.1670   16.9270 C.2    21  ILE21       0.2593
      4  O        -12.4810  -24.8020   17.8500 O.2    21  ILE21      -0.2718
      5  CB       -11.5650  -24.8310   14.8400 C.3    21  ILE21       0.0266
      6  CG1      -11.2210  -24.2880   13.4440 C.3    21  ILE21       0.0019
      7  CG2      -12.5230  -26.0320   14.7390 C.3    21  ILE21       0.0020
      8  CD1      -10.1370  -24.9340   12.7780 C.3    21  ILE21       0.0001
      9  N        -14.2620  -23.7190   16.9440 N.am   22  SER22      -0.1938
     10  CA       -15.2850  -23.9330   17.9640 C.3    22  SER22       0.2055
     11  C        -16.6090  -23.3620   17.4480 C.2    22  SER22       0.2643
     12  O        -16.6690  -22.8950   16.3100 O.2    22  SER22      -0.2714
     13  CB       -14.8920  -23.2440   19.2730 C.3    22  SER22       0.2130
     14  OG       -14.6190  -21.8580   19.1250 O.3    22  SER22      -0.2179
     15  N        -17.6670  -23.3850   18.2790 N.am   23  ASN23      -0.1971
     16  CA       -18.9760  -22.8180   17.9470 C.3    23  ASN23       0.1688
     17  C        -18.9230  -21.2920   18.0900 C.2    23  ASN23       0.2292
     18  O        -19.8240  -20.5840   17.5970 O.2    23  ASN23      -0.2864
     19  CB       -20.0370  -23.3300   18.9470 C.3    23  ASN23       0.1181
     20  CG       -20.5040  -24.7610   18.7990 C.2    23  ASN23       0.2629
     21  OD1      -19.9950  -25.5620   17.9990 O.2    23  ASN23      -0.2716
     22  ND2      -21.4870  -25.1160   19.6090 N.am   23  ASN23      -0.0877
     23  N         -4.2190  -29.1450   17.4810 N.3   110  LEU110     -0.1245
     24  CA        -5.0130  -29.9610   16.5560 C.3   110  LEU110      0.1561
     25  C         -4.6800  -29.7610   15.0560 C.2   110  LEU110      0.2260
     26  O         -5.3920  -30.2960   14.2050 O.2   110  LEU110     -0.2867
     27  CB        -6.5250  -29.8370   16.8570 C.3   110  LEU110      0.0270
     28  CG        -6.9670  -30.4140   18.2070 C.3   110  LEU110      0.0019
     29  CD1       -8.2050  -29.7470   18.7070 C.3   110  LEU110      0.0001
     30  CD2       -7.1320  -31.9240   18.1580 C.3   110  LEU110      0.0001
     31  N         -6.1590  -32.3590   12.2750 N.3   114  TYR114     -0.1241
     32  CA        -7.1890  -31.7490   11.4260 C.3   114  TYR114      0.1605
     33  C         -6.6980  -31.5140    9.9930 C.2   114  TYR114      0.2264
     34  O         -7.5020  -31.1900    9.1240 O.2   114  TYR114     -0.2867
     35  CB        -7.6870  -30.4270   12.0330 C.3   114  TYR114      0.0534
     36  CG        -8.4970  -30.4910   13.3160 C.ar  114  TYR114     -0.0201
     37  CD1       -8.7920  -31.7100   13.9250 C.ar  114  TYR114     -0.0009
     38  CD2       -8.9790  -29.3300   13.9150 C.ar  114  TYR114     -0.0009
     39  CE1       -9.5430  -31.7690   15.0970 C.ar  114  TYR114      0.0417
     40  CE2       -9.7570  -29.3790   15.0690 C.ar  114  TYR114      0.0417
     41  CZ       -10.0380  -30.6010   15.6560 C.ar  114  TYR114      0.1957
     42  OH       -10.8060  -30.6460   16.7950 O.3   114  TYR114     -0.2866
     43  N        -12.5140  -23.5080    7.6430 N.3   147  TRP147     -0.1241
     44  CA       -12.0430  -22.8090    8.8410 C.3   147  TRP147      0.1605
     45  C        -10.5890  -23.1900    9.2530 C.2   147  TRP147      0.2264
     46  O        -10.0310  -22.5970   10.1780 O.2   147  TRP147     -0.2867
     47  CB       -13.0240  -23.0260   10.0180 C.3   147  TRP147      0.0550
     48  CG       -13.3420  -24.4550   10.3990 C.ar  147  TRP147      0.0003
     49  CD1      -12.7460  -25.5970    9.9380 C.ar  147  TRP147      0.0946
     50  CD2      -14.2860  -24.8730   11.3930 C.ar  147  TRP147      0.0152
     51  NE1      -13.2740  -26.6970   10.5690 N.ar  147  TRP147     -0.2442
     52  CE2      -14.2370  -26.2840   11.4520 C.ar  147  TRP147      0.0810
     53  CE3      -15.1810  -24.1900   12.2330 C.ar  147  TRP147      0.0012
     54  CZ2      -15.0610  -27.0250   12.3060 C.ar  147  TRP147      0.0191
     55  CZ3      -16.0120  -24.9250   13.0600 C.ar  147  TRP147      0.0001
     56  CH2      -15.9500  -26.3260   13.0900 C.ar  147  TRP147      0.0015
     57  N        -23.6120  -29.0120   11.7790 N.3   253  ASN253     -0.1240
     58  CA       -22.9710  -29.3660   13.0470 C.3   253  ASN253      0.1653
     59  C        -23.8980  -30.3360   13.8070 C.2   253  ASN253      0.2266
     60  O        -25.1140  -30.3250   13.6060 O.2   253  ASN253     -0.2867
     61  CB       -22.6660  -28.0930   13.8770 C.3   253  ASN253      0.1155
     62  CG       -22.2810  -28.2930   15.3300 C.2   253  ASN253      0.2627
     63  OD1      -23.1180  -28.5610   16.1950 O.2   253  ASN253     -0.2716
     64  ND2      -21.0240  -28.0820   15.6550 N.am  253  ASN253     -0.0877
     65  N        -23.4830  -23.2810   27.0380 N.3   344  TYR344     -0.1227
     66  CA       -22.5600  -23.0100   25.9220 C.3   344  TYR344      0.1736
     67  C        -23.1760  -23.6060   24.6530 C.2   344  TYR344      0.2595
     68  O        -23.0960  -23.0060   23.5780 O.2   344  TYR344     -0.2718
     69  CB       -21.1710  -23.6120   26.2070 C.3   344  TYR344      0.0548
     70  CG       -20.1720  -23.4900   25.0730 C.ar  344  TYR344     -0.0200
     71  CD1      -19.3430  -22.3780   24.9660 C.ar  344  TYR344     -0.0009
     72  CD2      -20.0100  -24.5160   24.1460 C.ar  344  TYR344     -0.0009
     73  CE1      -18.3980  -22.2750   23.9460 C.ar  344  TYR344      0.0417
     74  CE2      -19.0860  -24.4130   23.1070 C.ar  344  TYR344      0.0417
     75  CZ       -18.2790  -23.2900   23.0140 C.ar  344  TYR344      0.1957
     76  OH       -17.3430  -23.1880   22.0160 O.3   344  TYR344     -0.2866
     77  N        -23.7870  -24.8050   24.7990 N.am  345  TYR345     -0.1976
     78  CA       -24.5570  -25.4700   23.7550 C.3   345  TYR345      0.1639
     79  C        -26.0000  -25.1850   24.1080 C.2   345  TYR345      0.2290
     80  O        -26.3660  -25.2690   25.2810 O.2   345  TYR345     -0.2864
     81  CB       -24.3090  -26.9950   23.7220 C.3   345  TYR345      0.0560
     82  CG       -22.8710  -27.3790   23.4460 C.ar  345  TYR345     -0.0198
     83  CD1      -22.2810  -27.1170   22.2110 C.ar  345  TYR345     -0.0009
     84  CD2      -22.0980  -28.0050   24.4170 C.ar  345  TYR345     -0.0009
     85  CE1      -20.9450  -27.4340   21.9670 C.ar  345  TYR345      0.0417
     86  CE2      -20.7670  -28.3430   24.1760 C.ar  345  TYR345      0.0417
     87  CZ       -20.1960  -28.0540   22.9510 C.ar  345  TYR345      0.1957
     88  OH       -18.8900  -28.3920   22.7200 O.3   345  TYR345     -0.2866
     89  N        -20.1820  -32.2150   23.8510 N.3   387  TRP387     -0.1227
     90  CA       -19.3250  -31.6880   22.7860 C.3   387  TRP387      0.1737
     91  C        -20.1920  -31.4730   21.5400 C.2   387  TRP387      0.2596
     92  O        -21.4040  -31.6650   21.5970 O.2   387  TRP387     -0.2718
     93  CB       -18.1680  -32.6880   22.5270 C.3   387  TRP387      0.0564
     94  CG       -17.0290  -32.2200   21.6580 C.ar  387  TRP387      0.0003
     95  CD1      -16.6120  -30.9340   21.4480 C.ar  387  TRP387      0.0946
     96  CD2      -16.1280  -33.0590   20.9260 C.ar  387  TRP387      0.0152
     97  NE1      -15.5320  -30.9220   20.5950 N.ar  387  TRP387     -0.2442
     98  CE2      -15.2060  -32.2140   20.2690 C.ar  387  TRP387      0.0810
     99  CE3      -16.0070  -34.4510   20.7630 C.ar  387  TRP387      0.0012
    100  CZ2      -14.1730  -32.7150   19.4750 C.ar  387  TRP387      0.0191
    101  CZ3      -14.9990  -34.9460   19.9560 C.ar  387  TRP387      0.0001
    102  CH2      -14.0920  -34.0840   19.3260 C.ar  387  TRP387      0.0015
    103  N        -19.5900  -31.0150   20.4480 N.am  388  SER388     -0.1938
    104  CA       -20.2150  -30.8050   19.1410 C.3   388  SER388      0.2055
    105  C        -19.1310  -30.9500   18.0800 C.2   388  SER388      0.2643
    106  O        -17.9460  -30.8400   18.3990 O.2   388  SER388     -0.2714
    107  CB       -20.9080  -29.4420   19.0490 C.3   388  SER388      0.2130
    108  OG       -20.0850  -28.3820   18.5840 O.3   388  SER388     -0.2179
    109  N        -19.5370  -31.2440   16.8370 N.am  389  ASN389     -0.1957
    110  CA       -18.6320  -31.3850   15.7090 C.3   389  ASN389      0.1819
    111  C        -19.2430  -30.7160   14.4950 C.2   389  ASN389      0.2621
    112  O        -20.3650  -31.0410   14.1030 O.2   389  ASN389     -0.2715
    113  CB       -18.3320  -32.8650   15.4110 C.3   389  ASN389      0.1195
    114  CG       -17.1170  -33.4690   16.0820 C.2   389  ASN389      0.2630
    115  OD1      -16.5100  -32.9080   16.9860 O.2   389  ASN389     -0.2716
    116  ND2      -16.7440  -34.6560   15.6550 N.am  389  ASN389     -0.0877
    117  N        -18.5050  -29.7660   13.9310 N.am  390  GLY390     -0.1954
    118  CA       -18.9040  -29.0640   12.7230 C.3   390  GLY390      0.1869
    119  C        -18.4480  -29.8250   11.5010 C.2   390  GLY390      0.2309
    120  O        -17.2770  -30.1990   11.4080 O.2   390  GLY390     -0.2863
    121  N        -17.2510  -29.5430    8.4370 N.3   392  TRP392     -0.1241
    122  CA       -16.4600  -28.5590    7.6940 C.3   392  TRP392      0.1605
    123  C        -15.9800  -28.8620    6.2750 C.2   392  TRP392      0.2264
    124  O        -15.3060  -28.0200    5.6670 O.2   392  TRP392     -0.2867
    125  CB       -15.3100  -28.0630    8.5590 C.3   392  TRP392      0.0550
    126  CG       -14.3730  -29.1290    9.0590 C.ar  392  TRP392      0.0003
    127  CD1      -14.5200  -29.8850   10.1840 C.ar  392  TRP392      0.0946
    128  CD2      -13.0600  -29.4080    8.5580 C.ar  392  TRP392      0.0152
    129  NE1      -13.4000  -30.6500   10.3930 N.ar  392  TRP392     -0.2442
    130  CE2      -12.4880  -30.3850    9.4030 C.ar  392  TRP392      0.0810
    131  CE3      -12.3260  -28.9590    7.4490 C.ar  392  TRP392      0.0012
    132  CZ2      -11.1990  -30.8980    9.1920 C.ar  392  TRP392      0.0191
    133  CZ3      -11.0420  -29.4430    7.2580 C.ar  392  TRP392      0.0001
    134  CH2      -10.4970  -30.4150    8.1140 C.ar  392  TRP392      0.0015
    135  N        -16.2790  -35.0890   10.2370 N.3   399  THR399     -0.1218
    136  CA       -15.2170  -35.0840   11.2600 C.3   399  THR399      0.1862
    137  C        -14.7820  -36.4780   11.7240 C.2   399  THR399      0.2287
    138  O        -13.9180  -36.5700   12.5980 O.2   399  THR399     -0.2866
    139  CB       -15.6790  -34.2620   12.4710 C.3   399  THR399      0.1770
    140  OG1      -17.0250  -34.6220   12.8030 O.3   399  THR399     -0.2211
    141  CG2      -15.5360  -32.7550   12.2660 C.3   399  THR399      0.0375
    142  N        -11.3150  -36.2670   13.9250 N.3   403  GLU403     -0.1245
    143  CA       -11.7020  -36.4080   15.3290 C.3   403  GLU403      0.1567
    144  C        -11.6100  -37.8220   15.8810 C.2   403  GLU403      0.2260
    145  O        -11.0390  -38.0070   16.9560 O.2   403  GLU403     -0.2867
    146  CB       -13.0980  -35.8160   15.6000 C.3   403  GLU403      0.0388
    147  CG       -13.2550  -34.3540   15.2180 C.3   403  GLU403      0.1160
    148  CD       -12.6040  -33.2920   16.0810 C.2   403  GLU403      0.3649
    149  OE1      -11.8330  -33.6380   17.0050 O.co2 403  GLU403     -0.2457
    150  OE2      -12.8490  -32.0970   15.8030 O.co2 403  GLU403     -0.2457
    151  N         -7.7780  -36.8420   18.5050 N.3   409  GLN409     -0.1245
    152  CA        -7.8550  -36.6860   19.9560 C.3   409  GLN409      0.1566
    153  C         -8.7430  -37.7100   20.6790 C.2   409  GLN409      0.2260
    154  O         -8.4590  -38.0170   21.8300 O.2   409  GLN409     -0.2867
    155  CB        -8.2300  -35.2390   20.3290 C.3   409  GLN409      0.0367
    156  CG        -9.6360  -34.7870   19.8810 C.3   409  GLN409      0.0905
    157  CD        -9.9820  -33.3890   20.3420 C.2   409  GLN409      0.2608
    158  OE1      -10.4360  -32.5490   19.5560 O.2   409  GLN409     -0.2717
    159  NE2       -9.8020  -33.1090   21.6320 N.am  409  GLN409     -0.0878
    160  N        -21.6110  -22.8890   11.9160 N.3   479  GLU479     -0.1245
    161  CA       -21.2970  -22.2380   13.2100 C.3   479  GLU479      0.1567
    162  C        -20.5230  -20.9200   13.0180 C.2   479  GLU479      0.2260
    163  O        -19.4450  -20.7390   13.6080 O.2   479  GLU479     -0.2867
    164  CB       -20.3880  -23.1200   14.0700 C.3   479  GLU479      0.0388
    165  CG       -20.8720  -24.4920   14.4180 C.3   479  GLU479      0.1160
    166  CD       -19.7040  -25.4400   14.2920 C.2   479  GLU479      0.3649
    167  OE1      -19.7220  -26.2310   13.3260 O.co2 479  GLU479     -0.2457
    168  OE2      -18.7410  -25.3410   15.0900 O.co2 479  GLU479     -0.2457
@<TRIPOS>BOND
     1   124   123    2
     2   123   122    1
     3   133   131   ar
     4   133   134   ar
     5   131   128   ar
     6    43    44    1
     7   122   121    1
     8   122   125    1
     9   134   132   ar
    10   128   126   ar
    11   128   130   ar
    12   125   126    1
    13    44    45    1
    14    44    47    1
    15   126   127   ar
    16    34    33    2
    17   132   130   ar
    18    45    46    2
    19   130   129   ar
    20    49    48   ar
    21    49    51   ar
    22    33    32    1
    23    47    48    1
    24   127   129   ar
    25   135   136    1
    26    48    50   ar
    27    51    52   ar
    28   136   137    1
    29   136   139    1
    30    50    52   ar
    31    50    53   ar
    32   120   119    2
    33    32    35    1
    34    32    31    1
    35    52    54   ar
    36   119   118    1
    37   137   138    2
    38    57    58    1
    39   160   161    1
    40    35    36    1
    41    53    55   ar
    42   141   139    1
    43    54    56   ar
    44   139   140    1
    45   118   117    1
    46     8     6    1
    47   162   161    1
    48   162   163    2
    49    58    59    1
    50    58    61    1
    51    55    56   ar
    52   161   164    1
    53    36    38   ar
    54    36    37   ar
    55   167   166   ar
    56     6     5    1
    57    60    59    2
    58    61    62    1
    59    38    40   ar
    60    37    39   ar
    61   142   143    1
    62   117   111   am
    63   164   165    1
    64   112   111    2
    65    26    25    2
    66   166   165    1
    67   166   168   ar
    68   111   110    1
    69     7     5    1
    70     5     2    1
    71    25    24    1
    72    40    41   ar
    73    39    41   ar
    74   147   146    1
    75   147   148    1
    76   143   146    1
    77   143   144    1
    78    62    64   am
    79    62    63    2
    80   113   110    1
    81   113   114    1
    82   116   114   am
    83    41    42    1
    84   110   109    1
    85     2     1    1
    86     2     3    1
    87   150   148   ar
    88   144   145    2
    89   148   149   ar
    90   114   115    2
    91    12    11    2
    92    24    27    1
    93    24    23    1
    94   109   105   am
    95    27    28    1
    96     3     9   am
    97     3     4    2
    98     9    10    1
    99    11    10    1
   100    11    15   am
   101    18    17    2
   102    16    17    1
   103    16    15    1
   104    16    19    1
   105    10    13    1
   106    21    20    2
   107   105   106    2
   108   105   104    1
   109    30    28    1
   110    28    29    1
   111   151   152    1
   112   108   107    1
   113    20    19    1
   114    20    22   am
   115   107   104    1
   116    14    13    1
   117   104   103    1
   118   102   100   ar
   119   102   101   ar
   120   100    98   ar
   121   158   157    2
   122   156   155    1
   123   156   157    1
   124   101    99   ar
   125   152   155    1
   126   152   153    1
   127    98    97   ar
   128    98    96   ar
   129   157   159   am
   130   103    91   am
   131    97    95   ar
   132   153   154    2
   133    99    96   ar
   134    96    94   ar
   135    95    94   ar
   136    91    92    2
   137    91    90    1
   138    94    93    1
   139    85    83   ar
   140    85    87   ar
   141    76    75    1
   142    83    82   ar
   143    93    90    1
   144    88    87    1
   145    90    89    1
   146    87    86   ar
   147    75    74   ar
   148    75    73   ar
   149    74    72   ar
   150    82    81    1
   151    82    84   ar
   152    68    67    2
   153    81    78    1
   154    78    79    1
   155    78    77    1
   156    73    71   ar
   157    79    80    2
   158    72    70   ar
   159    86    84   ar
   160    67    77   am
   161    67    66    1
   162    71    70   ar
   163    70    69    1
   164    66    69    1
   165    66    65    1
