@<TRIPOS>MOLECULE
tmp/4zekA00.pdb
 188 184 0 0 0
SMALL
GASTEIGER

@<TRIPOS>ATOM
      1  N        -10.9230  -22.2340   16.2630 N.3    21  ILE21      -0.1231
      2  CA       -11.9390  -23.2080   15.8300 C.3    21  ILE21       0.1692
      3  C        -12.7590  -23.7230   17.0260 C.2    21  ILE21       0.2593
      4  O        -12.2780  -24.5110   17.8530 O.2    21  ILE21      -0.2718
      5  CB       -11.4040  -24.3370   14.9030 C.3    21  ILE21       0.0266
      6  CG1      -10.9860  -23.7640   13.5470 C.3    21  ILE21       0.0019
      7  CG2      -12.4580  -25.4640   14.7370 C.3    21  ILE21       0.0020
      8  CD1      -10.1190  -24.6930   12.7120 C.3    21  ILE21       0.0001
      9  N        -13.9980  -23.2330   17.1020 N.am   22  SER22      -0.1938
     10  CA       -14.9640  -23.5080   18.1590 C.3    22  SER22       0.2055
     11  C        -16.3220  -23.0020   17.6750 C.2    22  SER22       0.2643
     12  O        -16.4490  -22.6360   16.5100 O.2    22  SER22      -0.2714
     13  CB       -14.5550  -22.7820   19.4440 C.3    22  SER22       0.2130
     14  OG       -14.4690  -21.3830   19.2230 O.3    22  SER22      -0.2179
     15  N        -17.3270  -22.9530   18.5590 N.am   23  ASN23      -0.1971
     16  CA       -18.6410  -22.4240   18.1930 C.3    23  ASN23       0.1688
     17  C        -18.6060  -20.8940   18.2610 C.2    23  ASN23       0.2292
     18  O        -19.4110  -20.2360   17.6110 O.2    23  ASN23      -0.2864
     19  CB       -19.7130  -22.9400   19.1760 C.3    23  ASN23       0.1181
     20  CG       -20.2050  -24.3560   18.9540 C.2    23  ASN23       0.2629
     21  OD1      -19.7480  -25.0920   18.0770 O.2    23  ASN23      -0.2716
     22  ND2      -21.1530  -24.7720   19.7610 N.am   23  ASN23      -0.0877
     23  N         -3.8840  -28.6070   17.6550 N.3   110  LEU110     -0.1245
     24  CA        -4.6930  -29.4440   16.7780 C.3   110  LEU110      0.1561
     25  C         -4.4010  -29.2530   15.2720 C.2   110  LEU110      0.2260
     26  O         -5.1220  -29.7990   14.4400 O.2   110  LEU110     -0.2867
     27  CB        -6.1900  -29.2400   17.1150 C.3   110  LEU110      0.0270
     28  CG        -6.6340  -29.7630   18.4930 C.3   110  LEU110      0.0019
     29  CD1       -8.0000  -29.2080   18.8840 C.3   110  LEU110      0.0001
     30  CD2       -6.6180  -31.3130   18.5540 C.3   110  LEU110      0.0001
     31  N         -5.9630  -31.8920   12.4490 N.3   114  TYR114     -0.1241
     32  CA        -7.0080  -31.3220   11.5950 C.3   114  TYR114      0.1605
     33  C         -6.5250  -31.1020   10.1420 C.2   114  TYR114      0.2264
     34  O         -7.3420  -30.8610    9.2630 O.2   114  TYR114     -0.2867
     35  CB        -7.5300  -29.9890   12.1750 C.3   114  TYR114      0.0534
     36  CG        -8.3650  -30.0360   13.4450 C.ar  114  TYR114     -0.0201
     37  CD1       -8.6640  -31.2450   14.0710 C.ar  114  TYR114     -0.0009
     38  CD2       -8.8300  -28.8660   14.0360 C.ar  114  TYR114     -0.0009
     39  CE1       -9.4060  -31.2850   15.2510 C.ar  114  TYR114      0.0417
     40  CE2       -9.5990  -28.8950   15.2000 C.ar  114  TYR114      0.0417
     41  CZ        -9.8810  -30.1060   15.8090 C.ar  114  TYR114      0.1957
     42  OH       -10.6330  -30.1160   16.9600 O.3   114  TYR114     -0.2866
     43  N        -12.5040  -23.2850    7.7190 N.3   147  TRP147     -0.1241
     44  CA       -12.0040  -22.5330    8.8710 C.3   147  TRP147      0.1605
     45  C        -10.5290  -22.8550    9.2420 C.2   147  TRP147      0.2264
     46  O         -9.9590  -22.1890   10.1030 O.2   147  TRP147     -0.2867
     47  CB       -12.9350  -22.6890   10.0840 C.3   147  TRP147      0.0550
     48  CG       -13.2590  -24.0980   10.5180 C.ar  147  TRP147      0.0003
     49  CD1      -12.7080  -25.2620   10.0600 C.ar  147  TRP147      0.0946
     50  CD2      -14.2000  -24.4710   11.5270 C.ar  147  TRP147      0.0152
     51  NE1      -13.2340  -26.3320   10.7420 N.ar  147  TRP147     -0.2442
     52  CE2      -14.1890  -25.8830   11.6110 C.ar  147  TRP147      0.0810
     53  CE3      -15.0640  -23.7470   12.3720 C.ar  147  TRP147      0.0012
     54  CZ2      -15.0160  -26.5890   12.4970 C.ar  147  TRP147      0.0191
     55  CZ3      -15.8530  -24.4470   13.2790 C.ar  147  TRP147      0.0001
     56  CH2      -15.8490  -25.8500   13.3150 C.ar  147  TRP147      0.0015
     57  N        -23.3880  -28.7300   12.0660 N.3   253  ASN253     -0.1240
     58  CA       -22.7690  -29.0470   13.3460 C.3   253  ASN253      0.1653
     59  C        -23.6800  -30.0170   14.0810 C.2   253  ASN253      0.2266
     60  O        -24.9040  -29.9070   13.9750 O.2   253  ASN253     -0.2867
     61  CB       -22.6400  -27.7510   14.1790 C.3   253  ASN253      0.1155
     62  CG       -22.1690  -27.9220   15.6110 C.2   253  ASN253      0.2627
     63  OD1      -22.9380  -28.2550   16.5260 O.2   253  ASN253     -0.2716
     64  ND2      -20.9030  -27.6590   15.8480 N.am  253  ASN253     -0.0877
     65  N        -19.9730  -26.3830   30.4040 N.3   341  MET341     -0.1245
     66  CA       -19.6110  -24.9750   30.6020 C.3   341  MET341      0.1570
     67  C        -20.8970  -24.1580   30.5840 C.2   341  MET341      0.2261
     68  O        -21.1120  -23.3450   29.6760 O.2   341  MET341     -0.2867
     69  CB       -18.6490  -24.5270   29.4880 C.3   341  MET341      0.0387
     70  CG       -17.8220  -23.3140   29.8290 C.3   341  MET341      0.0595
     71  SD       -17.2130  -22.4930   28.3370 S.3   341  MET341     -0.1393
     72  CE       -16.1350  -23.7600   27.6790 C.3   341  MET341      0.0692
     73  N        -23.0090  -22.9170   27.2110 N.3   344  TYR344     -0.1227
     74  CA       -22.1260  -22.5980   26.0830 C.3   344  TYR344      0.1736
     75  C        -22.8480  -23.1310   24.8300 C.2   344  TYR344      0.2595
     76  O        -22.9810  -22.4200   23.8310 O.2   344  TYR344     -0.2718
     77  CB       -20.7420  -23.2690   26.2780 C.3   344  TYR344      0.0548
     78  CG       -19.7830  -23.1080   25.1150 C.ar  344  TYR344     -0.0200
     79  CD1      -18.9400  -22.0000   25.0260 C.ar  344  TYR344     -0.0009
     80  CD2      -19.7050  -24.0710   24.1090 C.ar  344  TYR344     -0.0009
     81  CE1      -18.0400  -21.8570   23.9680 C.ar  344  TYR344      0.0417
     82  CE2      -18.8270  -23.9250   23.0300 C.ar  344  TYR344      0.0417
     83  CZ       -17.9950  -22.8160   22.9650 C.ar  344  TYR344      0.1957
     84  OH       -17.1110  -22.6800   21.9190 O.3   344  TYR344     -0.2866
     85  N        -23.3810  -24.3580   24.9380 N.am  345  TYR345     -0.1976
     86  CA       -24.2000  -24.9930   23.9260 C.3   345  TYR345      0.1639
     87  C        -25.6360  -24.6930   24.2800 C.2   345  TYR345      0.2290
     88  O        -25.9970  -24.7430   25.4640 O.2   345  TYR345     -0.2864
     89  CB       -23.9990  -26.5180   23.9160 C.3   345  TYR345      0.0560
     90  CG       -22.5800  -26.9250   23.6170 C.ar  345  TYR345     -0.0198
     91  CD1      -22.0140  -26.6880   22.3690 C.ar  345  TYR345     -0.0009
     92  CD2      -21.8070  -27.5710   24.5740 C.ar  345  TYR345     -0.0009
     93  CE1      -20.6850  -27.0100   22.1070 C.ar  345  TYR345      0.0417
     94  CE2      -20.4930  -27.9470   24.3050 C.ar  345  TYR345      0.0417
     95  CZ       -19.9340  -27.6530   23.0750 C.ar  345  TYR345      0.1957
     96  OH       -18.6370  -28.0010   22.8230 O.3   345  TYR345     -0.2866
     97  N        -18.4460  -25.8110   34.9100 N.3   371  TYR371     -0.1241
     98  CA       -17.1290  -25.1770   34.8980 C.3   371  TYR371      0.1605
     99  C        -17.1670  -23.8270   34.1790 C.2   371  TYR371      0.2264
    100  O        -17.8760  -23.6750   33.1850 O.2   371  TYR371     -0.2867
    101  CB       -16.0130  -26.1130   34.3640 C.3   371  TYR371      0.0534
    102  CG       -16.1140  -26.4680   32.8950 C.ar  371  TYR371     -0.0201
    103  CD1      -15.4440  -25.7200   31.9290 C.ar  371  TYR371     -0.0009
    104  CD2      -16.8670  -27.5600   32.4700 C.ar  371  TYR371     -0.0009
    105  CE1      -15.5060  -26.0590   30.5780 C.ar  371  TYR371      0.0417
    106  CE2      -16.9570  -27.8950   31.1180 C.ar  371  TYR371      0.0417
    107  CZ       -16.2770  -27.1370   30.1770 C.ar  371  TYR371      0.1957
    108  OH       -16.3620  -27.4470   28.8470 O.3   371  TYR371     -0.2866
    109  N        -19.9320  -31.7330   24.0190 N.3   387  TRP387     -0.1227
    110  CA       -19.0840  -31.2390   22.9370 C.3   387  TRP387      0.1737
    111  C        -19.9550  -31.0700   21.6920 C.2   387  TRP387      0.2596
    112  O        -21.1500  -31.3500   21.7240 O.2   387  TRP387     -0.2718
    113  CB       -17.9080  -32.2370   22.6930 C.3   387  TRP387      0.0564
    114  CG       -16.7560  -31.7430   21.8530 C.ar  387  TRP387      0.0003
    115  CD1      -16.3640  -30.4450   21.6570 C.ar  387  TRP387      0.0946
    116  CD2      -15.8190  -32.5590   21.1330 C.ar  387  TRP387      0.0152
    117  NE1      -15.2600  -30.4050   20.8390 N.ar  387  TRP387     -0.2442
    118  CE2      -14.8920  -31.6880   20.5170 C.ar  387  TRP387      0.0810
    119  CE3      -15.6680  -33.9480   20.9520 C.ar  387  TRP387      0.0012
    120  CZ2      -13.8380  -32.1610   19.7230 C.ar  387  TRP387      0.0191
    121  CZ3      -14.6350  -34.4120   20.1530 C.ar  387  TRP387      0.0001
    122  CH2      -13.7390  -33.5260   19.5460 C.ar  387  TRP387      0.0015
    123  N        -19.3710  -30.5390   20.6300 N.am  388  SER388     -0.1938
    124  CA       -20.0070  -30.3410   19.3420 C.3   388  SER388      0.2055
    125  C        -18.9450  -30.4930   18.2680 C.2   388  SER388      0.2643
    126  O        -17.7560  -30.3050   18.5470 O.2   388  SER388     -0.2714
    127  CB       -20.6850  -28.9710   19.2600 C.3   388  SER388      0.2130
    128  OG       -19.8610  -27.9390   18.7380 O.3   388  SER388     -0.2179
    129  N        -19.3610  -30.8760   17.0590 N.am  389  ASN389     -0.1957
    130  CA       -18.4300  -30.9890   15.9350 C.3   389  ASN389      0.1819
    131  C        -19.0290  -30.3160   14.7420 C.2   389  ASN389      0.2621
    132  O        -20.1240  -30.6760   14.3040 O.2   389  ASN389     -0.2715
    133  CB       -18.0920  -32.4430   15.5990 C.3   389  ASN389      0.1195
    134  CG       -16.9050  -33.0490   16.3080 C.2   389  ASN389      0.2630
    135  OD1      -16.3510  -32.4990   17.2580 O.2   389  ASN389     -0.2716
    136  ND2      -16.5560  -34.2610   15.9210 N.am  389  ASN389     -0.0877
    137  N        -18.3300  -29.3070   14.2580 N.am  390  GLY390     -0.1954
    138  CA       -18.7120  -28.5950   13.0460 C.3   390  GLY390      0.1869
    139  C        -18.2380  -29.4050   11.8650 C.2   390  GLY390      0.2309
    140  O        -17.0750  -29.8090   11.8440 O.2   390  GLY390     -0.2863
    141  N        -17.0380  -29.3880    8.6380 N.3   392  TRP392     -0.1241
    142  CA       -16.3610  -28.3610    7.8590 C.3   392  TRP392      0.1605
    143  C        -15.8730  -28.6340    6.4230 C.2   392  TRP392      0.2264
    144  O        -15.1800  -27.7950    5.8430 O.2   392  TRP392     -0.2867
    145  CB       -15.2640  -27.7550    8.7250 C.3   392  TRP392      0.0550
    146  CG       -14.2820  -28.7520    9.2820 C.ar  392  TRP392      0.0003
    147  CD1      -14.3860  -29.4320   10.4610 C.ar  392  TRP392      0.0946
    148  CD2      -12.9750  -29.0350    8.7720 C.ar  392  TRP392      0.0152
    149  NE1      -13.2540  -30.1730   10.6840 N.ar  392  TRP392     -0.2442
    150  CE2      -12.3620  -29.9380    9.6700 C.ar  392  TRP392      0.0810
    151  CE3      -12.2860  -28.6700    7.6040 C.ar  392  TRP392      0.0012
    152  CZ2      -11.0710  -30.4440    9.4600 C.ar  392  TRP392      0.0191
    153  CZ3      -11.0060  -29.1610    7.4020 C.ar  392  TRP392      0.0001
    154  CH2      -10.4060  -30.0290    8.3280 C.ar  392  TRP392      0.0015
    155  N        -16.1830  -34.6380   10.4100 N.3   399  THR399     -0.1218
    156  CA       -15.1080  -34.6810   11.4220 C.3   399  THR399      0.1862
    157  C        -14.7100  -36.0890   11.8890 C.2   399  THR399      0.2287
    158  O        -13.8980  -36.1940   12.8140 O.2   399  THR399     -0.2866
    159  CB       -15.4540  -33.8170   12.6560 C.3   399  THR399      0.1770
    160  OG1      -16.7270  -34.2060   13.1710 O.3   399  THR399     -0.2211
    161  CG2      -15.4080  -32.3280   12.3770 C.3   399  THR399      0.0375
    162  N        -11.2680  -35.8030   14.1380 N.3   403  GLU403     -0.1245
    163  CA       -11.5860  -35.9490   15.5650 C.3   403  GLU403      0.1567
    164  C        -11.4680  -37.3590   16.1410 C.2   403  GLU403      0.2260
    165  O        -10.9050  -37.5230   17.2180 O.2   403  GLU403     -0.2867
    166  CB       -12.9380  -35.3190   15.9110 C.3   403  GLU403      0.0388
    167  CG       -13.0150  -33.8340   15.5900 C.3   403  GLU403      0.1160
    168  CD       -12.2680  -32.8610   16.4820 C.2   403  GLU403      0.3649
    169  OE1      -11.3580  -33.2720   17.2350 O.co2 403  GLU403     -0.2457
    170  OE2      -12.5830  -31.6560   16.3960 O.co2 403  GLU403     -0.2457
    171  N         -7.5760  -36.4860   18.4850 N.3   409  GLN409     -0.1245
    172  CA        -7.5780  -36.2580   19.9290 C.3   409  GLN409      0.1566
    173  C         -8.4690  -37.1980   20.7510 C.2   409  GLN409      0.2260
    174  O         -8.1880  -37.3960   21.9310 O.2   409  GLN409     -0.2867
    175  CB        -7.8690  -34.7830   20.2460 C.3   409  GLN409      0.0367
    176  CG        -9.3230  -34.3560   19.9880 C.3   409  GLN409      0.0905
    177  CD        -9.6040  -32.9430   20.4230 C.2   409  GLN409      0.2608
    178  OE1       -9.2900  -32.5370   21.5430 O.2   409  GLN409     -0.2717
    179  NE2      -10.2270  -32.1660   19.5520 N.am  409  GLN409     -0.0878
    180  N        -21.6060  -22.6510   12.0020 N.3   479  GLU479     -0.1245
    181  CA       -21.3250  -22.0150   13.3060 C.3   479  GLU479      0.1567
    182  C        -20.4170  -20.7540   13.2200 C.2   479  GLU479      0.2260
    183  O        -19.3460  -20.6750   13.8450 O.2   479  GLU479     -0.2867
    184  CB       -20.7930  -23.0510   14.3170 C.3   479  GLU479      0.0388
    185  CG       -19.3970  -23.5570   13.9910 C.3   479  GLU479      0.1160
    186  CD       -19.0400  -24.8410   14.6890 C.2   479  GLU479      0.3649
    187  OE1      -18.2920  -24.7840   15.6890 O.co2 479  GLU479     -0.2457
    188  OE2      -19.4920  -25.9090   14.2230 O.co2 479  GLU479     -0.2457
@<TRIPOS>BOND
     1   144   143    2
     2   143   142    1
     3   153   151   ar
     4   153   154   ar
     5   151   148   ar
     6    43    44    1
     7   142   141    1
     8   142   145    1
     9   154   152   ar
    10   145   146    1
    11   148   146   ar
    12   148   150   ar
    13    44    45    1
    14    44    47    1
    15    45    46    2
    16    34    33    2
    17   146   147   ar
    18   152   150   ar
    19   150   149   ar
    20    49    48   ar
    21    49    51   ar
    22    47    48    1
    23    33    32    1
    24   155   156    1
    25   147   149   ar
    26    48    50   ar
    27    51    52   ar
    28   156   157    1
    29   156   159    1
    30    50    52   ar
    31    50    53   ar
    32    32    35    1
    33    32    31    1
    34    52    54   ar
    35   140   139    2
    36   139   138    1
    37   157   158    2
    38   180   181    1
    39    57    58    1
    40    35    36    1
    41    53    55   ar
    42   161   159    1
    43    54    56   ar
    44   159   160    1
    45     8     6    1
    46   138   137    1
    47   182   181    1
    48   182   183    2
    49    55    56   ar
    50   181   184    1
    51    58    59    1
    52    58    61    1
    53    36    38   ar
    54    36    37   ar
    55     6     5    1
    56    60    59    2
    57   185   184    1
    58   185   186    1
    59    38    40   ar
    60    37    39   ar
    61   162   163    1
    62    61    62    1
    63   188   186   ar
    64   137   131   am
    65   132   131    2
    66    26    25    2
    67   186   187   ar
    68     7     5    1
    69   131   130    1
    70     5     2    1
    71    40    41   ar
    72    39    41   ar
    73    25    24    1
    74   163   166    1
    75   163   164    1
    76   167   166    1
    77   167   168    1
    78   133   130    1
    79   133   134    1
    80    62    64   am
    81    62    63    2
    82    41    42    1
    83     2     1    1
    84     2     3    1
    85   136   134   am
    86   130   129    1
    87   164   165    2
    88   134   135    2
    89   170   168   ar
    90   168   169   ar
    91    12    11    2
    92    24    27    1
    93    24    23    1
    94     3     9   am
    95     3     4    2
    96   129   125   am
    97     9    10    1
    98    27    28    1
    99    18    17    2
   100    11    10    1
   101    11    15   am
   102    21    20    2
   103    10    13    1
   104    16    17    1
   105    16    15    1
   106    16    19    1
   107   125   126    2
   108   125   124    1
   109   171   172    1
   110    28    30    1
   111    28    29    1
   112   128   127    1
   113    20    19    1
   114    20    22   am
   115    14    13    1
   116   127   124    1
   117   124   123    1
   118   122   120   ar
   119   122   121   ar
   120   179   177   am
   121   120   118   ar
   122   172   175    1
   123   172   173    1
   124   176   175    1
   125   176   177    1
   126   121   119   ar
   127   177   178    2
   128   118   117   ar
   129   118   116   ar
   130   123   111   am
   131   173   174    2
   132   117   115   ar
   133   119   116   ar
   134   116   114   ar
   135   115   114   ar
   136   111   112    2
   137   111   110    1
   138   114   113    1
   139    84    83    1
   140    93    91   ar
   141    93    95   ar
   142    91    90   ar
   143   113   110    1
   144    96    95    1
   145   110   109    1
   146    83    82   ar
   147    83    81   ar
   148    82    80   ar
   149    95    94   ar
   150    90    89    1
   151    90    92   ar
   152    76    75    2
   153    89    86    1
   154    86    87    1
   155    86    85    1
   156    81    79   ar
   157    80    78   ar
   158    87    88    2
   159    94    92   ar
   160    75    85   am
   161    75    74    1
   162    79    78   ar
   163    78    77    1
   164    74    77    1
   165    74    73    1
   166    72    71    1
   167    71    70    1
   168   108   107    1
   169    69    70    1
   170    69    66    1
   171    68    67    2
   172   107   105   ar
   173   107   106   ar
   174    65    66    1
   175   105   103   ar
   176    67    66    1
   177   106   104   ar
   178   103   102   ar
   179   104   102   ar
   180   102   101    1
   181   100    99    2
   182    99    98    1
   183   101    98    1
   184    98    97    1
