@<TRIPOS>MOLECULE
tmp/4zetA01.pdb
 84 76 0 0 0
SMALL
GASTEIGER

@<TRIPOS>ATOM
      1  N         44.7080   48.1800   25.8660 N.3    73  SER73      -0.1217
      2  CA        44.0930   49.0940   26.8270 C.3    73  SER73       0.1889
      3  C         42.6800   49.4440   26.3960 C.2    73  SER73       0.2288
      4  O         42.4700   49.9000   25.2650 O.2    73  SER73      -0.2866
      5  CB        44.9120   50.3700   26.9500 C.3    73  SER73       0.2089
      6  OG        46.2240   50.0730   27.3730 O.3    73  SER73      -0.2183
      7  N         45.2860   63.6750   33.5380 N.3   112  GLU112     -0.1245
      8  CA        44.7280   62.4460   32.9600 C.3   112  GLU112      0.1567
      9  C         43.3370   62.2080   33.5620 C.2   112  GLU112      0.2260
     10  O         43.2060   61.8700   34.7500 O.2   112  GLU112     -0.2867
     11  CB        45.6500   61.2360   33.2130 C.3   112  GLU112      0.0388
     12  CG        47.0630   61.3390   32.5950 C.3   112  GLU112      0.1160
     13  CD        47.8950   60.0380   32.6840 C.2   112  GLU112      0.3649
     14  OE1       48.1940   59.5580   33.8050 O.co2 112  GLU112     -0.2457
     15  OE2       48.2640   59.4980   31.6120 O.co2 112  GLU112     -0.2457
     16  N         41.3740   53.8260   31.8270 N.3   116  ILE116     -0.1245
     17  CA        41.4600   52.6070   31.0570 C.3   116  ILE116      0.1561
     18  C         41.6200   51.4420   31.9990 C.2   116  ILE116      0.2260
     19  O         42.0560   51.6120   33.1130 O.2   116  ILE116     -0.2867
     20  CB        42.6650   52.6070   30.0950 C.3   116  ILE116      0.0252
     21  CG1       43.9060   53.1330   30.8140 C.3   116  ILE116      0.0019
     22  CG2       42.3680   53.3980   28.8190 C.3   116  ILE116      0.0019
     23  CD1       45.1720   52.6040   30.2620 C.3   116  ILE116      0.0001
     24  N         43.8030   47.8310   31.9750 N.3   118  ASN118     -0.1240
     25  CA        44.8980   47.1970   31.2350 C.3   118  ASN118      0.1653
     26  C         45.7410   46.3040   32.1240 C.2   118  ASN118      0.2266
     27  O         45.5180   46.2220   33.3200 O.2   118  ASN118     -0.2867
     28  CB        45.7950   48.2270   30.5560 C.3   118  ASN118      0.1155
     29  CG        46.6300   49.0180   31.5370 C.2   118  ASN118      0.2627
     30  OD1       46.6250   48.7650   32.7340 O.2   118  ASN118     -0.2716
     31  ND2       47.3580   49.9990   31.0220 N.am  118  ASN118     -0.0877
     32  N         49.2280   44.7450   33.7990 N.3   120  ARG120     -0.1245
     33  CA        50.6170   44.9460   34.2260 C.3   120  ARG120      0.1563
     34  C         51.1890   43.7000   34.8980 C.2   120  ARG120      0.2260
     35  O         50.5180   43.0620   35.7100 O.2   120  ARG120     -0.2867
     36  CB        50.7140   46.1290   35.1740 C.3   120  ARG120      0.0307
     37  CG        50.3550   47.4350   34.5320 C.3   120  ARG120      0.0489
     38  CD        50.5860   48.5330   35.5090 C.3   120  ARG120      0.2205
     39  NE        50.1130   49.8070   35.0060 N.pl3 120  ARG120     -0.0865
     40  CZ        49.9960   50.8780   35.7730 C.cat 120  ARG120      0.5346
     41  NH1       50.3180   50.7960   37.0600 N.pl3 120  ARG120      0.1354
     42  NH2       49.5560   52.0160   35.2650 N.pl3 120  ARG120      0.1354
     43  N         43.7400   52.6890   35.2740 N.3   128  ASN128     -0.1240
     44  CA        44.7550   53.7100   35.1790 C.3   128  ASN128      0.1653
     45  C         44.1280   54.9050   34.4810 C.2   128  ASN128      0.2266
     46  O         43.3580   54.7330   33.5410 O.2   128  ASN128     -0.2867
     47  CB        45.9670   53.1800   34.4170 C.3   128  ASN128      0.1155
     48  CG        46.9240   54.2810   33.9790 C.2   128  ASN128      0.2627
     49  OD1       47.0630   55.3090   34.6420 O.2   128  ASN128     -0.2716
     50  ND2       47.5920   54.0640   32.8550 N.am  128  ASN128     -0.0877
     51  N         44.3760   58.0920   31.9790 N.3   130  ILE130     -0.1231
     52  CA        45.1810   58.5400   30.8400 C.3   130  ILE130      0.1692
     53  C         44.5700   59.7970   30.1910 C.2   130  ILE130      0.2592
     54  O         43.6550   60.3980   30.7430 O.2   130  ILE130     -0.2718
     55  CB        45.3160   57.4390   29.7860 C.3   130  ILE130      0.0266
     56  CG1       43.9590   57.1010   29.1950 C.3   130  ILE130      0.0019
     57  CG2       45.9320   56.1870   30.3760 C.3   130  ILE130      0.0020
     58  CD1       43.9930   57.0110   27.7100 C.3   130  ILE130      0.0001
     59  N         45.0770   60.2020   29.0290 N.am  131  HIS131     -0.1976
     60  CA        44.5420   61.3690   28.3120 C.3   131  HIS131      0.1656
     61  C         43.4370   61.0140   27.3090 C.2   131  HIS131      0.2291
     62  O         43.5990   60.0980   26.5020 O.2   131  HIS131     -0.2864
     63  CB        45.6620   62.0950   27.5640 C.3   131  HIS131      0.0771
     64  CG        46.5530   62.9140   28.4470 C.ar  131  HIS131      0.0820
     65  ND1       47.8430   62.5390   28.7580 N.ar  131  HIS131     -0.2267
     66  CD2       46.3400   64.0900   29.0810 C.ar  131  HIS131      0.1154
     67  CE1       48.3840   63.4480   29.5460 C.ar  131  HIS131      0.1986
     68  NE2       47.4910   64.3970   29.7640 N.ar  131  HIS131     -0.2212
     69  N         43.8980   60.7090   23.4040 N.3   134  VAL134     -0.1245
     70  CA        44.6870   59.5550   23.0040 C.3   134  VAL134      0.1561
     71  C         43.7750   58.3770   22.7050 C.2   134  VAL134      0.2260
     72  O         43.2160   57.7770   23.6190 O.2   134  VAL134     -0.2867
     73  CB        45.7060   59.1520   24.0930 C.3   134  VAL134      0.0252
     74  CG1       46.5800   58.0270   23.6080 C.3   134  VAL134      0.0019
     75  CG2       46.5560   60.3370   24.4880 C.3   134  VAL134      0.0019
     76  N         41.8990   54.9620   21.9800 N.3   136  GLN136     -0.1245
     77  CA        42.0380   53.6290   22.5700 C.3   136  GLN136      0.1566
     78  C         40.8450   52.7950   22.1830 C.2   136  GLN136      0.2260
     79  O         39.8700   53.3280   21.6680 O.2   136  GLN136     -0.2867
     80  CB        42.1100   53.6730   24.1020 C.3   136  GLN136      0.0367
     81  CG        43.1050   54.6210   24.7160 C.3   136  GLN136      0.0905
     82  CD        44.5240   54.1790   24.5040 C.2   136  GLN136      0.2608
     83  OE1       44.7760   53.0680   24.0420 O.2   136  GLN136     -0.2717
     84  NE2       45.4630   55.0530   24.8280 N.am  136  GLN136     -0.0878
@<TRIPOS>BOND
     1    79    78    2
     2    76    77    1
     3    78    77    1
     4    77    80    1
     5    71    70    1
     6    71    72    2
     7    70    69    1
     8    70    73    1
     9    74    73    1
    10    83    82    2
    11    73    75    1
    12    80    81    1
    13    82    81    1
    14    82    84   am
    15     4     3    2
    16     1     2    1
    17     3     2    1
    18    62    61    2
    19     2     5    1
    20     5     6    1
    21    61    60    1
    22    63    60    1
    23    63    64    1
    24    58    56    1
    25    60    59    1
    26    64    65   ar
    27    64    66   ar
    28    65    67   ar
    29    22    20    1
    30    59    53   am
    31    66    68   ar
    32    56    55    1
    33    67    68   ar
    34    55    57    1
    35    55    52    1
    36    20    21    1
    37    20    17    1
    38    53    54    2
    39    53    52    1
    40    23    21    1
    41    28    25    1
    42    28    29    1
    43    52    51    1
    44    31    29   am
    45    17    16    1
    46    17    18    1
    47    25    24    1
    48    25    26    1
    49    29    30    2
    50    15    13   ar
    51    18    19    2
    52    26    27    2
    53    12    13    1
    54    12    11    1
    55    13    14   ar
    56    50    48   am
    57     8    11    1
    58     8     7    1
    59     8     9    1
    60    46    45    2
    61     9    10    2
    62    32    33    1
    63    48    47    1
    64    48    49    2
    65    33    34    1
    66    33    36    1
    67    47    44    1
    68    45    44    1
    69    37    36    1
    70    37    38    1
    71    34    35    2
    72    39    38    1
    73    39    40    2
    74    44    43    1
    75    42    40    1
    76    40    41    1
