@<TRIPOS>MOLECULE
tmp/4zetA00.pdb
 86 81 0 0 0
SMALL
GASTEIGER

@<TRIPOS>ATOM
      1  N         40.0460   52.3740   17.2990 N.3    35  MET35      -0.1245
      2  CA        40.8560   53.2530   18.1460 C.3    35  MET35       0.1570
      3  C         40.3720   54.7000   18.0620 C.2    35  MET35       0.2261
      4  O         40.6070   55.3800   17.0600 O.2    35  MET35      -0.2867
      5  CB        42.3340   53.1730   17.7400 C.3    35  MET35       0.0387
      6  CG        42.9150   51.7810   17.7630 C.3    35  MET35       0.0595
      7  SD        43.3840   51.3780   19.4410 S.3    35  MET35      -0.1393
      8  CE        44.7300   52.5280   19.7330 C.3    35  MET35       0.0692
      9  N         45.6180   41.1110   26.8690 N.3    70  ARG70      -0.1231
     10  CA        46.5160   41.7740   27.8030 C.3    70  ARG70       0.1694
     11  C         47.4430   42.8010   27.1370 C.2    70  ARG70       0.2592
     12  O         47.8670   43.7720   27.7740 O.2    70  ARG70      -0.2718
     13  CB        47.3300   40.7330   28.5550 C.3    70  ARG70       0.0321
     14  CG        46.4820   39.6310   29.1180 C.3    70  ARG70       0.0489
     15  CD        47.3020   38.7550   29.9790 C.3    70  ARG70       0.2205
     16  NE        46.5350   37.6730   30.5620 N.pl3  70  ARG70      -0.0865
     17  CZ        47.0880   36.7140   31.2940 C.cat  70  ARG70       0.5346
     18  NH1       48.4000   36.7270   31.5030 N.pl3  70  ARG70       0.1354
     19  NH2       46.3460   35.7430   31.8070 N.pl3  70  ARG70       0.1354
     20  N         47.7300   42.6240   25.8540 N.am   71  ASN71      -0.1960
     21  CA        48.5120   43.6230   25.1470 C.3    71  ASN71       0.1819
     22  C         47.7170   44.8950   24.8830 C.2    71  ASN71       0.2622
     23  O         48.2480   45.8200   24.2850 O.2    71  ASN71      -0.2715
     24  CB        49.0520   43.0580   23.8230 C.3    71  ASN71       0.1195
     25  CG        47.9450   42.6790   22.8420 C.2    71  ASN71       0.2630
     26  OD1       47.1780   41.7390   23.0840 O.2    71  ASN71      -0.2716
     27  ND2       47.8740   43.3940   21.7180 N.am   71  ASN71      -0.0877
     28  N         46.4590   44.9600   25.3250 N.am   72  SER72      -0.1936
     29  CA        45.6180   46.1200   24.9930 C.3    72  SER72       0.2055
     30  C         45.1070   46.9490   26.1760 C.2    72  SER72       0.2643
     31  O         45.0800   46.4940   27.3190 O.2    72  SER72      -0.2714
     32  CB        44.4200   45.6770   24.1630 C.3    72  SER72       0.2130
     33  OG        44.7580   45.6050   22.7950 O.3    72  SER72      -0.2179
     34  N         44.7080   48.1800   25.8660 N.am   73  SER73      -0.1949
     35  CA        44.0930   49.0940   26.8270 C.3    73  SER73       0.1924
     36  C         42.6800   49.4440   26.3960 C.2    73  SER73       0.2314
     37  O         42.4700   49.9000   25.2650 O.2    73  SER73      -0.2863
     38  CB        44.9120   50.3700   26.9500 C.3    73  SER73       0.2116
     39  OG        46.2240   50.0730   27.3730 O.3    73  SER73      -0.2180
     40  N         41.3740   53.8260   31.8270 N.3   116  ILE116     -0.1245
     41  CA        41.4600   52.6070   31.0570 C.3   116  ILE116      0.1561
     42  C         41.6200   51.4420   31.9990 C.2   116  ILE116      0.2260
     43  O         42.0560   51.6120   33.1130 O.2   116  ILE116     -0.2867
     44  CB        42.6650   52.6070   30.0950 C.3   116  ILE116      0.0252
     45  CG1       43.9060   53.1330   30.8140 C.3   116  ILE116      0.0019
     46  CG2       42.3680   53.3980   28.8190 C.3   116  ILE116      0.0019
     47  CD1       45.1720   52.6040   30.2620 C.3   116  ILE116      0.0001
     48  N         43.8030   47.8310   31.9750 N.3   118  ASN118     -0.1240
     49  CA        44.8980   47.1970   31.2350 C.3   118  ASN118      0.1653
     50  C         45.7410   46.3040   32.1240 C.2   118  ASN118      0.2266
     51  O         45.5180   46.2220   33.3200 O.2   118  ASN118     -0.2867
     52  CB        45.7950   48.2270   30.5560 C.3   118  ASN118      0.1155
     53  CG        46.6300   49.0180   31.5370 C.2   118  ASN118      0.2627
     54  OD1       46.6250   48.7650   32.7340 O.2   118  ASN118     -0.2716
     55  ND2       47.3580   49.9990   31.0220 N.am  118  ASN118     -0.0877
     56  N         44.3760   58.0920   31.9790 N.3   130  ILE130     -0.1245
     57  CA        45.1810   58.5400   30.8400 C.3   130  ILE130      0.1561
     58  C         44.5700   59.7970   30.1910 C.2   130  ILE130      0.2260
     59  O         43.6550   60.3980   30.7430 O.2   130  ILE130     -0.2867
     60  CB        45.3160   57.4390   29.7860 C.3   130  ILE130      0.0252
     61  CG1       43.9590   57.1010   29.1950 C.3   130  ILE130      0.0019
     62  CG2       45.9320   56.1870   30.3760 C.3   130  ILE130      0.0019
     63  CD1       43.9930   57.0110   27.7100 C.3   130  ILE130      0.0001
     64  N         43.8980   60.7090   23.4040 N.3   134  VAL134     -0.1231
     65  CA        44.6870   59.5550   23.0040 C.3   134  VAL134      0.1678
     66  C         43.7750   58.3770   22.7050 C.2   134  VAL134      0.2434
     67  O         43.2160   57.7770   23.6190 O.2   134  VAL134     -0.2733
     68  CB        45.7060   59.1520   24.0930 C.3   134  VAL134      0.0265
     69  CG1       46.5800   58.0270   23.6080 C.3   134  VAL134      0.0020
     70  CG2       46.5560   60.3370   24.4880 C.3   134  VAL134      0.0020
     71  N         43.6450   58.0230   21.4220 N.am  135  PRO135     -0.2718
     72  CA        42.6660   57.0350   20.9600 C.3   135  PRO135      0.1535
     73  C         42.9370   55.6560   21.5310 C.2   135  PRO135      0.2598
     74  O         44.0860   55.2440   21.5690 O.2   135  PRO135     -0.2715
     75  CB        42.8560   57.0380   19.4450 C.3   135  PRO135      0.0310
     76  CG        43.7420   58.2230   19.1530 C.3   135  PRO135      0.0237
     77  CD        44.5770   58.3990   20.3550 C.3   135  PRO135      0.0939
     78  N         41.8990   54.9620   21.9800 N.am  136  GLN136     -0.1978
     79  CA        42.0380   53.6290   22.5700 C.3   136  GLN136      0.1601
     80  C         40.8450   52.7950   22.1830 C.2   136  GLN136      0.2287
     81  O         39.8700   53.3280   21.6680 O.2   136  GLN136     -0.2864
     82  CB        42.1100   53.6730   24.1020 C.3   136  GLN136      0.0394
     83  CG        43.1050   54.6210   24.7160 C.3   136  GLN136      0.0908
     84  CD        44.5240   54.1790   24.5040 C.2   136  GLN136      0.2608
     85  OE1       44.7760   53.0680   24.0420 O.2   136  GLN136     -0.2717
     86  NE2       45.4630   55.0530   24.8280 N.am  136  GLN136     -0.0878
@<TRIPOS>BOND
     1     4     3    2
     2     1     2    1
     3     5     6    1
     4     5     2    1
     5     6     7    1
     6     3     2    1
     7    76    75    1
     8    76    77    1
     9     7     8    1
    10    75    72    1
    11    77    71    1
    12    72    71    1
    13    72    73    1
    14    71    66   am
    15    73    74    2
    16    73    78   am
    17    81    80    2
    18    27    25   am
    19    78    79    1
    20    80    79    1
    21    79    82    1
    22    66    65    1
    23    66    67    2
    24    33    32    1
    25    25    26    2
    26    25    24    1
    27    65    64    1
    28    65    68    1
    29    69    68    1
    30    24    21    1
    31    85    84    2
    32    68    70    1
    33    82    83    1
    34    32    29    1
    35    23    22    2
    36    84    83    1
    37    84    86   am
    38    22    21    1
    39    22    28   am
    40    29    28    1
    41    29    30    1
    42    21    20    1
    43    37    36    2
    44    20    11   am
    45    34    30   am
    46    34    35    1
    47    30    31    2
    48    36    35    1
    49    35    38    1
    50     9    10    1
    51    38    39    1
    52    11    12    2
    53    11    10    1
    54    63    61    1
    55    10    13    1
    56    13    14    1
    57    46    44    1
    58    14    15    1
    59    61    60    1
    60    60    62    1
    61    60    57    1
    62    15    16    1
    63    44    45    1
    64    44    41    1
    65    58    59    2
    66    58    57    1
    67    47    45    1
    68    52    49    1
    69    52    53    1
    70    16    17    2
    71    57    56    1
    72    55    53   am
    73    41    40    1
    74    41    42    1
    75    49    48    1
    76    49    50    1
    77    17    18    1
    78    17    19    1
    79    53    54    2
    80    42    43    2
    81    50    51    2
