@<TRIPOS>MOLECULE
tmp/4zevA00.pdb
 160 151 0 0 0
SMALL
GASTEIGER

@<TRIPOS>ATOM
      1  N         11.7480   28.5430   11.2340 N.3    29  ALA29      -0.1231
      2  CA        11.1130   29.0280   12.4470 C.3    29  ALA29       0.1694
      3  C         12.1180   28.9490   13.5930 C.2    29  ALA29       0.2592
      4  O         13.0930   28.1950   13.5340 O.2    29  ALA29      -0.2718
      5  CB         9.8530   28.2160   12.7430 C.3    29  ALA29       0.0304
      6  N         11.9220   29.7450   14.6360 N.am   30  LEU30      -0.1966
      7  CA        12.9020   29.7760   15.7050 C.3    30  LEU30       0.1728
      8  C         12.4870   28.8560   16.8420 C.2    30  LEU30       0.2616
      9  O         12.9000   27.7020   16.8970 O.2    30  LEU30      -0.2715
     10  CB        13.0610   31.2210   16.1920 C.3    30  LEU30       0.0311
     11  CG        14.2020   31.5340   17.1550 C.3    30  LEU30       0.0022
     12  CD1       15.5540   31.3310   16.4870 C.3    30  LEU30       0.0001
     13  CD2       14.0530   32.9480   17.6770 C.3    30  LEU30       0.0001
     14  N         11.5390   29.3040   17.6390 N.am   31  ASP31      -0.1971
     15  CA        11.0220   28.4870   18.7150 C.3    31  ASP31       0.1709
     16  C         10.3560   27.2540   18.1450 C.2    31  ASP31       0.2293
     17  O          9.6330   27.3310   17.1500 O.2    31  ASP31      -0.2864
     18  CB        10.0410   29.2950   19.5360 C.3    31  ASP31       0.1436
     19  CG        10.6450   30.5940   20.0300 C.2    31  ASP31       0.3671
     20  OD1       10.8970   31.4980   19.2110 O.co2  31  ASP31      -0.2456
     21  OD2       10.8070   30.7170   21.2620 O.co2  31  ASP31      -0.2456
     22  N          9.8780   34.1110   11.6210 N.3    63  THR63      -0.1203
     23  CA         9.3220   34.0280   12.9540 C.3    63  THR63       0.1994
     24  C          8.1580   34.9770   13.1590 C.2    63  THR63       0.2618
     25  O          7.9600   35.9430   12.4150 O.2    63  THR63      -0.2717
     26  CB        10.4510   34.3200   14.0400 C.3    63  THR63       0.1784
     27  OG1        9.9430   34.1320   15.3710 O.3    63  THR63      -0.2211
     28  CG2       11.0060   35.7470   13.8740 C.3    63  THR63       0.0376
     29  N          7.3430   34.6560   14.1550 N.am   64  GLY64      -0.1942
     30  CA         6.3230   35.5670   14.6480 C.3    64  GLY64       0.2014
     31  C          6.9260   36.6580   15.5270 C.2    64  GLY64       0.2638
     32  O          6.3260   37.6980   15.7500 O.2    64  GLY64      -0.2714
     33  N          8.1210   36.4070   16.0470 N.am   65  ARG65      -0.1977
     34  CA         8.7850   37.3430   16.9310 C.3    65  ARG65       0.1597
     35  C          9.1900   38.6380   16.2180 C.2    65  ARG65       0.2287
     36  O          9.2960   38.6690   15.0070 O.2    65  ARG65      -0.2864
     37  CB        10.0290   36.6890   17.5120 C.3    65  ARG65       0.0334
     38  CG         9.7810   35.6540   18.5580 C.3    65  ARG65       0.0492
     39  CD        11.0850   34.9360   18.7920 C.3    65  ARG65       0.2205
     40  NE        11.0630   34.0230   19.9250 N.pl3  65  ARG65      -0.0865
     41  CZ        11.3390   34.3600   21.1790 C.cat  65  ARG65       0.5346
     42  NH1       11.6450   35.6150   21.4960 N.pl3  65  ARG65       0.1354
     43  NH2       11.3130   33.4290   22.1220 N.pl3  65  ARG65       0.1354
     44  N          4.7540   34.4220   29.0680 N.3   150  TYR150     -0.1241
     45  CA         5.1490   34.9740   27.7720 C.3   150  TYR150      0.1605
     46  C          6.4910   35.7170   27.8840 C.2   150  TYR150      0.2264
     47  O          7.3930   35.5320   27.0580 O.2   150  TYR150     -0.2867
     48  CB         4.0610   35.9150   27.2370 C.3   150  TYR150      0.0534
     49  CG         4.5670   36.8270   26.1480 C.ar  150  TYR150     -0.0201
     50  CD1        4.6000   36.4170   24.8180 C.ar  150  TYR150     -0.0009
     51  CD2        5.0360   38.0890   26.4530 C.ar  150  TYR150     -0.0009
     52  CE1        5.0960   37.2550   23.8190 C.ar  150  TYR150      0.0417
     53  CE2        5.5310   38.9190   25.4700 C.ar  150  TYR150      0.0417
     54  CZ         5.5610   38.5010   24.1690 C.ar  150  TYR150      0.1957
     55  OH         6.0620   39.3610   23.2300 O.3   150  TYR150     -0.2866
     56  N          9.6690   33.3410   28.1230 N.3   153  VAL153     -0.1231
     57  CA        10.0560   32.6830   26.8800 C.3   153  VAL153      0.1692
     58  C         10.4350   33.7080   25.8000 C.2   153  VAL153      0.2591
     59  O         11.4160   33.5200   25.0730 O.2   153  VAL153     -0.2718
     60  CB         8.9230   31.7820   26.3430 C.3   153  VAL153      0.0266
     61  CG1        9.3630   31.0580   25.0900 C.3   153  VAL153      0.0020
     62  CG2        8.4960   30.7800   27.4100 C.3   153  VAL153      0.0020
     63  N          9.6670   34.7870   25.7050 N.am  154  GLU154     -0.1979
     64  CA         9.9230   35.8040   24.6880 C.3   154  GLU154      0.1602
     65  C         11.2690   36.4730   24.9330 C.2   154  GLU154      0.2287
     66  O         11.9680   36.8040   23.9820 O.2   154  GLU154     -0.2864
     67  CB         8.8180   36.8620   24.6630 C.3   154  GLU154      0.0415
     68  CG         8.7930   37.6990   23.3850 C.3   154  GLU154      0.1163
     69  CD         8.1120   37.0080   22.2190 C.2   154  GLU154      0.3649
     70  OE1        7.4850   37.6690   21.3480 O.co2 154  GLU154     -0.2457
     71  OE2        8.2410   35.7880   22.1460 O.co2 154  GLU154     -0.2457
     72  N          0.6530   43.3010   15.0250 N.3   173  LYS173     -0.1245
     73  CA        -0.0310   42.1110   15.4720 C.3   173  LYS173      0.1561
     74  C         -0.4090   42.2020   16.9340 C.2   173  LYS173      0.2260
     75  O          0.0950   43.0510   17.6850 O.2   173  LYS173     -0.2867
     76  CB         0.8200   40.8650   15.2100 C.3   173  LYS173      0.0271
     77  CG         2.0490   40.7120   16.0670 C.3   173  LYS173      0.0035
     78  CD         2.5610   39.2470   16.0230 C.3   173  LYS173      0.0206
     79  CE         3.3120   38.9150   17.3030 C.3   173  LYS173      0.1093
     80  NZ         4.2100   37.7180   17.2070 N.3   173  LYS173     -0.1314
     81  N         -0.6830   39.3360   20.1240 N.3   175  LEU175     -0.1245
     82  CA        -0.4930   38.0010   20.6460 C.3   175  LEU175      0.1561
     83  C         -1.2100   37.8930   21.9740 C.2   175  LEU175      0.2260
     84  O         -0.9840   38.6910   22.8960 O.2   175  LEU175     -0.2867
     85  CB         0.9850   37.6980   20.8230 C.3   175  LEU175      0.0270
     86  CG         1.3710   36.2950   21.3060 C.3   175  LEU175      0.0019
     87  CD1        2.7170   35.8970   20.6800 C.3   175  LEU175      0.0001
     88  CD2        1.4630   36.2790   22.8120 C.3   175  LEU175      0.0001
     89  N          0.1640   29.6030   17.4910 N.3   203  THR203     -0.1203
     90  CA         1.5470   29.5050   17.0420 C.3   203  THR203      0.1994
     91  C          2.4450   28.5610   17.8610 C.2   203  THR203      0.2617
     92  O          3.2990   27.8510   17.3250 O.2   203  THR203     -0.2717
     93  CB         2.1600   30.9090   17.0050 C.3   203  THR203      0.1784
     94  OG1        1.8580   31.5920   18.2230 O.3   203  THR203     -0.2211
     95  CG2        1.5600   31.7120   15.8700 C.3   203  THR203      0.0376
     96  N          2.3120   28.6610   19.1740 N.am  204  PHE204     -0.1975
     97  CA         3.0670   27.8510   20.1200 C.3   204  PHE204      0.1639
     98  C          2.1560   27.6680   21.3080 C.2   204  PHE204      0.2290
     99  O          1.5550   28.6390   21.7630 O.2   204  PHE204     -0.2864
    100  CB         4.3670   28.5710   20.4810 C.3   204  PHE204      0.0560
    101  CG         5.3420   27.7880   21.3000 C.ar  204  PHE204     -0.0200
    102  CD1        5.8810   26.6080   20.8270 C.ar  204  PHE204     -0.0042
    103  CD2        5.8020   28.2960   22.5060 C.ar  204  PHE204     -0.0042
    104  CE1        6.8140   25.9130   21.5680 C.ar  204  PHE204     -0.0003
    105  CE2        6.7340   27.6090   23.2510 C.ar  204  PHE204     -0.0003
    106  CZ         7.2440   26.4150   22.7800 C.ar  204  PHE204     -0.0000
    107  N         -0.4850   30.2460   22.8050 N.3   207  TYR207     -0.1241
    108  CA        -0.4060   31.5640   22.1980 C.3   207  TYR207      0.1605
    109  C         -1.2530   31.6750   20.9170 C.2   207  TYR207      0.2264
    110  O         -1.2140   30.7950   20.0550 O.2   207  TYR207     -0.2867
    111  CB         1.0510   31.8840   21.9360 C.3   207  TYR207      0.0534
    112  CG         1.8780   31.8520   23.2100 C.ar  207  TYR207     -0.0201
    113  CD1        1.8670   32.9180   24.0920 C.ar  207  TYR207     -0.0009
    114  CD2        2.7070   30.7740   23.5060 C.ar  207  TYR207     -0.0009
    115  CE1        2.6430   32.9110   25.2430 C.ar  207  TYR207      0.0417
    116  CE2        3.4920   30.7610   24.6540 C.ar  207  TYR207      0.0417
    117  CZ         3.4520   31.8310   25.5210 C.ar  207  TYR207      0.1957
    118  OH         4.2220   31.8200   26.6700 O.3   207  TYR207     -0.2866
    119  N         -2.0520   34.4020   17.8020 N.3   209  GLU209     -0.1245
    120  CA        -1.5530   35.6040   17.1430 C.3   209  GLU209      0.1567
    121  C         -2.4830   36.0420   16.0310 C.2   209  GLU209      0.2260
    122  O         -2.9420   35.2100   15.2290 O.2   209  GLU209     -0.2867
    123  CB        -0.1470   35.3420   16.6040 C.3   209  GLU209      0.0388
    124  CG         0.7890   34.8110   17.6970 C.3   209  GLU209      0.1160
    125  CD         2.2560   34.7510   17.2910 C.2   209  GLU209      0.3649
    126  OE1        2.6870   35.5250   16.3940 O.co2 209  GLU209     -0.2457
    127  OE2        2.9800   33.9100   17.8830 O.co2 209  GLU209     -0.2457
    128  N          4.4650   34.0790    6.6470 N.3   217  LYS217     -0.1245
    129  CA         5.9070   33.9110    6.4870 C.3   217  LYS217      0.1561
    130  C          6.3060   33.6470    5.0450 C.2   217  LYS217      0.2260
    131  O          7.3970   34.0240    4.6200 O.2   217  LYS217     -0.2867
    132  CB         6.4370   32.7630    7.3550 C.3   217  LYS217      0.0271
    133  CG         6.3790   33.0270    8.8440 C.3   217  LYS217      0.0035
    134  CD         7.0480   31.9040    9.6200 C.3   217  LYS217      0.0206
    135  CE         6.7590   32.0640   11.1090 C.3   217  LYS217      0.1093
    136  NZ         7.4670   31.0690   11.9590 N.3   217  LYS217     -0.1314
    137  N          7.3440   24.2250   12.5990 N.3   240  ASP240     -0.1239
    138  CA         6.7020   23.4610   13.6790 C.3   240  ASP240      0.1674
    139  C          5.2240   23.8580   13.8310 C.2   240  ASP240      0.2266
    140  O          4.4400   23.0330   14.3160 O.2   240  ASP240     -0.2867
    141  CB         7.4990   23.5280   14.9890 C.3   240  ASP240      0.1410
    142  CG         7.4240   24.8610   15.6430 C.2   240  ASP240      0.3668
    143  OD1        7.9970   25.8080   15.0700 O.co2 240  ASP240     -0.2456
    144  OD2        6.8020   24.9410   16.7270 O.co2 240  ASP240     -0.2456
    145  N          1.7860   28.9450   12.0260 N.3   243  ASN243     -0.1225
    146  CA         2.2270   30.1190   11.2990 C.3   243  ASN243      0.1785
    147  C          3.3370   29.7700   10.3080 C.2   243  ASN243      0.2597
    148  O          3.8890   30.6510    9.6490 O.2   243  ASN243     -0.2718
    149  CB         2.6790   31.2230   12.2730 C.3   243  ASN243      0.1169
    150  CG         3.7490   30.7600   13.2770 C.2   243  ASN243      0.2627
    151  OD1        3.8360   29.5840   13.6450 O.2   243  ASN243     -0.2716
    152  ND2        4.5450   31.7240   13.7650 N.am  243  ASN243     -0.0877
    153  N          3.7140   28.4960   10.2650 N.am  244  ASP244     -0.1974
    154  CA         4.6140   27.9890    9.2310 C.3   244  ASP244      0.1709
    155  C          3.9340   27.2690    8.0650 C.2   244  ASP244      0.2293
    156  O          4.5970   26.9240    7.0850 O.2   244  ASP244     -0.2864
    157  CB         5.6180   27.0300    9.8580 C.3   244  ASP244      0.1436
    158  CG         6.3760   27.6480   11.0120 C.2   244  ASP244      0.3671
    159  OD1        6.8490   28.7940   10.8490 O.co2 244  ASP244     -0.2456
    160  OD2        6.5050   26.9870   12.0720 O.co2 244  ASP244     -0.2456
@<TRIPOS>BOND
     1   131   130    2
     2   130   129    1
     3   129   128    1
     4   129   132    1
     5   156   155    2
     6   132   133    1
     7   155   154    1
     8   133   134    1
     9   154   157    1
    10   154   153    1
    11   134   135    1
    12   148   147    2
    13   157   158    1
    14   153   147   am
    15   147   146    1
    16   159   158   ar
    17   158   160   ar
    18   135   136    1
    19     1     2    1
    20   146   145    1
    21   146   149    1
    22    22    23    1
    23   149   150    1
    24    25    24    2
    25     2     5    1
    26     2     3    1
    27   137   138    1
    28    23    24    1
    29    23    26    1
    30    24    29   am
    31   150   151    2
    32   150   152   am
    33     4     3    2
    34     3     6   am
    35   138   139    1
    36   138   141    1
    37   139   140    2
    38    28    26    1
    39    26    27    1
    40    29    30    1
    41     6     7    1
    42    30    31    1
    43   141   142    1
    44    36    35    2
    45    72    73    1
    46   143   142   ar
    47    76    73    1
    48    76    77    1
    49   122   121    2
    50    73    74    1
    51    31    32    2
    52    31    33   am
    53   142   144   ar
    54     7    10    1
    55     7     8    1
    56    95    93    1
    57    78    77    1
    58    78    79    1
    59   121   120    1
    60    33    34    1
    61    10    11    1
    62    35    34    1
    63   126   125   ar
    64    12    11    1
    65   123   120    1
    66   123   124    1
    67     8     9    2
    68     8    14   am
    69    34    37    1
    70    74    75    2
    71    93    90    1
    72    93    94    1
    73    90    89    1
    74    90    91    1
    75   120   119    1
    76    17    16    2
    77    11    13    1
    78    80    79    1
    79   125   124    1
    80   125   127   ar
    81    92    91    2
    82    37    38    1
    83    14    15    1
    84    91    96   am
    85    16    15    1
    86    38    39    1
    87    15    18    1
    88    39    40    1
    89    96    97    1
    90    20    19   ar
    91    18    19    1
    92    40    41    2
    93    19    21   ar
    94   110   109    2
    95    97   100    1
    96    97    98    1
    97    81    82    1
    98   100   101    1
    99    82    85    1
   100    82    83    1
   101    87    86    1
   102    85    86    1
   103   102   101   ar
   104   102   104   ar
   105   109   108    1
   106    41    42    1
   107    41    43    1
   108   101   103   ar
   109    86    88    1
   110    98    99    2
   111    70    69   ar
   112   104   106   ar
   113   111   108    1
   114   111   112    1
   115    83    84    2
   116    71    69   ar
   117   108   107    1
   118    69    68    1
   119   103   105   ar
   120   106   105   ar
   121   112   114   ar
   122   112   113   ar
   123    55    54    1
   124    68    67    1
   125   114   116   ar
   126    52    54   ar
   127    52    50   ar
   128    66    65    2
   129   113   115   ar
   130    54    53   ar
   131   116   117   ar
   132    67    64    1
   133    64    65    1
   134    64    63    1
   135    50    49   ar
   136    59    58    2
   137    61    60    1
   138   115   117   ar
   139    53    51   ar
   140   117   118    1
   141    63    58   am
   142    58    57    1
   143    49    51   ar
   144    49    48    1
   145    60    57    1
   146    60    62    1
   147    57    56    1
   148    47    46    2
   149    48    45    1
   150    45    46    1
   151    45    44    1
