@<TRIPOS>MOLECULE
tmp/4zexA00.pdb
 144 136 0 0 0
SMALL
GASTEIGER

@<TRIPOS>ATOM
      1  N         11.7270   28.5330   11.1590 N.3    29  ALA29      -0.1231
      2  CA        11.1000   29.0100   12.3790 C.3    29  ALA29       0.1694
      3  C         12.1060   28.9260   13.5340 C.2    29  ALA29       0.2592
      4  O         13.0390   28.1260   13.5030 O.2    29  ALA29      -0.2718
      5  CB         9.8530   28.2120   12.6880 C.3    29  ALA29       0.0304
      6  N         11.9100   29.7580   14.5430 N.am   30  LEU30      -0.1966
      7  CA        12.8610   29.8480   15.6290 C.3    30  LEU30       0.1728
      8  C         12.4670   28.9000   16.7600 C.2    30  LEU30       0.2616
      9  O         12.9170   27.7560   16.8010 O.2    30  LEU30      -0.2715
     10  CB        12.9570   31.2920   16.1110 C.3    30  LEU30       0.0311
     11  CG        14.0800   31.5830   17.0960 C.3    30  LEU30       0.0022
     12  CD1       15.4300   31.2520   16.4740 C.3    30  LEU30       0.0001
     13  CD2       14.0310   33.0480   17.5280 C.3    30  LEU30       0.0001
     14  N         11.6010   29.3500   17.6580 N.am   31  ASP31      -0.1971
     15  CA        11.0770   28.4650   18.7050 C.3    31  ASP31       0.1709
     16  C         10.4210   27.2310   18.1140 C.2    31  ASP31       0.2293
     17  O          9.6630   27.3250   17.1620 O.2    31  ASP31      -0.2864
     18  CB        10.0420   29.1720   19.5750 C.3    31  ASP31       0.1436
     19  CG        10.4970   30.5460   20.0450 C.2    31  ASP31       0.3671
     20  OD1       10.8280   31.4000   19.1990 O.co2  31  ASP31      -0.2456
     21  OD2       10.5080   30.7690   21.2670 O.co2  31  ASP31      -0.2456
     22  N         12.5430   32.9790   10.1150 N.3    62  ALA62      -0.1231
     23  CA        11.1640   33.3470    9.8200 C.3    62  ALA62       0.1694
     24  C         10.3120   33.0580   11.0390 C.2    62  ALA62       0.2593
     25  O         10.0350   31.9080   11.3550 O.2    62  ALA62      -0.2718
     26  CB        10.6250   32.5830    8.5840 C.3    62  ALA62       0.0304
     27  N          9.8440   34.1190   11.6830 N.am   63  THR63      -0.1939
     28  CA         9.3030   34.0090   13.0230 C.3    63  THR63       0.2028
     29  C          8.1450   34.9800   13.2310 C.2    63  THR63       0.2643
     30  O          8.0240   35.9800   12.5200 O.2    63  THR63      -0.2714
     31  CB        10.4370   34.2710   14.0550 C.3    63  THR63       0.1808
     32  OG1        9.9390   34.1650   15.3860 O.3    63  THR63      -0.2208
     33  CG2       11.0400   35.6460   13.8520 C.3    63  THR63       0.0379
     34  N          7.2850   34.6770   14.1940 N.am   64  GLY64      -0.1939
     35  CA         6.2840   35.6320   14.6450 C.3    64  GLY64       0.2014
     36  C          6.9060   36.7370   15.4950 C.2    64  GLY64       0.2638
     37  O          6.3300   37.8110   15.6960 O.2    64  GLY64      -0.2714
     38  N          8.0980   36.4680   16.0070 N.am   65  ARG65      -0.1977
     39  CA         8.7730   37.4010   16.8940 C.3    65  ARG65       0.1597
     40  C          9.1800   38.6880   16.1960 C.2    65  ARG65       0.2287
     41  O          9.2840   38.7320   14.9760 O.2    65  ARG65      -0.2864
     42  CB        10.0130   36.7370   17.4710 C.3    65  ARG65       0.0334
     43  CG         9.7610   35.6680   18.5010 C.3    65  ARG65       0.0492
     44  CD        11.0960   34.9730   18.7490 C.3    65  ARG65       0.2205
     45  NE        11.0910   34.0780   19.8960 N.pl3  65  ARG65      -0.0865
     46  CZ        11.3860   34.4420   21.1440 C.cat  65  ARG65       0.5346
     47  NH1       11.6660   35.7060   21.4330 N.pl3  65  ARG65       0.1354
     48  NH2       11.3880   33.5390   22.1110 N.pl3  65  ARG65       0.1354
     49  N          9.7370   33.2920   28.0460 N.3   153  VAL153     -0.1231
     50  CA        10.1130   32.6490   26.7900 C.3   153  VAL153      0.1692
     51  C         10.5150   33.6870   25.7620 C.2   153  VAL153      0.2591
     52  O         11.5130   33.5190   25.0620 O.2   153  VAL153     -0.2718
     53  CB         8.9620   31.7860   26.2140 C.3   153  VAL153      0.0266
     54  CG1        9.3990   31.0830   24.9310 C.3   153  VAL153      0.0020
     55  CG2        8.4930   30.7660   27.2380 C.3   153  VAL153      0.0020
     56  N          9.7420   34.7600   25.6560 N.am  154  GLU154     -0.1979
     57  CA        10.0310   35.7720   24.6480 C.3   154  GLU154      0.1602
     58  C         11.3690   36.4470   24.9340 C.2   154  GLU154      0.2287
     59  O         12.1000   36.8220   24.0010 O.2   154  GLU154     -0.2864
     60  CB         8.9240   36.8220   24.5880 C.3   154  GLU154      0.0415
     61  CG         8.9100   37.6180   23.2970 C.3   154  GLU154      0.1163
     62  CD         8.1080   36.9310   22.2020 C.2   154  GLU154      0.3649
     63  OE1        7.4870   37.6460   21.3820 O.co2 154  GLU154     -0.2457
     64  OE2        8.0960   35.6800   22.1610 O.co2 154  GLU154     -0.2457
     65  N         -0.6850   39.3570   20.1680 N.3   175  LEU175     -0.1245
     66  CA        -0.4510   38.0190   20.6400 C.3   175  LEU175      0.1561
     67  C         -1.1480   37.8990   21.9650 C.2   175  LEU175      0.2260
     68  O         -0.9450   38.7350   22.8480 O.2   175  LEU175     -0.2867
     69  CB         1.0420   37.7490   20.7800 C.3   175  LEU175      0.0270
     70  CG         1.4650   36.3400   21.2200 C.3   175  LEU175      0.0019
     71  CD1        2.8400   36.0050   20.6520 C.3   175  LEU175      0.0001
     72  CD2        1.4970   36.2290   22.7280 C.3   175  LEU175      0.0001
     73  N          0.2360   29.5710   17.4250 N.3   203  THR203     -0.1203
     74  CA         1.6080   29.4750   16.9410 C.3   203  THR203      0.1994
     75  C          2.5500   28.6350   17.8110 C.2   203  THR203      0.2617
     76  O          3.5680   28.1500   17.3430 O.2   203  THR203     -0.2717
     77  CB         2.2160   30.8720   16.8300 C.3   203  THR203      0.1784
     78  OG1        2.0580   31.5530   18.0830 O.3   203  THR203     -0.2211
     79  CG2        1.5310   31.6680   15.7290 C.3   203  THR203      0.0376
     80  N          2.2030   28.4700   19.0760 N.am  204  PHE204     -0.1975
     81  CA         3.1540   27.9820   20.0670 C.3   204  PHE204      0.1639
     82  C          2.4050   27.8620   21.3690 C.2   204  PHE204      0.2290
     83  O          1.8980   28.8570   21.8830 O.2   204  PHE204     -0.2864
     84  CB         4.3450   28.9450   20.2030 C.3   204  PHE204      0.0560
     85  CG         5.4660   28.4340   21.0730 C.ar  204  PHE204     -0.0200
     86  CD1        6.2830   27.3990   20.6430 C.ar  204  PHE204     -0.0042
     87  CD2        5.7280   29.0170   22.3030 C.ar  204  PHE204     -0.0042
     88  CE1        7.3220   26.9380   21.4280 C.ar  204  PHE204     -0.0003
     89  CE2        6.7680   28.5600   23.0950 C.ar  204  PHE204     -0.0003
     90  CZ         7.5660   27.5190   22.6540 C.ar  204  PHE204     -0.0000
     91  N         -0.3640   30.3640   22.7040 N.3   207  TYR207     -0.1241
     92  CA        -0.2740   31.6690   22.0660 C.3   207  TYR207      0.1605
     93  C         -1.2660   31.7520   20.9180 C.2   207  TYR207      0.2264
     94  O         -1.3350   30.8480   20.0800 O.2   207  TYR207     -0.2867
     95  CB         1.1300   31.9290   21.5270 C.3   207  TYR207      0.0534
     96  CG         2.2140   32.1230   22.5590 C.ar  207  TYR207     -0.0201
     97  CD1        1.9520   32.0250   23.9160 C.ar  207  TYR207     -0.0009
     98  CD2        3.5150   32.4250   22.1610 C.ar  207  TYR207     -0.0009
     99  CE1        2.9580   32.2040   24.8520 C.ar  207  TYR207      0.0417
    100  CE2        4.5250   32.6080   23.0840 C.ar  207  TYR207      0.0417
    101  CZ         4.2420   32.4990   24.4260 C.ar  207  TYR207      0.1957
    102  OH         5.2550   32.6830   25.3370 O.3   207  TYR207     -0.2866
    103  N         -2.0080   34.4500   17.8640 N.3   209  GLU209     -0.1245
    104  CA        -1.5180   35.6350   17.1790 C.3   209  GLU209      0.1567
    105  C         -2.4720   36.0840   16.0700 C.2   209  GLU209      0.2260
    106  O         -2.9620   35.2660   15.2980 O.2   209  GLU209     -0.2867
    107  CB        -0.1200   35.3590   16.6190 C.3   209  GLU209      0.0388
    108  CG         0.8320   34.8360   17.6910 C.3   209  GLU209      0.1160
    109  CD         2.2840   34.7810   17.2470 C.2   209  GLU209      0.3649
    110  OE1        2.6560   35.4890   16.2830 O.co2 209  GLU209     -0.2457
    111  OE2        3.0560   34.0320   17.8850 O.co2 209  GLU209     -0.2457
    112  N          4.4440   34.1570    6.6710 N.3   217  LYS217     -0.1245
    113  CA         5.8760   33.9320    6.5020 C.3   217  LYS217      0.1561
    114  C          6.2550   33.6720    5.0520 C.2   217  LYS217      0.2260
    115  O          7.3370   34.0590    4.6160 O.2   217  LYS217     -0.2867
    116  CB         6.3470   32.7640    7.3710 C.3   217  LYS217      0.0271
    117  CG         6.3990   33.0860    8.8400 C.3   217  LYS217      0.0035
    118  CD         6.9810   31.9560    9.6620 C.3   217  LYS217      0.0206
    119  CE         6.7830   32.2340   11.1610 C.3   217  LYS217      0.1093
    120  NZ         7.3350   31.1550   11.9910 N.3   217  LYS217     -0.1314
    121  N          7.2940   24.2160   12.5750 N.3   240  ASP240     -0.1239
    122  CA         6.6090   23.3770   13.5310 C.3   240  ASP240      0.1674
    123  C          5.1870   23.8350   13.8450 C.2   240  ASP240      0.2266
    124  O          4.4060   23.0640   14.4030 O.2   240  ASP240     -0.2867
    125  CB         7.4010   23.3360   14.8310 C.3   240  ASP240      0.1410
    126  CG         7.3840   24.6660   15.5600 C.2   240  ASP240      0.3668
    127  OD1        7.9650   25.6510   15.0330 O.co2 240  ASP240     -0.2456
    128  OD2        6.7940   24.7280   16.6640 O.co2 240  ASP240     -0.2456
    129  N          1.7170   29.0230   12.0000 N.3   243  ASN243     -0.1225
    130  CA         2.2100   30.1540   11.2470 C.3   243  ASN243      0.1785
    131  C          3.3350   29.7770   10.2680 C.2   243  ASN243      0.2597
    132  O          3.8820   30.6350    9.5720 O.2   243  ASN243     -0.2718
    133  CB         2.6720   31.2690   12.2110 C.3   243  ASN243      0.1169
    134  CG         3.7220   30.8050   13.2290 C.2   243  ASN243      0.2627
    135  OD1        3.8470   29.6200   13.5310 O.2   243  ASN243     -0.2716
    136  ND2        4.4810   31.7610   13.7570 N.am  243  ASN243     -0.0877
    137  N          3.6480   28.4870   10.1910 N.am  244  ASP244     -0.1974
    138  CA         4.5910   27.9790    9.1960 C.3   244  ASP244      0.1709
    139  C          3.9170   27.2720    8.0170 C.2   244  ASP244      0.2293
    140  O          4.5900   26.9340    7.0320 O.2   244  ASP244     -0.2864
    141  CB         5.5750   27.0150    9.8470 C.3   244  ASP244      0.1436
    142  CG         6.3590   27.6590   10.9540 C.2   244  ASP244      0.3671
    143  OD1        6.7910   28.8120   10.7640 O.co2 244  ASP244     -0.2456
    144  OD2        6.5150   27.0140   12.0130 O.co2 244  ASP244     -0.2456
@<TRIPOS>BOND
     1   115   114    2
     2   114   113    1
     3   113   112    1
     4   113   116    1
     5   140   139    2
     6   116   117    1
     7   139   138    1
     8    26    23    1
     9   117   118    1
    10   138   141    1
    11   138   137    1
    12   132   131    2
    13   118   119    1
    14    23    22    1
    15    23    24    1
    16   141   142    1
    17   137   131   am
    18   131   130    1
    19   143   142   ar
    20   142   144   ar
    21    24    25    2
    22    24    27   am
    23     1     2    1
    24   119   120    1
    25   130   129    1
    26   130   133    1
    27    27    28    1
    28   133   134    1
    29     2     5    1
    30     2     3    1
    31    30    29    2
    32   121   122    1
    33    28    29    1
    34    28    31    1
    35   134   135    2
    36   134   136   am
    37    29    34   am
    38     4     3    2
    39   122   123    1
    40   122   125    1
    41     3     6   am
    42   123   124    2
    43    33    31    1
    44    31    32    1
    45    34    35    1
    46     6     7    1
    47    35    36    1
    48   125   126    1
    49    41    40    2
    50   127   126   ar
    51   106   105    2
    52    36    37    2
    53    36    38   am
    54   126   128   ar
    55     7    10    1
    56     7     8    1
    57    79    77    1
    58    38    39    1
    59   105   104    1
    60    10    11    1
    61    40    39    1
    62   110   109   ar
    63    12    11    1
    64   107   104    1
    65   107   108    1
    66     8     9    2
    67     8    14   am
    68    77    74    1
    69    77    78    1
    70    39    42    1
    71    74    73    1
    72    74    75    1
    73    11    13    1
    74    17    16    2
    75   104   103    1
    76   109   108    1
    77   109   111   ar
    78    76    75    2
    79    42    43    1
    80    14    15    1
    81    75    80   am
    82    16    15    1
    83    43    44    1
    84    15    18    1
    85    44    45    1
    86    80    81    1
    87    20    19   ar
    88    18    19    1
    89    45    46    2
    90    19    21   ar
    91    81    84    1
    92    81    82    1
    93    94    93    2
    94    65    66    1
    95    84    85    1
    96    66    69    1
    97    66    67    1
    98    86    85   ar
    99    86    88   ar
   100    71    70    1
   101    69    70    1
   102    93    92    1
   103    85    87   ar
   104    46    47    1
   105    46    48    1
   106    70    72    1
   107    82    83    2
   108    63    62   ar
   109    88    90   ar
   110    95    92    1
   111    95    96    1
   112    67    68    2
   113    92    91    1
   114    64    62   ar
   115    98    96   ar
   116    98   100   ar
   117    62    61    1
   118    87    89   ar
   119    96    97   ar
   120    90    89   ar
   121   100   101   ar
   122    61    60    1
   123    97    99   ar
   124    59    58    2
   125   101    99   ar
   126   101   102    1
   127    60    57    1
   128    57    58    1
   129    57    56    1
   130    54    53    1
   131    52    51    2
   132    56    51   am
   133    51    50    1
   134    53    50    1
   135    53    55    1
   136    50    49    1
