@<TRIPOS>MOLECULE
tmp/4zf6A01.pdb
 195 179 0 0 0
SMALL
GASTEIGER

@<TRIPOS>ATOM
      1  N        -30.2040   14.0240   32.0180 N.3    20  LEU20      -0.1245
      2  CA       -29.3700   13.3050   31.0600 C.3    20  LEU20       0.1561
      3  C        -30.1420   12.9190   29.7980 C.2    20  LEU20       0.2260
      4  O        -29.7390   12.0130   29.0660 O.2    20  LEU20      -0.2867
      5  CB       -28.7670   12.0500   31.7020 C.3    20  LEU20       0.0270
      6  CG       -27.7540   12.2340   32.8360 C.3    20  LEU20       0.0019
      7  CD1      -27.0850   10.9110   33.1870 C.3    20  LEU20       0.0001
      8  CD2      -26.7160   13.2810   32.4780 C.3    20  LEU20       0.0001
      9  N        -24.2470   13.3470   27.3190 N.3    25  PRO25      -0.2102
     10  CA       -24.4520   13.3440   28.7730 C.3    25  PRO25       0.1504
     11  C        -23.2040   13.6540   29.6020 C.2    25  PRO25       0.2575
     12  O        -23.3340   14.3030   30.6380 O.2    25  PRO25      -0.2718
     13  CB       -24.9330   11.9170   29.0480 C.3    25  PRO25       0.0282
     14  CG       -24.3040   11.1060   27.9780 C.3    25  PRO25       0.0208
     15  CD       -24.2760   11.9830   26.7590 C.3    25  PRO25       0.0893
     16  N        -22.0300   13.1960   29.1750 N.am   26  VAL26      -0.1980
     17  CA       -20.8010   13.4820   29.9170 C.3    26  VAL26       0.1595
     18  C        -20.5190   14.9850   29.9210 C.2    26  VAL26       0.2287
     19  O        -20.1240   15.5500   30.9410 O.2    26  VAL26      -0.2864
     20  CB       -19.5870   12.7230   29.3340 C.3    26  VAL26       0.0276
     21  CG1      -18.2790   13.2990   29.8580 C.3    26  VAL26       0.0022
     22  CG2      -19.6830   11.2400   29.6520 C.3    26  VAL26       0.0022
     23  N        -22.7560   16.3880   32.4160 N.3    29  LEU29      -0.1245
     24  CA       -22.3310   16.2080   33.7960 C.3    29  LEU29       0.1561
     25  C        -21.2410   17.2290   34.0980 C.2    29  LEU29       0.2260
     26  O        -21.0290   17.6180   35.2430 O.2    29  LEU29      -0.2867
     27  CB       -21.8600   14.7760   34.0350 C.3    29  LEU29       0.0270
     28  CG       -23.0150   13.7820   33.8820 C.3    29  LEU29       0.0019
     29  CD1      -22.5020   12.3680   33.7140 C.3    29  LEU29       0.0001
     30  CD2      -23.9720   13.8700   35.0630 C.3    29  LEU29       0.0001
     31  N        -20.7180   12.1760   41.8340 N.3    51  TYR51      -0.1241
     32  CA       -19.7740   12.5900   40.8040 C.3    51  TYR51       0.1605
     33  C        -18.6730   13.4700   41.3940 C.2    51  TYR51       0.2264
     34  O        -18.9450   14.5310   41.9570 O.2    51  TYR51      -0.2867
     35  CB       -20.5020   13.3180   39.6700 C.3    51  TYR51       0.0534
     36  CG       -21.1400   12.3830   38.6650 C.ar   51  TYR51      -0.0201
     37  CD1      -22.4570   11.9590   38.8110 C.ar   51  TYR51      -0.0009
     38  CD2      -20.4220   11.9170   37.5710 C.ar   51  TYR51      -0.0009
     39  CE1      -23.0400   11.0970   37.8910 C.ar   51  TYR51       0.0417
     40  CE2      -20.9960   11.0560   36.6480 C.ar   51  TYR51       0.0417
     41  CZ       -22.3030   10.6490   36.8120 C.ar   51  TYR51       0.1957
     42  OH       -22.8700    9.7920   35.8920 O.3    51  TYR51      -0.2866
     43  N        -20.4060    0.6750   36.6640 N.3    72  SER72      -0.1217
     44  CA       -21.4700    1.6700   36.5270 C.3    72  SER72       0.1889
     45  C        -22.6370    1.0530   35.7740 C.2    72  SER72       0.2288
     46  O        -22.5150   -0.0470   35.2350 O.2    72  SER72      -0.2866
     47  CB       -20.9690    2.9140   35.7960 C.3    72  SER72       0.2089
     48  OG       -20.6380    2.6090   34.4510 O.3    72  SER72      -0.2183
     49  N        -23.6720    1.8860   33.0220 N.3    74  ALA74      -0.1231
     50  CA       -23.1710    1.7720   31.6550 C.3    74  ALA74       0.1694
     51  C        -22.4710    0.4370   31.4340 C.2    74  ALA74       0.2591
     52  O        -22.8590   -0.3340   30.5580 O.2    74  ALA74      -0.2718
     53  CB       -22.2240    2.9210   31.3330 C.3    74  ALA74       0.0304
     54  N        -21.4410    0.1650   32.2300 N.am   75  LEU75      -0.1980
     55  CA       -20.6980   -1.0840   32.1060 C.3    75  LEU75       0.1596
     56  C        -21.5750   -2.3150   32.3410 C.2    75  LEU75       0.2287
     57  O        -21.3330   -3.3680   31.7490 O.2    75  LEU75      -0.2864
     58  CB       -19.5110   -1.0980   33.0730 C.3    75  LEU75       0.0297
     59  CG       -18.2660   -0.3250   32.6380 C.3    75  LEU75       0.0022
     60  CD1      -17.1410   -0.5430   33.6340 C.3    75  LEU75       0.0001
     61  CD2      -17.8320   -0.7350   31.2370 C.3    75  LEU75       0.0001
     62  N        -22.9900   -2.8020   29.0480 N.3    78  VAL78      -0.1245
     63  CA       -21.9500   -3.2230   28.1060 C.3    78  VAL78       0.1561
     64  C        -21.6340   -4.7010   28.3090 C.2    78  VAL78       0.2260
     65  O        -21.2270   -5.4060   27.3870 O.2    78  VAL78      -0.2867
     66  CB       -20.6650   -2.3830   28.2700 C.3    78  VAL78       0.0252
     67  CG1      -19.6150   -2.7920   27.2490 C.3    78  VAL78       0.0019
     68  CG2      -20.9780   -0.9100   28.1290 C.3    78  VAL78       0.0019
     69  N        -19.8150   -7.6300   26.2110 N.3    82  ALA82      -0.1245
     70  CA       -18.4710   -8.1010   26.5320 C.3    82  ALA82       0.1562
     71  C        -18.4210   -9.1210   27.6730 C.2    82  ALA82       0.2260
     72  O        -17.3390   -9.5850   28.0350 O.2    82  ALA82      -0.2867
     73  CB       -17.5820   -6.9190   26.8640 C.3    82  ALA82       0.0290
     74  N        -12.7080   -5.7320   31.0500 N.3    87  VAL87      -0.1231
     75  CA       -13.2180   -4.3930   31.3430 C.3    87  VAL87       0.1692
     76  C        -14.5070   -4.4230   32.1620 C.2    87  VAL87       0.2592
     77  O        -14.7170   -3.5800   33.0330 O.2    87  VAL87      -0.2718
     78  CB       -13.4750   -3.5940   30.0440 C.3    87  VAL87       0.0266
     79  CG1      -13.9280   -2.1800   30.3600 C.3    87  VAL87       0.0020
     80  CG2      -12.2300   -3.5610   29.1870 C.3    87  VAL87       0.0020
     81  N        -15.3640   -5.4020   31.8860 N.am   88  THR88      -0.1953
     82  CA       -16.7130   -5.4200   32.4500 C.3    88  THR88       0.1897
     83  C        -16.9500   -6.4820   33.5300 C.2    88  THR88       0.2313
     84  O        -18.0950   -6.8160   33.8260 O.2    88  THR88      -0.2863
     85  CB       -17.7660   -5.6260   31.3380 C.3    88  THR88       0.1794
     86  OG1      -17.2900   -6.6020   30.4040 O.3    88  THR88      -0.2208
     87  CG2      -18.0290   -4.3240   30.6010 C.3    88  THR88       0.0378
     88  N        -23.1720   -0.0950   21.1980 N.3   181  LEU181     -0.1245
     89  CA       -22.6950    0.7420   22.2940 C.3   181  LEU181      0.1561
     90  C        -23.6070    1.9490   22.4800 C.2   181  LEU181      0.2260
     91  O        -23.7710    2.4470   23.5980 O.2   181  LEU181     -0.2867
     92  CB       -21.2530    1.1960   22.0480 C.3   181  LEU181      0.0270
     93  CG       -20.1550    0.1510   22.2720 C.3   181  LEU181      0.0019
     94  CD1      -18.7890    0.7160   21.9220 C.3   181  LEU181      0.0001
     95  CD2      -20.1720   -0.3530   23.7030 C.3   181  LEU181      0.0001
     96  N        -25.5960    3.0950   26.0230 N.3   185  MET185     -0.1245
     97  CA       -25.6300    4.4610   26.5400 C.3   185  MET185      0.1570
     98  C        -27.0630    4.9830   26.6150 C.2   185  MET185      0.2261
     99  O        -27.4760    5.5510   27.6270 O.2   185  MET185     -0.2867
    100  CB       -24.7780    5.3920   25.6710 C.3   185  MET185      0.0387
    101  CG       -24.6910    6.8290   26.1800 C.3   185  MET185      0.0595
    102  SD       -23.9310    7.9630   24.9940 S.3   185  MET185     -0.1393
    103  CE       -25.1190    7.8910   23.6520 C.3   185  MET185      0.0692
    104  N        -29.6880    3.9960   29.4000 N.3   188  GLN188     -0.1245
    105  CA       -29.5540    4.6080   30.7180 C.3   188  GLN188      0.1566
    106  C        -30.6630    5.6200   31.0090 C.2   188  GLN188      0.2260
    107  O        -30.8250    6.0510   32.1530 O.2   188  GLN188     -0.2867
    108  CB       -28.1900    5.2940   30.8590 C.3   188  GLN188      0.0367
    109  CG       -26.9990    4.3460   30.9260 C.3   188  GLN188      0.0905
    110  CD       -25.6970    5.0670   31.2280 C.2   188  GLN188      0.2608
    111  OE1      -25.3030    5.2040   32.3880 O.2   188  GLN188     -0.2717
    112  NE2      -25.0220    5.5340   30.1820 N.am  188  GLN188     -0.0878
    113  N        -13.7880   -7.8290   23.8550 N.3   260  THR260     -0.1218
    114  CA       -13.2620   -6.7770   24.7190 C.3   260  THR260      0.1862
    115  C        -12.0940   -6.0540   24.0610 C.2   260  THR260      0.2287
    116  O        -12.1270   -4.8400   23.8840 O.2   260  THR260     -0.2866
    117  CB       -12.7960   -7.3340   26.0860 C.3   260  THR260      0.1770
    118  OG1      -13.9240   -7.8240   26.8170 O.3   260  THR260     -0.2211
    119  CG2      -12.1290   -6.2500   26.9060 C.3   260  THR260      0.0375
    120  N        -12.7700   -4.0550   20.7730 N.3   263  ILE263     -0.1231
    121  CA       -13.4360   -2.7870   21.0450 C.3   263  ILE263      0.1692
    122  C        -12.5350   -1.8650   21.8580 C.2   263  ILE263      0.2591
    123  O        -12.1410   -0.7960   21.3850 O.2   263  ILE263     -0.2718
    124  CB       -14.7720   -2.9980   21.8000 C.3   263  ILE263      0.0266
    125  CG1      -15.7540   -3.8030   20.9470 C.3   263  ILE263      0.0019
    126  CG2      -15.3890   -1.6690   22.2070 C.3   263  ILE263      0.0020
    127  CD1      -17.1050   -4.0130   21.6110 C.3   263  ILE263      0.0001
    128  N        -12.2080   -2.2900   23.0780 N.am  264  ALA264     -0.1980
    129  CA       -11.4270   -1.4800   24.0160 C.3   264  ALA264      0.1597
    130  C        -10.0830   -1.0680   23.4390 C.2   264  ALA264      0.2287
    131  O         -9.5500   -0.0100   23.7770 O.2   264  ALA264     -0.2864
    132  CB       -11.2170   -2.2360   25.3220 C.3   264  ALA264      0.0319
    133  N        -11.2530    2.0920   20.1060 N.3   267  VAL267     -0.1231
    134  CA       -12.1980    3.2130   20.0410 C.3   267  VAL267      0.1692
    135  C        -11.6530    4.4630   20.7210 C.2   267  VAL267      0.2592
    136  O        -11.9170    5.5860   20.2820 O.2   267  VAL267     -0.2718
    137  CB       -13.5740    2.8660   20.6640 C.3   267  VAL267      0.0266
    138  CG1      -14.2930    1.8300   19.8160 C.3   267  VAL267      0.0020
    139  CG2      -13.4180    2.3830   22.0970 C.3   267  VAL267      0.0020
    140  N        -10.8810    4.2570   21.7810 N.am  268  THR268     -0.1953
    141  CA       -10.3490    5.3550   22.5780 C.3   268  THR268      0.1897
    142  C         -9.0500    5.8940   21.9890 C.2   268  THR268      0.2313
    143  O         -8.6940    7.0510   22.2120 O.2   268  THR268     -0.2863
    144  CB       -10.1110    4.9130   24.0390 C.3   268  THR268      0.1794
    145  OG1       -9.6310    3.5610   24.0530 O.3   268  THR268     -0.2208
    146  CG2      -11.4030    4.9880   24.8440 C.3   268  THR268      0.0378
    147  N        -11.8700    7.9280   27.2090 N.3   328  ALA328     -0.1231
    148  CA       -12.6500    7.1760   28.1870 C.3   328  ALA328      0.1679
    149  C        -12.9440    8.1260   29.3370 C.2   328  ALA328      0.2434
    150  O        -12.1620    8.2180   30.2770 O.2   328  ALA328     -0.2733
    151  CB       -11.8970    5.9500   28.6670 C.3   328  ALA328      0.0304
    152  N        -14.0720    8.8480   29.2550 N.am  329  PRO329     -0.2718
    153  CA       -14.3170   10.0500   30.0630 C.3   329  PRO329      0.1535
    154  C        -14.6890    9.8150   31.5280 C.2   329  PRO329      0.2598
    155  O        -14.8610   10.7910   32.2560 O.2   329  PRO329     -0.2715
    156  CB       -15.4850   10.7140   29.3290 C.3   329  PRO329      0.0310
    157  CG       -16.2400    9.5730   28.7530 C.3   329  PRO329      0.0237
    158  CD       -15.2050    8.5500   28.3620 C.3   329  PRO329      0.0939
    159  N        -14.8030    8.5630   31.9570 N.am  330  ALA330     -0.1978
    160  CA       -15.2440    8.2780   33.3170 C.3   330  ALA330      0.1597
    161  C        -15.0520    6.8170   33.7020 C.2   330  ALA330      0.2287
    162  O        -15.1550    5.9200   32.8640 O.2   330  ALA330     -0.2864
    163  CB       -16.7040    8.6680   33.4860 C.3   330  ALA330      0.0319
    164  N        -18.4110    8.2210   40.9240 N.3   354  MET354     -0.1245
    165  CA       -18.0190    8.4040   39.5280 C.3   354  MET354      0.1570
    166  C        -16.8870    9.4180   39.4400 C.2   354  MET354      0.2261
    167  O        -17.0390   10.5560   39.8860 O.2   354  MET354     -0.2867
    168  CB       -19.1960    8.8800   38.6690 C.3   354  MET354      0.0387
    169  CG       -20.2740    7.8470   38.3520 C.3   354  MET354      0.0595
    170  SD       -19.7170    6.4590   37.3400 S.3   354  MET354     -0.1393
    171  CE       -18.8020    7.3130   36.0670 C.3   354  MET354      0.0692
    172  N        -20.7360   11.3300   21.7420 N.3   435  GLU435     -0.1245
    173  CA       -20.5750   10.3200   22.7840 C.3   435  GLU435      0.1567
    174  C        -21.2540    8.9890   22.4430 C.2   435  GLU435      0.2260
    175  O        -22.4630    8.9340   22.2250 O.2   435  GLU435     -0.2867
    176  CB       -21.1260   10.8420   24.1080 C.3   435  GLU435      0.0388
    177  CG       -20.6060   12.2120   24.5020 C.3   435  GLU435      0.1160
    178  CD       -20.9930   12.5940   25.9190 C.2   435  GLU435      0.3649
    179  OE1      -21.2190   11.6820   26.7420 O.co2 435  GLU435     -0.2457
    180  OE2      -21.0710   13.8040   26.2130 O.co2 435  GLU435     -0.2457
    181  N        -20.6210    6.3770   24.7390 N.3   437  LEU437     -0.1231
    182  CA       -19.8750    6.1150   25.9800 C.3   437  LEU437      0.1693
    183  C        -18.4950    6.7680   25.9090 C.2   437  LEU437      0.2592
    184  O        -18.1460    7.5910   26.7550 O.2   437  LEU437     -0.2718
    185  CB       -19.7410    4.6180   26.2720 C.3   437  LEU437      0.0284
    186  CG       -21.0350    3.8410   26.5120 C.3   437  LEU437      0.0019
    187  CD1      -20.7140    2.3790   26.7370 C.3   437  LEU437      0.0001
    188  CD2      -21.8110    4.4150   27.6920 C.3   437  LEU437      0.0001
    189  N        -17.7200    6.4010   24.8930 N.am  438  THR438     -0.1953
    190  CA       -16.4290    7.0260   24.6300 C.3   438  THR438      0.1897
    191  C        -16.5890    8.3670   23.9110 C.2   438  THR438      0.2313
    192  O        -17.6740    8.6990   23.4330 O.2   438  THR438     -0.2863
    193  CB       -15.5300    6.1080   23.7840 C.3   438  THR438      0.1794
    194  OG1      -16.2510    5.6750   22.6200 O.3   438  THR438     -0.2208
    195  CG2      -15.1010    4.8930   24.5960 C.3   438  THR438      0.0378
@<TRIPOS>BOND
     1   138   137    1
     2   134   133    1
     3   134   137    1
     4   134   135    1
     5   136   135    2
     6   137   139    1
     7   135   140   am
     8   120   121    1
     9   125   127    1
    10   125   124    1
    11   121   124    1
    12   121   122    1
    13    88    89    1
    14   123   122    2
    15   172   173    1
    16   140   141    1
    17   124   126    1
    18   122   128   am
    19    94    93    1
    20   142   143    2
    21   142   141    1
    22    92    93    1
    23    92    89    1
    24   175   174    2
    25    93    95    1
    26    89    90    1
    27   174   173    1
    28    90    91    2
    29   141   144    1
    30   194   193    1
    31   173   176    1
    32   128   129    1
    33   192   191    2
    34   130   131    2
    35   130   129    1
    36   103   102    1
    37   193   195    1
    38   193   190    1
    39   113   114    1
    40   116   115    2
    41   191   190    1
    42   129   132    1
    43   144   145    1
    44   144   146    1
    45   115   114    1
    46   176   177    1
    47   177   178    1
    48   190   189    1
    49   114   117    1
    50   181   182    1
    51   189   183   am
    52   102   101    1
    53   100   101    1
    54   100    97    1
    55   183   182    1
    56   183   184    2
    57   178   180   ar
    58   178   179   ar
    59   182   185    1
    60    96    97    1
    61   117   118    1
    62   117   119    1
    63    69    70    1
    64   185   186    1
    65   186   187    1
    66   186   188    1
    67    70    73    1
    68    70    71    1
    69    97    98    1
    70    98    99    2
    71    15     9    1
    72    15    14    1
    73   147   148    1
    74    67    66    1
    75     9    10    1
    76    65    64    2
    77    71    72    2
    78    14    13    1
    79    63    66    1
    80    63    64    1
    81    63    62    1
    82    68    66    1
    83   148   151    1
    84   148   149    1
    85   158   157    1
    86   158   152    1
    87   157   156    1
    88    10    13    1
    89    10    11    1
    90     4     3    2
    91    16    11   am
    92    16    17    1
    93    80    78    1
    94   152   149   am
    95   152   153    1
    96   156   153    1
    97    20    22    1
    98    20    21    1
    99    20    17    1
   100   149   150    2
   101   104   105    1
   102    11    12    2
   103     3     2    1
   104    17    18    1
   105    18    19    2
   106    78    79    1
   107    78    75    1
   108   153   154    1
   109   112   110   am
   110    86    85    1
   111    52    51    2
   112    87    85    1
   113   105   108    1
   114   105   106    1
   115   108   109    1
   116   109   110    1
   117   106   107    2
   118    74    75    1
   119     2     5    1
   120     2     1    1
   121   110   111    2
   122    61    59    1
   123    53    50    1
   124    85    82    1
   125    75    76    1
   126    51    50    1
   127    51    54   am
   128   154   159   am
   129   154   155    2
   130    50    49    1
   131     5     6    1
   132    57    56    2
   133    81    76   am
   134    81    82    1
   135   159   160    1
   136    55    54    1
   137    55    56    1
   138    55    58    1
   139    76    77    2
   140    23    24    1
   141    82    83    1
   142     8     6    1
   143    59    58    1
   144    59    60    1
   145     6     7    1
   146   162   161    2
   147   160   163    1
   148   160   161    1
   149    83    84    2
   150    29    28    1
   151    24    27    1
   152    24    25    1
   153    28    27    1
   154    28    30    1
   155    25    26    2
   156    48    47    1
   157    46    45    2
   158    45    44    1
   159    47    44    1
   160    42    41    1
   161   171   170    1
   162    44    43    1
   163    40    41   ar
   164    40    38   ar
   165    41    39   ar
   166   170   169    1
   167    38    36   ar
   168    39    37   ar
   169   169   168    1
   170    36    37   ar
   171    36    35    1
   172   168   165    1
   173   166   165    1
   174   166   167    2
   175   165   164    1
   176    35    32    1
   177    32    33    1
   178    32    31    1
   179    33    34    2
