@<TRIPOS>MOLECULE
tmp/4zf7B00.pdb
 96 92 0 0 0
SMALL
GASTEIGER

@<TRIPOS>ATOM
      1  N         47.6070   -5.3410   -3.2730 N.3    60  GLU60      -0.1245
      2  CA        48.2460   -6.2680   -4.2120 C.3    60  GLU60       0.1567
      3  C         49.7330   -5.9760   -4.4230 C.2    60  GLU60       0.2260
      4  O         50.5200   -6.8920   -4.6520 O.2    60  GLU60      -0.2867
      5  CB        47.5010   -6.2520   -5.5550 C.3    60  GLU60       0.0388
      6  CG        46.0820   -6.8470   -5.3600 C.3    60  GLU60       0.1160
      7  CD        45.2190   -6.8080   -6.6040 C.2    60  GLU60       0.3649
      8  OE1       45.7270   -6.5570   -7.7250 O.co2  60  GLU60      -0.2457
      9  OE2       43.9930   -6.9900   -6.4700 O.co2  60  GLU60      -0.2457
     10  N         51.7450   -7.5420   -1.6110 N.3    63  LEU63      -0.1231
     11  CA        51.9600   -8.9760   -1.8430 C.3    63  LEU63       0.1693
     12  C         52.9710   -9.2270   -2.9530 C.2    63  LEU63       0.2592
     13  O         53.8340  -10.0920   -2.8220 O.2    63  LEU63      -0.2718
     14  CB        50.6500   -9.7010   -2.1550 C.3    63  LEU63       0.0284
     15  CG        49.6180   -9.6210   -1.0080 C.3    63  LEU63       0.0019
     16  CD1       48.2500  -10.1510   -1.4700 C.3    63  LEU63       0.0001
     17  CD2       50.1510  -10.3560    0.2680 C.3    63  LEU63       0.0001
     18  N         52.8940   -8.4620   -4.0320 N.am   64  TYR64      -0.1976
     19  CA        53.8860   -8.5910   -5.0770 C.3    64  TYR64       0.1639
     20  C         55.3160   -8.4190   -4.5480 C.2    64  TYR64       0.2290
     21  O         56.2300   -9.1770   -4.8990 O.2    64  TYR64      -0.2864
     22  CB        53.5980   -7.5790   -6.1780 C.3    64  TYR64       0.0560
     23  CG        54.6480   -7.5130   -7.2350 C.ar   64  TYR64      -0.0198
     24  CD1       54.8570   -8.5750   -8.1160 C.ar   64  TYR64      -0.0009
     25  CD2       55.4350   -6.3870   -7.3740 C.ar   64  TYR64      -0.0009
     26  CE1       55.8710   -8.5030   -9.1080 C.ar   64  TYR64       0.0417
     27  CE2       56.4030   -6.3020   -8.3620 C.ar   64  TYR64       0.0417
     28  CZ        56.6230   -7.3490   -9.2100 C.ar   64  TYR64       0.1957
     29  OH        57.6140   -7.2190  -10.1670 O.3    64  TYR64      -0.2866
     30  N         57.2840  -11.1350   -2.3320 N.3    67  GLN67      -0.1231
     31  CA        57.9760  -12.1980   -3.0580 C.3    67  GLN67       0.1698
     32  C         57.8130  -13.5540   -2.3590 C.2    67  GLN67       0.2592
     33  O         58.7680  -14.2740   -2.1860 O.2    67  GLN67      -0.2718
     34  CB        59.4700  -11.8850   -3.2050 C.3    67  GLN67       0.0381
     35  CG        59.8100  -10.5500   -3.8500 C.3    67  GLN67       0.0905
     36  CD        59.8980  -10.6160   -5.3630 C.2    67  GLN67       0.2608
     37  OE1       58.8700  -10.6590   -6.0580 O.2    67  GLN67      -0.2717
     38  NE2       61.1280  -10.6080   -5.8870 N.am   67  GLN67      -0.0878
     39  N         56.6030  -13.8750   -1.9400 N.am   68  SER68      -0.1952
     40  CA        56.3720  -15.1770   -1.3340 C.3    68  SER68       0.1924
     41  C         56.5710  -16.2910   -2.3590 C.2    68  SER68       0.2314
     42  O         56.0520  -16.2120   -3.4750 O.2    68  SER68      -0.2863
     43  CB        54.9590  -15.2500   -0.7620 C.3    68  SER68       0.2116
     44  OG        54.6530  -16.6120   -0.4670 O.3    68  SER68      -0.2180
     45  N         52.9240  -17.9280   -3.0690 N.3    71  PHE71      -0.1227
     46  CA        51.7560  -17.0910   -3.2400 C.3    71  PHE71       0.1736
     47  C         51.1680  -17.1270   -4.6540 C.2    71  PHE71       0.2595
     48  O         49.9230  -17.1700   -4.8280 O.2    71  PHE71      -0.2718
     49  CB        52.0340  -15.6280   -2.8570 C.3    71  PHE71       0.0547
     50  CG        50.7860  -14.7720   -3.0260 C.ar   71  PHE71      -0.0202
     51  CD1       49.7100  -14.9450   -2.1470 C.ar   71  PHE71      -0.0042
     52  CD2       50.6660  -13.8540   -4.0760 C.ar   71  PHE71      -0.0042
     53  CE1       48.5510  -14.2200   -2.2780 C.ar   71  PHE71      -0.0003
     54  CE2       49.4740  -13.0830   -4.2240 C.ar   71  PHE71      -0.0003
     55  CZ        48.4230  -13.2660   -3.3190 C.ar   71  PHE71      -0.0000
     56  N         52.0270  -17.1320   -5.6750 N.am   72  HIS72      -0.1975
     57  CA        51.5230  -17.1190   -7.0570 C.3    72  HIS72       0.1656
     58  C         50.6870  -18.3600   -7.4190 C.2    72  HIS72       0.2291
     59  O         49.9160  -18.2880   -8.3680 O.2    72  HIS72      -0.2864
     60  CB        52.6620  -16.9590   -8.1000 C.3    72  HIS72       0.0771
     61  CG        53.5280  -18.1580   -8.2370 C.ar   72  HIS72       0.0820
     62  ND1       54.5310  -18.4570   -7.3400 N.ar   72  HIS72      -0.2267
     63  CD2       53.5400  -19.1450   -9.1670 C.ar   72  HIS72       0.1154
     64  CE1       55.1180  -19.5830   -7.7060 C.ar   72  HIS72       0.1986
     65  NE2       54.5340  -20.0230   -8.8080 N.ar   72  HIS72      -0.2212
     66  N         45.5060  -15.5780   -5.1870 N.3    77  LYS77      -0.1245
     67  CA        46.1580  -14.8120   -6.2900 C.3    77  LYS77       0.1561
     68  C         45.2050  -14.7730   -7.4990 C.2    77  LYS77       0.2260
     69  O         44.9420  -13.7440   -8.1040 O.2    77  LYS77      -0.2867
     70  CB        47.5000  -15.4640   -6.6510 C.3    77  LYS77       0.0271
     71  CG        48.1610  -14.9640   -7.9350 C.3    77  LYS77       0.0035
     72  CD        48.4690  -13.4980   -7.8560 C.3    77  LYS77       0.0206
     73  CE        49.3190  -13.0200   -9.0520 C.3    77  LYS77       0.1093
     74  NZ        48.6340  -13.4350  -10.2550 N.3    77  LYS77      -0.1314
     75  N         42.1910  -12.5340   -6.7770 N.3    80  MET80      -0.1230
     76  CA        42.5330  -11.1270   -6.9320 C.3    80  MET80       0.1702
     77  C         42.6000  -10.7010   -8.3890 C.2    80  MET80       0.2593
     78  O         42.1400   -9.6160   -8.7470 O.2    80  MET80      -0.2718
     79  CB        43.8610  -10.8520   -6.2210 C.3    80  MET80       0.0401
     80  CG        43.5940  -10.7460   -4.7370 C.3    80  MET80       0.0596
     81  SD        45.2140  -10.5790   -3.8750 S.3    80  MET80      -0.1393
     82  CE        44.3990  -10.2130   -2.4010 C.3    80  MET80       0.0692
     83  N         43.1650  -11.5400   -9.2420 N.am   81  SER81      -0.1952
     84  CA        43.1510  -11.2060  -10.6670 C.3    81  SER81       0.1924
     85  C         41.7310  -11.0580  -11.1900 C.2    81  SER81       0.2314
     86  O         41.4070  -10.0900  -11.9200 O.2    81  SER81      -0.2863
     87  CB        43.8860  -12.2570  -11.4700 C.3    81  SER81       0.2116
     88  OG        45.2060  -12.3010  -11.0050 O.3    81  SER81      -0.2180
     89  N         40.1510   -7.8650   -9.9610 N.3    84  ASN84      -0.1240
     90  CA        40.6330   -6.7240  -10.7560 C.3    84  ASN84       0.1653
     91  C         39.8520   -6.6210  -12.0710 C.2    84  ASN84       0.2266
     92  O         39.4460   -5.5330  -12.4850 O.2    84  ASN84      -0.2867
     93  CB        42.1150   -6.8520  -11.0780 C.3    84  ASN84       0.1155
     94  CG        43.0140   -6.7730   -9.8250 C.2    84  ASN84       0.2627
     95  OD1       42.5920   -6.3420   -8.7280 O.2    84  ASN84      -0.2716
     96  ND2       44.3110   -7.1140  -10.0240 N.am   84  ASN84      -0.0877
@<TRIPOS>BOND
     1    92    91    2
     2    91    90    1
     3    86    85    2
     4    87    88    1
     5    87    84    1
     6    85    84    1
     7    93    90    1
     8    93    94    1
     9    90    89    1
    10    84    83    1
    11    74    73    1
    12    29    28    1
    13    96    94   am
    14    94    95    2
    15    83    77   am
    16    28    26   ar
    17    28    27   ar
    18    63    65   ar
    19    63    61   ar
    20    26    24   ar
    21    73    72    1
    22    65    64   ar
    23    78    77    2
    24    77    76    1
    25    59    58    2
    26    27    25   ar
    27    61    60    1
    28    61    62   ar
    29    24    23   ar
    30    69    68    2
    31    60    57    1
    32    71    72    1
    33    71    70    1
    34     8     7   ar
    35    64    62   ar
    36    68    67    1
    37    58    57    1
    38    25    23   ar
    39    23    22    1
    40    57    56    1
    41    76    75    1
    42    76    79    1
    43    70    67    1
    44     7     9   ar
    45     7     6    1
    46    67    66    1
    47    79    80    1
    48    22    19    1
    49    37    36    2
    50    38    36   am
    51    56    47   am
    52     5     6    1
    53     5     2    1
    54    36    35    1
    55    19    20    1
    56    19    18    1
    57    21    20    2
    58    48    47    2
    59    80    81    1
    60    47    46    1
    61     4     3    2
    62     3     2    1
    63    54    52   ar
    64    54    55   ar
    65     2     1    1
    66    52    50   ar
    67    18    12   am
    68    81    82    1
    69    35    34    1
    70    42    41    2
    71    55    53   ar
    72    46    45    1
    73    46    49    1
    74    34    31    1
    75    31    32    1
    76    31    30    1
    77    50    49    1
    78    50    51   ar
    79    12    13    2
    80    12    11    1
    81    41    40    1
    82    32    33    2
    83    32    39   am
    84    53    51   ar
    85    14    11    1
    86    14    15    1
    87    39    40    1
    88    11    10    1
    89    16    15    1
    90    40    43    1
    91    15    17    1
    92    43    44    1
