@<TRIPOS>MOLECULE
tmp/4zf7A00.pdb
 93 89 0 0 0
SMALL
GASTEIGER

@<TRIPOS>ATOM
      1  N         31.1360  -37.0430    5.4710 N.3    40  MET40      -0.1231
      2  CA        31.8470  -36.4960    4.3020 C.3    40  MET40       0.1687
      3  C         33.3650  -36.8500    4.3210 C.2    40  MET40       0.2434
      4  O         33.9400  -37.2370    5.3560 O.2    40  MET40      -0.2733
      5  CB        31.6640  -34.9630    4.2550 C.3    40  MET40       0.0400
      6  CG        32.5910  -34.2370    5.2560 C.3    40  MET40       0.0596
      7  SD        32.6860  -32.4700    4.7910 S.3    40  MET40      -0.1393
      8  CE        33.5550  -32.4860    3.2190 C.3    40  MET40       0.0692
      9  N         34.0200  -36.7190    3.1640 N.am   41  PRO41      -0.2718
     10  CA        35.4010  -37.1450    3.0150 C.3    41  PRO41       0.1535
     11  C         36.3570  -36.3250    3.8780 C.2    41  PRO41       0.2598
     12  O         36.0530  -35.1440    4.1010 O.2    41  PRO41      -0.2715
     13  CB        35.6830  -36.8700    1.5360 C.3    41  PRO41       0.0310
     14  CG        34.3170  -36.9890    0.8740 C.3    41  PRO41       0.0237
     15  CD        33.4530  -36.2680    1.8710 C.3    41  PRO41       0.0939
     16  N         37.4420  -36.9470    4.3080 N.am   42  LYS42      -0.1964
     17  CA        38.6940  -36.2300    4.6540 C.3    42  LYS42       0.1728
     18  C         39.5650  -35.9300    3.4060 C.2    42  LYS42       0.2616
     19  O         39.2720  -36.4080    2.2820 O.2    42  LYS42      -0.2715
     20  CB        39.4950  -37.0680    5.6580 C.3    42  LYS42       0.0311
     21  CG        38.6690  -37.6790    6.7350 C.3    42  LYS42       0.0038
     22  CD        39.4650  -38.6310    7.6360 C.3    42  LYS42       0.0206
     23  CE        40.4640  -37.9010    8.5280 C.3    42  LYS42       0.1093
     24  NZ        41.1750  -38.8140    9.4680 N.3    42  LYS42      -0.1314
     25  N         40.5820  -35.0790    3.5540 N.am   43  LYS43      -0.1977
     26  CA        41.8480  -35.3300    2.8490 C.3    43  LYS43       0.1596
     27  C         41.8080  -35.1320    1.2970 C.2    43  LYS43       0.2287
     28  O         42.6140  -35.7230    0.5360 O.2    43  LYS43      -0.2864
     29  CB        42.2510  -36.7620    3.2150 C.3    43  LYS43       0.0298
     30  CG        43.5470  -37.3910    2.7510 C.3    43  LYS43       0.0038
     31  CD        44.7870  -36.7930    3.3880 C.3    43  LYS43       0.0206
     32  CE        46.0480  -37.5210    3.0090 C.3    43  LYS43       0.1093
     33  NZ        47.2830  -36.7700    3.4310 N.3    43  LYS43      -0.1314
     34  N         35.3340  -39.2420    7.2480 N.3   101  ASP101     -0.1239
     35  CA        35.4750  -39.0050    8.6750 C.3   101  ASP101      0.1674
     36  C         34.2100  -39.4630    9.4340 C.2   101  ASP101      0.2266
     37  O         33.0860  -39.1700    8.9810 O.2   101  ASP101     -0.2867
     38  CB        35.7530  -37.5230    8.8920 C.3   101  ASP101      0.1410
     39  CG        36.1700  -37.2200   10.2950 C.2   101  ASP101      0.3668
     40  OD1       36.8690  -38.0550   10.9170 O.co2 101  ASP101     -0.2456
     41  OD2       35.7740  -36.1500   10.7750 O.co2 101  ASP101     -0.2456
     42  N         33.1040  -38.2400   12.1050 N.3   103  GLU103     -0.1231
     43  CA        32.4080  -37.0870   12.6850 C.3   103  GLU103      0.1699
     44  C         31.5200  -36.3940   11.6500 C.2   103  GLU103      0.2593
     45  O         31.9700  -35.9710   10.5880 O.2   103  GLU103     -0.2718
     46  CB        33.3830  -36.0760   13.2790 C.3   103  GLU103      0.0402
     47  CG        32.6650  -34.9630   14.0590 C.3   103  GLU103      0.1161
     48  CD        33.5960  -33.8100   14.4630 C.2   103  GLU103      0.3649
     49  OE1       34.8100  -33.8970   14.1670 O.co2 103  GLU103     -0.2457
     50  OE2       33.1160  -32.8530   15.1190 O.co2 103  GLU103     -0.2457
     51  N         30.2440  -36.2610   11.9530 N.am  104  THR104     -0.1939
     52  CA        29.3430  -35.8510   10.8830 C.3   104  THR104      0.2028
     53  C         29.3840  -34.3300   10.6840 C.2   104  THR104      0.2642
     54  O         29.9040  -33.6180   11.5250 O.2   104  THR104     -0.2714
     55  CB        27.9090  -36.3190   11.1770 C.3   104  THR104      0.1808
     56  OG1       27.5750  -35.9070   12.4850 O.3   104  THR104     -0.2208
     57  CG2       27.8070  -37.8730   11.1000 C.3   104  THR104      0.0379
     58  N         28.8240  -33.8600    9.5730 N.am  105  VAL105     -0.1977
     59  CA        28.7670  -32.4440    9.2280 C.3   105  VAL105      0.1596
     60  C         27.3630  -32.0070    8.8260 C.2   105  VAL105      0.2287
     61  O         26.5460  -32.8350    8.3720 O.2   105  VAL105     -0.2864
     62  CB        29.7000  -32.0780    8.0240 C.3   105  VAL105      0.0276
     63  CG1       31.2010  -32.1850    8.3840 C.3   105  VAL105      0.0022
     64  CG2       29.3550  -32.8930    6.7420 C.3   105  VAL105      0.0022
     65  N         28.5440  -26.8280    6.7030 N.3   109  GLU109     -0.1245
     66  CA        29.9240  -27.2390    6.8900 C.3   109  GLU109      0.1567
     67  C         30.4470  -28.0070    5.6670 C.2   109  GLU109      0.2260
     68  O         31.5880  -27.8030    5.2550 O.2   109  GLU109     -0.2867
     69  CB        30.0500  -28.0950    8.1560 C.3   109  GLU109      0.0388
     70  CG        29.9440  -27.2370    9.4760 C.3   109  GLU109      0.1160
     71  CD        29.7310  -28.1080   10.7410 C.2   109  GLU109      0.3649
     72  OE1       29.3580  -29.2830   10.6400 O.co2 109  GLU109     -0.2457
     73  OE2       29.9280  -27.6030   11.8600 O.co2 109  GLU109     -0.2457
     74  N         33.7500  -26.8100    3.7040 N.3   113  LYS113     -0.1245
     75  CA        34.9210  -27.6810    3.6390 C.3   113  LYS113      0.1561
     76  C         35.2860  -28.0710    2.1890 C.2   113  LYS113      0.2260
     77  O         36.4900  -28.1280    1.8460 O.2   113  LYS113     -0.2867
     78  CB        34.7200  -28.9440    4.4800 C.3   113  LYS113      0.0271
     79  CG        34.7730  -28.6180    6.0040 C.3   113  LYS113      0.0035
     80  CD        33.9740  -29.6690    6.7800 C.3   113  LYS113      0.0206
     81  CE        33.9280  -29.3870    8.3040 C.3   113  LYS113      0.1093
     82  NZ        35.2740  -29.5330    8.9770 N.3   113  LYS113     -0.1314
     83  N         38.6950  -27.3570    0.2730 N.3   117  PHE117     -0.1241
     84  CA        39.3750  -28.4340   -0.4770 C.3   117  PHE117      0.1605
     85  C         39.6640  -27.9800   -1.9390 C.2   117  PHE117      0.2264
     86  O         40.7410  -28.1990   -2.4620 O.2   117  PHE117     -0.2867
     87  CB        38.5230  -29.7360   -0.5520 C.3   117  PHE117      0.0534
     88  CG        38.4310  -30.5470    0.7500 C.ar  117  PHE117     -0.0203
     89  CD1       39.3810  -30.4580    1.7630 C.ar  117  PHE117     -0.0042
     90  CD2       37.3630  -31.4500    0.9230 C.ar  117  PHE117     -0.0042
     91  CE1       39.2760  -31.2640    2.9350 C.ar  117  PHE117     -0.0003
     92  CE2       37.2420  -32.2260    2.0930 C.ar  117  PHE117     -0.0003
     93  CZ        38.1740  -32.1390    3.0890 C.ar  117  PHE117     -0.0000
@<TRIPOS>BOND
     1    86    85    2
     2    85    84    1
     3    87    84    1
     4    87    88    1
     5    84    83    1
     6    28    27    2
     7    88    90   ar
     8    88    89   ar
     9    14    13    1
    10    14    15    1
    11    90    92   ar
    12    27    26    1
    13    13    10    1
    14    89    91   ar
    15    77    76    2
    16    15     9    1
    17    92    93   ar
    18    76    75    1
    19    19    18    2
    20    30    29    1
    21    30    31    1
    22    26    29    1
    23    26    25    1
    24    91    93   ar
    25    32    31    1
    26    32    33    1
    27    10     9    1
    28    10    11    1
    29     9     3   am
    30     8     7    1
    31    18    25   am
    32    18    17    1
    33    75    74    1
    34    75    78    1
    35    11    12    2
    36    11    16   am
    37     5     2    1
    38     5     6    1
    39     2     3    1
    40     2     1    1
    41    16    17    1
    42     3     4    2
    43    78    79    1
    44    17    20    1
    45     7     6    1
    46    68    67    2
    47    20    21    1
    48    67    66    1
    49    79    80    1
    50    65    66    1
    51    21    22    1
    52    64    62    1
    53    80    81    1
    54    66    69    1
    55    34    35    1
    56    22    23    1
    57    62    63    1
    58    62    59    1
    59    69    70    1
    60    81    82    1
    61    61    60    2
    62    23    24    1
    63    35    38    1
    64    35    36    1
    65    60    59    1
    66    38    39    1
    67    37    36    2
    68    59    58    1
    69    70    71    1
    70    58    53   am
    71    39    41   ar
    72    39    40   ar
    73    45    44    2
    74    72    71   ar
    75    53    52    1
    76    53    54    2
    77    71    73   ar
    78    52    55    1
    79    52    51    1
    80    57    55    1
    81    55    56    1
    82    44    51   am
    83    44    43    1
    84    42    43    1
    85    43    46    1
    86    46    47    1
    87    47    48    1
    88    49    48   ar
    89    48    50   ar
