@<TRIPOS>MOLECULE
tmp/4zf8A01.pdb
 129 120 0 0 0
SMALL
GASTEIGER

@<TRIPOS>ATOM
      1  N         12.5960    1.1770   42.0640 N.3    69  LYS69      -0.1245
      2  CA        13.2820    0.8630   40.8150 C.3    69  LYS69       0.1561
      3  C         14.7360    1.3120   40.8370 C.2    69  LYS69       0.2260
      4  O         15.0440    2.4560   41.1720 O.2    69  LYS69      -0.2867
      5  CB        12.5770    1.5030   39.6170 C.3    69  LYS69       0.0271
      6  CG        13.4450    1.5210   38.3640 C.3    69  LYS69       0.0035
      7  CD        12.6850    1.9510   37.1240 C.3    69  LYS69       0.0206
      8  CE        13.6190    2.0270   35.9220 C.3    69  LYS69       0.1093
      9  NZ        12.9090    2.3720   34.6600 N.3    69  LYS69      -0.1314
     10  N         21.0840    0.0760   32.1580 N.3    75  LEU75      -0.1245
     11  CA        20.3020    1.3070   32.0710 C.3    75  LEU75       0.1561
     12  C         21.1650    2.5520   32.2410 C.2    75  LEU75       0.2260
     13  O         20.9520    3.5590   31.5650 O.2    75  LEU75      -0.2867
     14  CB        19.1890    1.3090   33.1190 C.3    75  LEU75       0.0270
     15  CG        17.9070    0.5670   32.7480 C.3    75  LEU75       0.0019
     16  CD1       16.8950    0.6680   33.8760 C.3    75  LEU75       0.0001
     17  CD2       17.3310    1.1160   31.4540 C.3    75  LEU75       0.0001
     18  N         22.5370    3.0250   28.9320 N.3    78  VAL78      -0.1245
     19  CA        21.4660    3.4440   28.0290 C.3    78  VAL78       0.1561
     20  C         21.1140    4.9080   28.2850 C.2    78  VAL78       0.2260
     21  O         20.6670    5.6240   27.3880 O.2    78  VAL78      -0.2867
     22  CB        20.2050    2.5600   28.1960 C.3    78  VAL78       0.0252
     23  CG1       19.0820    3.0210   27.2750 C.3    78  VAL78       0.0019
     24  CG2       20.5410    1.1080   27.9210 C.3    78  VAL78       0.0019
     25  N         12.2540    5.9830   31.0120 N.3    87  VAL87      -0.1245
     26  CA        12.8730    4.6790   31.2210 C.3    87  VAL87       0.1561
     27  C         14.1330    4.7500   32.0840 C.2    87  VAL87       0.2260
     28  O         14.3020    3.9620   33.0170 O.2    87  VAL87      -0.2867
     29  CB        13.2310    4.0180   29.8720 C.3    87  VAL87       0.0252
     30  CG1       14.2800    2.9310   30.0590 C.3    87  VAL87       0.0019
     31  CG2       11.9840    3.4640   29.2030 C.3    87  VAL87       0.0019
     32  N         22.7550    0.5450   21.2010 N.3   181  LEU181     -0.1245
     33  CA        22.2230   -0.3200   22.2470 C.3   181  LEU181      0.1561
     34  C         23.1000   -1.5520   22.4400 C.2   181  LEU181      0.2260
     35  O         23.2400   -2.0530   23.5560 O.2   181  LEU181     -0.2867
     36  CB        20.7850   -0.7310   21.9240 C.3   181  LEU181      0.0270
     37  CG        19.7380    0.3690   22.1100 C.3   181  LEU181      0.0019
     38  CD1       18.3490   -0.1320   21.7440 C.3   181  LEU181      0.0001
     39  CD2       19.7630    0.8910   23.5380 C.3   181  LEU181      0.0001
     40  N         13.3110    8.1130   23.7520 N.3   260  THR260     -0.1218
     41  CA        12.8410    7.0470   24.6290 C.3   260  THR260      0.1862
     42  C         11.7010    6.2680   23.9860 C.2   260  THR260      0.2287
     43  O         11.7360    5.0410   23.9210 O.2   260  THR260     -0.2866
     44  CB        12.3730    7.6010   25.9920 C.3   260  THR260      0.1770
     45  OG1       13.4910    8.1580   26.6940 O.3   260  THR260     -0.2211
     46  CG2       11.7490    6.5010   26.8380 C.3   260  THR260      0.0375
     47  N         12.4020    4.2970   20.6760 N.3   263  ILE263     -0.1231
     48  CA        13.0810    3.0350   20.9340 C.3   263  ILE263      0.1692
     49  C         12.1850    2.0730   21.7100 C.2   263  ILE263      0.2591
     50  O         11.8980    0.9710   21.2450 O.2   263  ILE263     -0.2718
     51  CB        14.3910    3.2500   21.7140 C.3   263  ILE263      0.0266
     52  CG1       15.3520    4.1280   20.9080 C.3   263  ILE263      0.0019
     53  CG2       15.0410    1.9190   22.0360 C.3   263  ILE263      0.0020
     54  CD1       16.6720    4.3940   21.6040 C.3   263  ILE263      0.0001
     55  N         11.7360    2.4970   22.8870 N.am  264  ALA264     -0.1980
     56  CA        10.9150    1.6470   23.7460 C.3   264  ALA264      0.1597
     57  C          9.5810    1.2820   23.0960 C.2   264  ALA264      0.2287
     58  O          9.0300    0.2120   23.3490 O.2   264  ALA264     -0.2864
     59  CB        10.6780    2.3270   25.0890 C.3   264  ALA264      0.0319
     60  N         10.8510   -1.7280   20.1330 N.3   267  VAL267     -0.1231
     61  CA        11.9250   -2.7130   20.2550 C.3   267  VAL267      0.1692
     62  C         11.4490   -4.0360   20.8700 C.2   267  VAL267      0.2592
     63  O         11.8260   -5.1120   20.4030 O.2   267  VAL267     -0.2718
     64  CB        13.1040   -2.1370   21.0780 C.3   267  VAL267      0.0266
     65  CG1       13.9830   -3.2430   21.6240 C.3   267  VAL267      0.0020
     66  CG2       13.9280   -1.1850   20.2190 C.3   267  VAL267      0.0020
     67  N         10.6010   -3.9580   21.8910 N.am  268  THR268     -0.1953
     68  CA        10.0980   -5.1630   22.5490 C.3   268  THR268      0.1897
     69  C          8.8360   -5.7230   21.8940 C.2   268  THR268      0.2313
     70  O          8.5580   -6.9180   21.9960 O.2   268  THR268     -0.2863
     71  CB         9.7960   -4.9050   24.0350 C.3   268  THR268      0.1794
     72  OG1        9.2370   -3.5960   24.1880 O.3   268  THR268     -0.2208
     73  CG2       11.0670   -5.0140   24.8630 C.3   268  THR268      0.0378
     74  N         11.3990   -7.9570   27.2140 N.3   328  ALA328     -0.1231
     75  CA        12.1450   -7.1630   28.1830 C.3   328  ALA328      0.1679
     76  C         12.4790   -8.0720   29.3600 C.2   328  ALA328      0.2434
     77  O         11.7470   -8.1060   30.3470 O.2   328  ALA328     -0.2733
     78  CB        11.3470   -5.9560   28.6320 C.3   328  ALA328      0.0304
     79  N         13.5910   -8.8130   29.2520 N.am  329  PRO329     -0.2718
     80  CA        13.8660   -9.9720   30.1110 C.3   329  PRO329      0.1535
     81  C         14.1620   -9.6520   31.5750 C.2   329  PRO329      0.2598
     82  O         14.1960  -10.5810   32.3820 O.2   329  PRO329     -0.2715
     83  CB        15.0970  -10.5990   29.4510 C.3   329  PRO329      0.0310
     84  CG        15.7970   -9.4490   28.8210 C.3   329  PRO329      0.0237
     85  CD        14.7070   -8.5350   28.3310 C.3   329  PRO329      0.0939
     86  N         14.3700   -8.3840   31.9190 N.am  330  ALA330     -0.1964
     87  CA        14.7640   -8.0520   33.2850 C.3   330  ALA330      0.1728
     88  C         14.5590   -6.5840   33.6530 C.2   330  ALA330      0.2616
     89  O         14.6300   -5.6980   32.8030 O.2   330  ALA330     -0.2715
     90  CB        16.2200   -8.4360   33.5050 C.3   330  ALA330      0.0334
     91  N         14.3020   -6.3500   34.9370 N.am  331  PHE331     -0.1974
     92  CA        14.2810   -5.0070   35.5070 C.3   331  PHE331      0.1639
     93  C         14.9140   -5.0520   36.8970 C.2   331  PHE331      0.2290
     94  O         14.9020   -6.0920   37.5540 O.2   331  PHE331     -0.2864
     95  CB        12.8540   -4.4470   35.5650 C.3   331  PHE331      0.0560
     96  CG        11.8840   -5.3050   36.3340 C.ar  331  PHE331     -0.0200
     97  CD1       11.6210   -5.0510   37.6710 C.ar  331  PHE331     -0.0042
     98  CD2       11.2190   -6.3500   35.7140 C.ar  331  PHE331     -0.0042
     99  CE1       10.7230   -5.8320   38.3770 C.ar  331  PHE331     -0.0003
    100  CE2       10.3210   -7.1350   36.4150 C.ar  331  PHE331     -0.0003
    101  CZ        10.0730   -6.8750   37.7480 C.ar  331  PHE331     -0.0000
    102  N          5.4660   -0.5560   32.7430 N.3   400  CYS400     -0.1235
    103  CA         5.4290   -0.0410   31.3790 C.3   400  CYS400      0.1677
    104  C          4.2410    0.8810   31.1350 C.2   400  CYS400      0.2270
    105  O          3.0900    0.5000   31.3510 O.2   400  CYS400     -0.2867
    106  CB         5.4030   -1.1930   30.3750 C.3   400  CYS400      0.0956
    107  SG         5.2900   -0.6590   28.6550 S.3   400  CYS400     -0.0801
    108  N         19.8980   -7.9670   22.6690 N.3   436  THR436     -0.1203
    109  CA        20.3840   -6.6000   22.5090 C.3   436  THR436      0.1994
    110  C         19.8430   -5.7390   23.6440 C.2   436  THR436      0.2618
    111  O         19.3850   -4.6190   23.4050 O.2   436  THR436     -0.2717
    112  CB        19.9500   -5.9810   21.1630 C.3   436  THR436      0.1784
    113  OG1       18.5570   -5.6490   21.2150 O.3   436  THR436     -0.2211
    114  CG2       20.1960   -6.9460   20.0100 C.3   436  THR436      0.0376
    115  N         19.9170   -6.2830   24.8630 N.am  437  LEU437     -0.1965
    116  CA        19.1870   -5.8270   26.0590 C.3   437  LEU437      0.1728
    117  C         17.7360   -6.3030   25.9970 C.2   437  LEU437      0.2616
    118  O         17.0220   -6.2850   26.9990 O.2   437  LEU437     -0.2715
    119  CB        19.2310   -4.3050   26.2350 C.3   437  LEU437      0.0311
    120  CG        20.5950   -3.6350   26.3960 C.3   437  LEU437      0.0022
    121  CD1       20.4340   -2.1270   26.3690 C.3   437  LEU437      0.0001
    122  CD2       21.2640   -4.0810   27.6850 C.3   437  LEU437      0.0001
    123  N         17.3120   -6.7290   24.8130 N.am  438  THR438     -0.1951
    124  CA        15.9750   -7.2690   24.6160 C.3   438  THR438      0.1897
    125  C         16.0500   -8.6260   23.9290 C.2   438  THR438      0.2313
    126  O         17.0840   -8.9910   23.3710 O.2   438  THR438     -0.2863
    127  CB        15.0970   -6.3180   23.7850 C.3   438  THR438      0.1794
    128  OG1       15.8000   -5.9300   22.5990 O.3   438  THR438     -0.2208
    129  CG2       14.7550   -5.0770   24.5920 C.3   438  THR438      0.0378
@<TRIPOS>BOND
     1   114   112    1
     2    60    61    1
     3    66    64    1
     4    61    62    1
     5    61    64    1
     6    63    62    2
     7    47    48    1
     8    62    67   am
     9    52    54    1
    10    52    51    1
    11    48    49    1
    12    48    51    1
    13    64    65    1
    14   112   113    1
    15   112   109    1
    16    32    33    1
    17    50    49    2
    18    49    55   am
    19    51    53    1
    20    38    37    1
    21    67    68    1
    22    69    70    2
    23    69    68    1
    24    36    37    1
    25    36    33    1
    26    37    39    1
    27    33    34    1
    28    34    35    2
    29   109   108    1
    30   109   110    1
    31    68    71    1
    32   128   127    1
    33    55    56    1
    34    57    58    2
    35    57    56    1
    36   126   125    2
    37   111   110    2
    38   110   115   am
    39    56    59    1
    40    40    41    1
    41   127   129    1
    42   127   124    1
    43    43    42    2
    44   125   124    1
    45    42    41    1
    46    71    72    1
    47    71    73    1
    48   124   123    1
    49    41    44    1
    50   123   117   am
    51   115   116    1
    52    44    45    1
    53    44    46    1
    54   117   116    1
    55   117   118    2
    56   116   119    1
    57   119   120    1
    58   121   120    1
    59   120   122    1
    60    74    75    1
    61    23    22    1
    62    21    20    2
    63    24    22    1
    64    19    22    1
    65    19    20    1
    66    19    18    1
    67    75    78    1
    68    75    76    1
    69    85    84    1
    70    85    79    1
    71   107   106    1
    72    84    83    1
    73    31    29    1
    74    79    76   am
    75    79    80    1
    76    76    77    2
    77    83    80    1
    78    29    30    1
    79    29    26    1
    80    80    81    1
    81   106   103    1
    82    25    26    1
    83   104   105    2
    84   104   103    1
    85    26    27    1
    86   103   102    1
    87    17    15    1
    88    13    12    2
    89    81    86   am
    90    81    82    2
    91    86    87    1
    92    11    10    1
    93    11    12    1
    94    11    14    1
    95    27    28    2
    96    15    14    1
    97    15    16    1
    98    89    88    2
    99    87    90    1
   100    87    88    1
   101    88    91   am
   102     9     8    1
   103    91    92    1
   104    92    95    1
   105    92    93    1
   106    95    96    1
   107    98    96   ar
   108    98   100   ar
   109     8     7    1
   110    96    97   ar
   111   100   101   ar
   112    93    94    2
   113     7     6    1
   114    97    99   ar
   115   101    99   ar
   116     6     5    1
   117     5     2    1
   118     2     3    1
   119     2     1    1
   120     3     4    2
