@<TRIPOS>MOLECULE
tmp/4zfcB01.pdb
 161 159 0 0 0
SMALL
GASTEIGER

@<TRIPOS>ATOM
      1  N          7.8870  -13.5650  -27.1000 N.3    24  TYR24      -0.1241
      2  CA         9.1790  -13.2220  -27.6910 C.3    24  TYR24       0.1605
      3  C          9.9180  -14.4610  -28.0540 C.2    24  TYR24       0.2264
      4  O          9.9980  -15.4060  -27.2330 O.2    24  TYR24      -0.2867
      5  CB        10.1050  -12.3750  -26.7930 C.3    24  TYR24       0.0534
      6  CG        11.3930  -12.1310  -27.4890 C.ar   24  TYR24      -0.0201
      7  CD1       11.4130  -11.2850  -28.5990 C.ar   24  TYR24      -0.0009
      8  CD2       12.5930  -12.7300  -27.0780 C.ar   24  TYR24      -0.0009
      9  CE1       12.5670  -11.0600  -29.3340 C.ar   24  TYR24       0.0417
     10  CE2       13.7840  -12.5190  -27.8380 C.ar   24  TYR24       0.0417
     11  CZ        13.7340  -11.6640  -28.9660 C.ar   24  TYR24       0.1957
     12  OH        14.8340  -11.3820  -29.7430 O.3    24  TYR24      -0.2866
     13  N          8.9910   -4.1310  -29.7970 N.3    54  LEU54      -0.1231
     14  CA        10.3350   -4.6800  -29.9520 C.3    54  LEU54       0.1693
     15  C         10.3720   -6.0970  -30.4710 C.2    54  LEU54       0.2592
     16  O         11.4200   -6.5100  -30.9570 O.2    54  LEU54      -0.2718
     17  CB        11.0880   -4.7010  -28.6040 C.3    54  LEU54       0.0284
     18  CG        12.5530   -5.1930  -28.4990 C.3    54  LEU54       0.0019
     19  CD1       13.4750   -4.1600  -29.2060 C.3    54  LEU54       0.0001
     20  CD2       13.0160   -5.3920  -27.0600 C.3    54  LEU54       0.0001
     21  N          9.2910   -6.8840  -30.2680 N.am   55  TYR55      -0.1976
     22  CA         9.3790   -8.3450  -30.5210 C.3    55  TYR55       0.1639
     23  C          9.2530   -8.6550  -31.9990 C.2    55  TYR55       0.2290
     24  O          9.4480   -9.7660  -32.3860 O.2    55  TYR55      -0.2864
     25  CB         8.3640   -9.1350  -29.6770 C.3    55  TYR55       0.0560
     26  CG         8.5040   -8.9250  -28.1660 C.ar   55  TYR55      -0.0198
     27  CD1        9.6580   -8.3980  -27.6300 C.ar   55  TYR55      -0.0009
     28  CD2        7.5180   -9.3030  -27.3070 C.ar   55  TYR55      -0.0009
     29  CE1        9.8110   -8.2190  -26.2780 C.ar   55  TYR55       0.0417
     30  CE2        7.6530   -9.0950  -25.9540 C.ar   55  TYR55       0.0417
     31  CZ         8.7900   -8.5660  -25.4420 C.ar   55  TYR55       0.1957
     32  OH         8.9710   -8.3190  -24.0920 O.3    55  TYR55      -0.2866
     33  N          8.2290    1.1740  -27.3160 N.3    86  TRP86      -0.1241
     34  CA         9.6530    0.9950  -27.2930 C.3    86  TRP86       0.1605
     35  C         10.3330    2.3420  -26.9730 C.2    86  TRP86       0.2264
     36  O          9.7680    3.3970  -27.1880 O.2    86  TRP86      -0.2867
     37  CB        10.1390    0.3710  -28.5960 C.3    86  TRP86       0.0550
     38  CG        11.6020    0.1600  -28.5570 C.ar   86  TRP86       0.0003
     39  CD1       12.5050    0.6730  -29.3990 C.ar   86  TRP86       0.0946
     40  CD2       12.3340   -0.5590  -27.5610 C.ar   86  TRP86       0.0152
     41  NE1       13.7610    0.3190  -28.9980 N.ar   86  TRP86      -0.2442
     42  CE2       13.6870   -0.4470  -27.8830 C.ar   86  TRP86       0.0810
     43  CE3       11.9640   -1.2890  -26.4220 C.ar   86  TRP86       0.0012
     44  CZ2       14.7030   -0.9930  -27.0920 C.ar   86  TRP86       0.0191
     45  CZ3       12.9430   -1.8630  -25.6480 C.ar   86  TRP86       0.0001
     46  CH2       14.3080   -1.7030  -25.9700 C.ar   86  TRP86       0.0015
     47  N          8.0190    0.2030  -22.0600 N.3   117  HIS117     -0.1226
     48  CA         8.7650   -1.0140  -22.0420 C.3   117  HIS117      0.1752
     49  C          9.9680   -0.8740  -21.0710 C.2   117  HIS117      0.2596
     50  O         10.3810   -1.8130  -20.3890 O.2   117  HIS117     -0.2718
     51  CB         9.2560   -1.3250  -23.4560 C.3   117  HIS117      0.0759
     52  CG         9.6850   -2.7490  -23.6780 C.ar  117  HIS117      0.0818
     53  ND1        9.4560   -3.4210  -24.8690 N.ar  117  HIS117     -0.2268
     54  CD2       10.3270   -3.6320  -22.8690 C.ar  117  HIS117      0.1154
     55  CE1        9.9250   -4.6500  -24.7840 C.ar  117  HIS117      0.1986
     56  NE2       10.4780   -4.8060  -23.5850 N.ar  117  HIS117     -0.2212
     57  N         10.5570    0.2880  -21.0740 N.am  118  SER118     -0.1952
     58  CA        11.7750    0.5420  -20.3120 C.3   118  SER118      0.1924
     59  C         11.9530    2.0290  -20.0000 C.2   118  SER118      0.2314
     60  O         11.6080    2.8510  -20.8450 O.2   118  SER118     -0.2863
     61  CB        12.9600    0.0620  -21.1620 C.3   118  SER118      0.2116
     62  OG        14.2140    0.5120  -20.7130 O.3   118  SER118     -0.2180
     63  N         14.6680    3.5400  -20.0100 N.3   120  MET120     -0.1245
     64  CA        15.9200    4.0110  -20.6090 C.3   120  MET120      0.1570
     65  C         15.6720    4.5590  -22.0290 C.2   120  MET120      0.2261
     66  O         15.6530    3.8120  -22.9840 O.2   120  MET120     -0.2867
     67  CB        16.9330    2.8530  -20.6040 C.3   120  MET120      0.0387
     68  CG        17.4160    2.4910  -19.1890 C.3   120  MET120      0.0595
     69  SD        18.5340    1.0710  -19.1140 S.3   120  MET120     -0.1393
     70  CE        17.4060   -0.2870  -19.2820 C.3   120  MET120      0.0692
     71  N         15.7650    0.3010  -33.8940 N.3   128  LEU128     -0.1245
     72  CA        15.3850   -0.1310  -32.5640 C.3   128  LEU128      0.1561
     73  C         16.4950    0.1640  -31.5910 C.2   128  LEU128      0.2260
     74  O         16.2580    0.5660  -30.4520 O.2   128  LEU128     -0.2867
     75  CB        15.1070   -1.6370  -32.5390 C.3   128  LEU128      0.0270
     76  CG        13.8160   -2.0920  -33.2440 C.3   128  LEU128      0.0019
     77  CD1       13.7690   -3.6290  -33.3500 C.3   128  LEU128      0.0001
     78  CD2       12.5750   -1.5170  -32.5660 C.3   128  LEU128      0.0001
     79  N         10.2060   -2.5700  -16.1650 N.3   167  ASN167     -0.1240
     80  CA        11.6030   -2.3200  -15.7760 C.3   167  ASN167      0.1653
     81  C         11.8730   -1.0340  -14.9770 C.2   167  ASN167      0.2266
     82  O         12.9750   -0.5240  -14.9840 O.2   167  ASN167     -0.2867
     83  CB        12.4830   -2.4120  -17.0200 C.3   167  ASN167      0.1155
     84  CG        12.4160   -3.7880  -17.6680 C.2   167  ASN167      0.2627
     85  OD1       12.7370   -4.7790  -17.0070 O.2   167  ASN167     -0.2716
     86  ND2       11.8820   -3.8790  -18.9180 N.am  167  ASN167     -0.0877
     87  N          8.4740  -11.3320  -15.6170 N.3   216  TYR216     -0.1241
     88  CA         9.0730  -12.0020  -16.7590 C.3   216  TYR216      0.1605
     89  C         10.3370  -12.7540  -16.3800 C.2   216  TYR216      0.2264
     90  O         10.9000  -12.5370  -15.3050 O.2   216  TYR216     -0.2867
     91  CB         9.3290  -11.0070  -17.9220 C.3   216  TYR216      0.0534
     92  CG        10.4410   -9.9840  -17.7640 C.ar  216  TYR216     -0.0201
     93  CD1       11.7660  -10.3620  -17.8120 C.ar  216  TYR216     -0.0009
     94  CD2       10.1570   -8.6320  -17.6220 C.ar  216  TYR216     -0.0009
     95  CE1       12.7740   -9.4390  -17.7420 C.ar  216  TYR216      0.0417
     96  CE2       11.1560   -7.6900  -17.5100 C.ar  216  TYR216      0.0417
     97  CZ        12.4550   -8.0760  -17.5940 C.ar  216  TYR216      0.1957
     98  OH        13.4560   -7.1480  -17.5370 O.3   216  TYR216     -0.2866
     99  N         15.2070  -17.0190  -21.5450 N.3   222  GLN222     -0.1245
    100  CA        15.5830  -17.8360  -22.6830 C.3   222  GLN222      0.1566
    101  C         17.1000  -17.9970  -22.8210 C.2   222  GLN222      0.2260
    102  O         17.5200  -18.6630  -23.7290 O.2   222  GLN222     -0.2867
    103  CB        14.9900  -17.2550  -23.9790 C.3   222  GLN222      0.0367
    104  CG        13.4980  -17.0610  -23.8720 C.3   222  GLN222      0.0905
    105  CD        12.8740  -16.6980  -25.1930 C.2   222  GLN222      0.2608
    106  OE1       13.2420  -17.2420  -26.2700 O.2   222  GLN222     -0.2717
    107  NE2       11.9610  -15.7370  -25.1500 N.am  222  GLN222     -0.0878
    108  N         23.1770  -13.2720  -26.5220 N.3   226  ARG226     -0.1231
    109  CA        23.4470  -11.8380  -26.6270 C.3   226  ARG226      0.1694
    110  C         23.3110  -11.0740  -25.2970 C.2   226  ARG226      0.2592
    111  O         23.8940  -10.0140  -25.1470 O.2   226  ARG226     -0.2718
    112  CB        22.5730  -11.2190  -27.7270 C.3   226  ARG226      0.0321
    113  CG        22.7710  -11.8750  -29.1030 C.3   226  ARG226      0.0489
    114  CD        21.6530  -11.5520  -30.0860 C.3   226  ARG226      0.2205
    115  NE        20.4330  -12.3030  -29.7540 N.pl3 226  ARG226     -0.0865
    116  CZ        19.1760  -11.8610  -29.9220 C.cat 226  ARG226      0.5346
    117  NH1       18.1320  -12.6150  -29.5730 N.pl3 226  ARG226      0.1354
    118  NH2       18.9330  -10.6540  -30.4290 N.pl3 226  ARG226      0.1354
    119  N         22.5500  -11.5880  -24.3330 N.am  227  TRP227     -0.1976
    120  CA        22.3470  -10.8580  -23.0890 C.3   227  TRP227      0.1640
    121  C         22.4280  -11.6330  -21.8130 C.2   227  TRP227      0.2290
    122  O         22.2840  -11.0320  -20.7660 O.2   227  TRP227     -0.2864
    123  CB        21.0170  -10.0940  -23.0760 C.3   227  TRP227      0.0576
    124  CG        20.0640  -10.4000  -24.1520 C.ar  227  TRP227      0.0006
    125  CD1       19.0390  -11.3070  -24.1250 C.ar  227  TRP227      0.0946
    126  CD2       19.9920   -9.7590  -25.4080 C.ar  227  TRP227      0.0152
    127  NE1       18.3440  -11.2890  -25.3150 N.ar  227  TRP227     -0.2442
    128  CE2       18.9170  -10.3490  -26.1230 C.ar  227  TRP227      0.0810
    129  CE3       20.7370   -8.7510  -26.0110 C.ar  227  TRP227      0.0012
    130  CZ2       18.5830   -9.9670  -27.3970 C.ar  227  TRP227      0.0191
    131  CZ3       20.4070   -8.3670  -27.2790 C.ar  227  TRP227      0.0001
    132  CH2       19.3340   -8.9700  -27.9660 C.ar  227  TRP227      0.0015
    133  N         19.3940  -10.9340  -17.4850 N.3   306  PHE306     -0.1241
    134  CA        19.7640   -9.9110  -18.4790 C.3   306  PHE306      0.1605
    135  C         20.8690   -9.0340  -17.9840 C.2   306  PHE306      0.2264
    136  O         20.7570   -8.4890  -16.9070 O.2   306  PHE306     -0.2867
    137  CB        18.6000   -8.9670  -18.7400 C.3   306  PHE306      0.0534
    138  CG        17.5410   -9.5920  -19.4960 C.ar  306  PHE306     -0.0203
    139  CD1       16.5510  -10.3580  -18.8410 C.ar  306  PHE306     -0.0042
    140  CD2       17.5560   -9.5230  -20.8750 C.ar  306  PHE306     -0.0042
    141  CE1       15.5740  -11.0080  -19.5550 C.ar  306  PHE306     -0.0003
    142  CE2       16.5710  -10.1740  -21.5950 C.ar  306  PHE306     -0.0003
    143  CZ        15.5820  -10.9200  -20.9420 C.ar  306  PHE306     -0.0000
    144  N         23.9170   -0.4930  -21.3990 N.3   311  PHE311     -0.1241
    145  CA        22.7110   -0.0100  -20.7140 C.3   311  PHE311      0.1605
    146  C         22.9690    0.3300  -19.2310 C.2   311  PHE311      0.2264
    147  O         22.3390    1.2450  -18.6820 O.2   311  PHE311     -0.2867
    148  CB        21.5600   -1.0140  -20.8760 C.3   311  PHE311      0.0534
    149  CG        20.7450   -0.8250  -22.1440 C.ar  311  PHE311     -0.0203
    150  CD1       21.1410   -1.3940  -23.3550 C.ar  311  PHE311     -0.0042
    151  CD2       19.5460   -0.1010  -22.1220 C.ar  311  PHE311     -0.0042
    152  CE1       20.3720   -1.2220  -24.5110 C.ar  311  PHE311     -0.0003
    153  CE2       18.7680    0.0660  -23.2740 C.ar  311  PHE311     -0.0003
    154  CZ        19.1800   -0.4950  -24.4720 C.ar  311  PHE311     -0.0000
    155  N         17.7480    0.8030  -14.4100 N.3   318  PRO318     -0.2116
    156  CA        16.9470    0.5530  -13.2000 C.3   318  PRO318      0.1372
    157  C         17.6700   -0.2120  -12.0800 C.2   318  PRO318      0.2244
    158  O         17.1080   -0.3060  -10.9980 O.2   318  PRO318     -0.2868
    159  CB        15.7230   -0.2450  -13.7290 C.3   318  PRO318      0.0268
    160  CG        16.2290   -0.8980  -14.9650 C.3   318  PRO318      0.0207
    161  CD        17.1850    0.1140  -15.5850 C.3   318  PRO318      0.0892
@<TRIPOS>BOND
     1    71    72    1
     2    77    76    1
     3    76    78    1
     4    76    75    1
     5    72    75    1
     6    72    73    1
     7    24    23    2
     8    23    22    1
     9    73    74    2
    10    16    15    2
    11    22    21    1
    12    22    25    1
    13    15    21   am
    14    15    14    1
    15   118   116    1
    16   114   115    1
    17   114   113    1
    18    14    13    1
    19    14    17    1
    20   116   115    2
    21   116   117    1
    22    12    11    1
    23    25    26    1
    24    39    41   ar
    25    39    38   ar
    26     9    11   ar
    27     9     7   ar
    28    19    18    1
    29   113   112    1
    30    41    42   ar
    31    11    10   ar
    32    17    18    1
    33     7     6   ar
    34    37    38    1
    35    37    34    1
    36    38    40   ar
    37    18    20    1
    38    26    27   ar
    39    26    28   ar
    40     3     2    1
    41     3     4    2
    42   132   130   ar
    43   132   131   ar
    44    42    40   ar
    45    42    44   ar
    46    10     8   ar
    47   112   109    1
    48     2     1    1
    49     2     5    1
    50    27    29   ar
    51    40    43   ar
    52     6     8   ar
    53     6     5    1
    54   130   128   ar
    55    33    34    1
    56    28    30   ar
    57    34    35    1
    58   131   129   ar
    59    36    35    2
    60    44    46   ar
    61   109   108    1
    62   109   110    1
    63    43    45   ar
    64    29    31   ar
    65   106   105    2
    66   128   126   ar
    67   128   127   ar
    68   129   126   ar
    69    46    45   ar
    70    30    31   ar
    71    31    32    1
    72   126   124   ar
    73   127   125   ar
    74   110   111    2
    75   110   119   am
    76   105   107   am
    77   105   104    1
    78    53    55   ar
    79    53    52   ar
    80    55    56   ar
    81   152   154   ar
    82   152   150   ar
    83   154   153   ar
    84   119   120    1
    85   124   125   ar
    86   124   123    1
    87   103   104    1
    88   103   100    1
    89   102   101    2
    90    52    51    1
    91    52    54   ar
    92    56    54   ar
    93    51    48    1
    94   150   149   ar
    95   153   151   ar
    96   120   123    1
    97   120   121    1
    98    66    65    2
    99   101   100    1
   100   100    99    1
   101   149   151   ar
   102   149   148    1
   103    47    48    1
   104    48    49    1
   105    65    64    1
   106   121   122    2
   107   142   143   ar
   108   142   140   ar
   109   144   145    1
   110    61    62    1
   111    61    58    1
   112    57    49   am
   113    57    58    1
   114    49    50    2
   115   143   141   ar
   116   148   145    1
   117   140   138   ar
   118    60    59    2
   119   145   146    1
   120    64    67    1
   121    64    63    1
   122    67    68    1
   123    58    59    1
   124   141   139   ar
   125   138   139   ar
   126   138   137    1
   127    70    69    1
   128   146   147    2
   129    68    69    1
   130    86    84   am
   131   137   134    1
   132   134   135    1
   133   134   133    1
   134   135   136    2
   135    91    92    1
   136    91    88    1
   137    93    92   ar
   138    93    95   ar
   139    92    94   ar
   140    95    97   ar
   141    84    83    1
   142    84    85    2
   143    94    96   ar
   144    97    98    1
   145    97    96   ar
   146    83    80    1
   147    88    89    1
   148    88    87    1
   149    89    90    2
   150    79    80    1
   151    80    81    1
   152   161   160    1
   153   161   155    1
   154    82    81    2
   155   160   159    1
   156   155   156    1
   157   159   156    1
   158   156   157    1
   159   157   158    2
