@<TRIPOS>MOLECULE
tmp/4zfiD00.pdb
 145 141 0 0 0
SMALL
GASTEIGER

@<TRIPOS>ATOM
      1  N         12.5280    2.3280  -11.5180 N.3    33  LYS33      -0.1245
      2  CA        13.5610    1.4640  -12.1660 C.3    33  LYS33       0.1561
      3  C         14.9210    2.2090  -12.3650 C.2    33  LYS33       0.2260
      4  O         16.0010    1.6580  -12.0990 O.2    33  LYS33      -0.2867
      5  CB        12.9930    1.0570  -13.5300 C.3    33  LYS33       0.0271
      6  CG        13.4390   -0.1960  -14.1510 C.3    33  LYS33       0.0035
      7  CD        12.7700   -0.2860  -15.5310 C.3    33  LYS33       0.0206
      8  CE        11.3310    0.2860  -15.5400 C.3    33  LYS33       0.1093
      9  NZ        10.6870    0.1850  -16.8790 N.3    33  LYS33      -0.1314
     10  N         16.5750    2.9760   -8.9200 N.3    36  LEU36      -0.1231
     11  CA        17.3050    1.7600   -8.4990 C.3    36  LEU36       0.1693
     12  C         18.6390    1.4590   -9.1850 C.2    36  LEU36       0.2592
     13  O         19.5740    1.0920   -8.5240 O.2    36  LEU36      -0.2718
     14  CB        16.4210    0.5590   -8.5990 C.3    36  LEU36       0.0284
     15  CG        15.2000    0.5780   -7.6480 C.3    36  LEU36       0.0019
     16  CD1       14.2170   -0.4830   -8.1130 C.3    36  LEU36       0.0001
     17  CD2       15.6380    0.3420   -6.2210 C.3    36  LEU36       0.0001
     18  N         18.7160    1.6590  -10.5060 N.am   37  PHE37      -0.1976
     19  CA        19.9420    1.5670  -11.1790 C.3    37  PHE37       0.1639
     20  C         21.0110    2.4330  -10.4950 C.2    37  PHE37       0.2290
     21  O         22.0670    1.9560  -10.1540 O.2    37  PHE37      -0.2864
     22  CB        19.8340    2.0160  -12.6140 C.3    37  PHE37       0.0560
     23  CG        21.1520    2.0760  -13.2660 C.ar   37  PHE37      -0.0200
     24  CD1       21.7200    0.9190  -13.7430 C.ar   37  PHE37      -0.0042
     25  CD2       21.8870    3.2580  -13.2840 C.ar   37  PHE37      -0.0042
     26  CE1       22.9950    0.9190  -14.2810 C.ar   37  PHE37      -0.0003
     27  CE2       23.1890    3.2820  -13.8040 C.ar   37  PHE37      -0.0003
     28  CZ        23.7260    2.1050  -14.3140 C.ar   37  PHE37      -0.0000
     29  N         21.0770    3.9720   -7.5530 N.3    39  LEU39      -0.1231
     30  CA        21.3550    3.5250   -6.1760 C.3    39  LEU39       0.1693
     31  C         22.2960    2.3320   -6.1120 C.2    39  LEU39       0.2593
     32  O         23.2150    2.2890   -5.2760 O.2    39  LEU39      -0.2718
     33  CB        20.0820    3.1490   -5.4570 C.3    39  LEU39       0.0284
     34  CG        19.1960    4.3180   -5.0550 C.3    39  LEU39       0.0019
     35  CD1       17.8620    3.8230   -4.5080 C.3    39  LEU39       0.0001
     36  CD2       19.9250    5.1370   -4.0120 C.3    39  LEU39       0.0001
     37  N         22.1170    1.3930   -7.0300 N.am   40  GLY40      -0.1942
     38  CA        23.0510    0.2670   -7.1420 C.3    40  GLY40       0.2014
     39  C         24.4790    0.7220   -7.3340 C.2    40  GLY40       0.2638
     40  O         25.4120    0.1900   -6.7030 O.2    40  GLY40      -0.2714
     41  N         24.6610    1.7010   -8.2360 N.am   41  GLN41      -0.1977
     42  CA        25.9730    2.2220   -8.5860 C.3    41  GLN41       0.1601
     43  C         26.5510    2.9300   -7.3800 C.2    41  GLN41       0.2287
     44  O         27.7560    2.8260   -7.1020 O.2    41  GLN41      -0.2864
     45  CB        25.8980    3.2170   -9.7560 C.3    41  GLN41       0.0394
     46  CG        25.4790    2.5590  -11.0660 C.3    41  GLN41       0.0908
     47  CD        26.3690    1.3990  -11.4700 C.2    41  GLN41       0.2608
     48  OE1       27.5920    1.5470  -11.6330 O.2    41  GLN41      -0.2717
     49  NE2       25.7660    0.2490  -11.6560 N.am   41  GLN41      -0.0878
     50  N         25.8620    2.4630   -4.1570 N.3    43  ILE43      -0.1231
     51  CA        26.2320    1.4970   -3.1330 C.3    43  ILE43       0.1692
     52  C         27.5870    0.8260   -3.4410 C.2    43  ILE43       0.2591
     53  O         28.4200    0.6670   -2.5450 O.2    43  ILE43      -0.2718
     54  CB        25.1040    0.4780   -2.9240 C.3    43  ILE43       0.0266
     55  CG1       23.8930    1.1810   -2.2980 C.3    43  ILE43       0.0019
     56  CG2       25.5530   -0.6780   -2.0450 C.3    43  ILE43       0.0020
     57  CD1       22.6150    0.4020   -2.4770 C.3    43  ILE43       0.0001
     58  N         27.7680    0.4190   -4.6910 N.am   44  MET44      -0.1979
     59  CA        28.9840   -0.2620   -5.1480 C.3    44  MET44       0.1605
     60  C         30.1380    0.6910   -5.0300 C.2    44  MET44       0.2287
     61  O         31.1100    0.3620   -4.4020 O.2    44  MET44      -0.2864
     62  CB        28.8460   -0.8170   -6.5660 C.3    44  MET44       0.0413
     63  CG        27.8980   -2.0170   -6.5570 C.3    44  MET44       0.0598
     64  SD        27.4380   -2.4630   -8.2510 S.3    44  MET44      -0.1393
     65  CE        29.0450   -2.8030   -8.9180 C.3    44  MET44       0.0692
     66  N         28.4810   -2.4890    0.8850 N.3    49  TYR49      -0.1241
     67  CA        28.1340   -3.8660    1.1340 C.3    49  TYR49       0.1605
     68  C         28.9780   -4.4630    2.2310 C.2    49  TYR49       0.2264
     69  O         30.1520   -4.1480    2.3760 O.2    49  TYR49      -0.2867
     70  CB        28.3500   -4.7220   -0.1190 C.3    49  TYR49       0.0534
     71  CG        27.3430   -4.4610   -1.2200 C.ar   49  TYR49      -0.0201
     72  CD1       26.0030   -4.7660   -1.0370 C.ar   49  TYR49      -0.0009
     73  CD2       27.7470   -3.9330   -2.4530 C.ar   49  TYR49      -0.0009
     74  CE1       25.0600   -4.5200   -2.0360 C.ar   49  TYR49       0.0417
     75  CE2       26.8140   -3.7040   -3.4700 C.ar   49  TYR49       0.0417
     76  CZ        25.4660   -4.0180   -3.2340 C.ar   49  TYR49       0.1957
     77  OH        24.5390   -3.7380   -4.1830 O.3    49  TYR49      -0.2866
     78  N         17.6280    7.2820    3.7930 N.3    68  PHE68      -0.1241
     79  CA        16.7700    6.1330    4.0270 C.3    68  PHE68       0.1605
     80  C         16.2540    6.1310    5.4790 C.2    68  PHE68       0.2264
     81  O         15.2290    5.5060    5.7540 O.2    68  PHE68      -0.2867
     82  CB        17.4960    4.8400    3.6930 C.3    68  PHE68       0.0534
     83  CG        17.4240    4.4390    2.2310 C.ar   68  PHE68      -0.0203
     84  CD1       16.9910    5.3030    1.2770 C.ar   68  PHE68      -0.0042
     85  CD2       17.8340    3.1550    1.8300 C.ar   68  PHE68      -0.0042
     86  CE1       16.9200    4.9060   -0.0400 C.ar   68  PHE68      -0.0003
     87  CE2       17.7650    2.7590    0.5150 C.ar   68  PHE68      -0.0003
     88  CZ        17.3010    3.6390   -0.4370 C.ar   68  PHE68      -0.0000
     89  N         20.1980   -2.3580    5.6430 N.3    73  PHE73      -0.1241
     90  CA        19.0880   -3.0230    4.9890 C.3    73  PHE73       0.1605
     91  C         19.5840   -4.1170    4.0820 C.2    73  PHE73       0.2264
     92  O         20.7640   -4.1280    3.6830 O.2    73  PHE73      -0.2867
     93  CB        18.2170   -2.0280    4.2040 C.3    73  PHE73       0.0534
     94  CG        18.9190   -1.3890    3.0540 C.ar   73  PHE73      -0.0203
     95  CD1       19.6380   -0.2060    3.2270 C.ar   73  PHE73      -0.0042
     96  CD2       18.8080   -1.9120    1.7960 C.ar   73  PHE73      -0.0042
     97  CE1       20.3050    0.4090    2.1770 C.ar   73  PHE73      -0.0003
     98  CE2       19.4370   -1.2820    0.7290 C.ar   73  PHE73      -0.0003
     99  CZ        20.1700   -0.1290    0.9060 C.ar   73  PHE73      -0.0000
    100  N         19.4280   -6.0560    0.4200 N.3    75  VAL75      -0.1231
    101  CA        19.1040   -5.8000   -0.9440 C.3    75  VAL75       0.1692
    102  C         18.0280   -6.7380   -1.4510 C.2    75  VAL75       0.2591
    103  O         17.3740   -6.4450   -2.4320 O.2    75  VAL75      -0.2718
    104  CB        20.3780   -5.8290   -1.8610 C.3    75  VAL75       0.0266
    105  CG1       19.9880   -5.5240   -3.3000 C.3    75  VAL75       0.0020
    106  CG2       21.3970   -4.7910   -1.4350 C.3    75  VAL75       0.0020
    107  N         17.7970   -7.8480   -0.7450 N.am   76  LYS76      -0.1980
    108  CA        16.7550   -8.7820   -1.1270 C.3    76  LYS76       0.1596
    109  C         15.3410   -8.2890   -0.7670 C.2    76  LYS76       0.2287
    110  O         14.3730   -8.8180   -1.2510 O.2    76  LYS76      -0.2864
    111  CB        16.9720  -10.1460   -0.4610 C.3    76  LYS76       0.0298
    112  CG        18.3610  -10.7410   -0.6760 C.3    76  LYS76       0.0038
    113  CD        18.7280  -10.7100   -2.1500 C.3    76  LYS76       0.0206
    114  CE        18.2820  -11.9470   -2.9020 C.3    76  LYS76       0.1093
    115  NZ        18.6120  -11.7110   -4.3530 N.3    76  LYS76      -0.1314
    116  N         12.8730   -6.0260   -1.4290 N.3    78  HIS78      -0.1241
    117  CA        12.5760   -4.9710   -2.4290 C.3    78  HIS78       0.1621
    118  C         11.4850   -4.0210   -1.9930 C.2    78  HIS78       0.2264
    119  O         11.6180   -2.8060   -2.1270 O.2    78  HIS78      -0.2867
    120  CB        12.2300   -5.5970   -3.8100 C.3    78  HIS78       0.0745
    121  CG        13.3850   -6.3220   -4.4160 C.ar   78  HIS78       0.0817
    122  ND1       13.3120   -6.9860   -5.6200 N.ar   78  HIS78      -0.2268
    123  CD2       14.6620   -6.4570   -3.9840 C.ar   78  HIS78       0.1154
    124  CE1       14.4980   -7.4930   -5.9100 C.ar   78  HIS78       0.1986
    125  NE2       15.3320   -7.1980   -4.9270 N.ar   78  HIS78      -0.2212
    126  N         12.7220   -1.5070    0.4420 N.3    81  ILE81      -0.1231
    127  CA        13.5550   -0.5320   -0.1970 C.3    81  ILE81       0.1692
    128  C         12.7020    0.5170   -0.9260 C.2    81  ILE81       0.2592
    129  O         12.9430    1.7090   -0.8110 O.2    81  ILE81      -0.2718
    130  CB        14.5600   -1.2250   -1.1230 C.3    81  ILE81       0.0266
    131  CG1       15.5620   -1.9980   -0.2570 C.3    81  ILE81       0.0019
    132  CG2       15.2770   -0.1970   -2.0110 C.3    81  ILE81       0.0020
    133  CD1       16.4390   -2.9400   -1.0180 C.3    81  ILE81       0.0001
    134  N         11.6610    0.0740   -1.6280 N.am   82  TYR82      -0.1976
    135  CA        10.7730    1.0180   -2.2620 C.3    82  TYR82       0.1639
    136  C         10.1920    1.9870   -1.2560 C.2    82  TYR82       0.2290
    137  O         10.0670    3.1930   -1.5160 O.2    82  TYR82      -0.2864
    138  CB         9.6520    0.2860   -3.0150 C.3    82  TYR82       0.0560
    139  CG         9.9340   -0.0190   -4.4640 C.ar   82  TYR82      -0.0198
    140  CD1       10.9140   -0.9140   -4.8200 C.ar   82  TYR82      -0.0009
    141  CD2        9.1470    0.5200   -5.4800 C.ar   82  TYR82      -0.0009
    142  CE1       11.1400   -1.2040   -6.1570 C.ar   82  TYR82       0.0417
    143  CE2        9.3910    0.2580   -6.8160 C.ar   82  TYR82       0.0417
    144  CZ        10.3590   -0.6230   -7.1580 C.ar   82  TYR82       0.1957
    145  OH        10.5510   -0.9390   -8.4910 O.3    82  TYR82      -0.2866
@<TRIPOS>BOND
     1     9     8    1
     2     8     7    1
     3     7     6    1
     4    28    26   ar
     5    28    27   ar
     6    26    24   ar
     7     6     5    1
     8    27    25   ar
     9    24    23   ar
    10     5     2    1
    11    25    23   ar
    12    23    22    1
    13    22    19    1
    14     3     2    1
    15     3     4    2
    16     2     1    1
    17    49    47   am
    18    48    47    2
    19    47    46    1
    20    19    18    1
    21    19    20    1
    22    46    45    1
    23    18    12   am
    24    20    21    2
    25    45    42    1
    26    12    13    2
    27    12    11    1
    28    10    11    1
    29    65    64    1
    30    14    11    1
    31    14    15    1
    32    42    41    1
    33    42    43    1
    34   145   144    1
    35    64    63    1
    36    41    39   am
    37    16    15    1
    38    15    17    1
    39    29    30    1
    40    43    44    2
    41    39    38    1
    42    39    40    2
    43   144   143   ar
    44   144   142   ar
    45    38    37    1
    46    37    31   am
    47   143   141   ar
    48    62    63    1
    49    62    59    1
    50    30    31    1
    51    30    33    1
    52   142   140   ar
    53    31    32    2
    54   124   122   ar
    55   124   125   ar
    56   122   121   ar
    57   141   139   ar
    58    33    34    1
    59    59    60    1
    60    59    58    1
    61    34    35    1
    62    34    36    1
    63    60    61    2
    64   125   123   ar
    65   140   139   ar
    66    58    52   am
    67   139   138    1
    68   121   123   ar
    69   121   120    1
    70   115   114    1
    71    77    76    1
    72    50    51    1
    73   120   117    1
    74    75    76   ar
    75    75    73   ar
    76    52    51    1
    77    52    53    2
    78   105   104    1
    79    76    74   ar
    80    51    54    1
    81   138   135    1
    82    54    55    1
    83    54    56    1
    84   114   113    1
    85    57    55    1
    86    73    71   ar
    87   103   102    2
    88   117   118    1
    89   117   116    1
    90   135   134    1
    91   135   136    1
    92   113   112    1
    93   119   118    2
    94    74    72   ar
    95   132   130    1
    96   104   106    1
    97   104   101    1
    98   134   128   am
    99   137   136    2
   100   102   101    1
   101   102   107   am
   102   110   109    2
   103    71    72   ar
   104    71    70    1
   105   108   109    1
   106   108   107    1
   107   108   111    1
   108   130   131    1
   109   130   127    1
   110   133   131    1
   111   101   100    1
   112   128   129    2
   113   128   127    1
   114   112   111    1
   115    88    86   ar
   116    88    87   ar
   117   127   126    1
   118    70    67    1
   119    86    84   ar
   120    87    85   ar
   121    98    99   ar
   122    98    96   ar
   123    66    67    1
   124    99    97   ar
   125    67    68    1
   126    84    83   ar
   127    96    94   ar
   128    85    83   ar
   129    97    95   ar
   130    83    82    1
   131    68    69    2
   132    94    95   ar
   133    94    93    1
   134    92    91    2
   135    82    79    1
   136    78    79    1
   137    79    80    1
   138    91    90    1
   139    93    90    1
   140    90    89    1
   141    80    81    2
