@<TRIPOS>MOLECULE
tmp/4zfjB01.pdb
 83 83 0 0 0
SMALL
GASTEIGER

@<TRIPOS>ATOM
      1  N         75.8530   45.7710  122.6910 N.3    54  ALA54      -0.1231
      2  CA        74.6560   45.3970  123.4230 C.3    54  ALA54       0.1694
      3  C         74.7880   43.9590  123.8990 C.2    54  ALA54       0.2592
      4  O         75.0950   43.0740  123.1030 O.2    54  ALA54      -0.2718
      5  CB        73.4130   45.5570  122.5440 C.3    54  ALA54       0.0304
      6  N         74.5560   43.7440  125.1900 N.am   55  ARG55      -0.1966
      7  CA        74.6180   42.4230  125.7910 C.3    55  ARG55       0.1729
      8  C         73.3400   42.1870  126.5830 C.2    55  ARG55       0.2616
      9  O         72.7400   43.1250  127.0990 O.2    55  ARG55      -0.2715
     10  CB        75.8590   42.3010  126.6700 C.3    55  ARG55       0.0348
     11  CG        77.1330   42.5590  125.8770 C.3    55  ARG55       0.0492
     12  CD        78.4180   42.3090  126.6410 C.3    55  ARG55       0.2205
     13  NE        79.5670   42.5540  125.7650 N.pl3  55  ARG55      -0.0865
     14  CZ        79.9650   41.7510  124.7820 C.cat  55  ARG55       0.5346
     15  NH1       79.3250   40.6120  124.5240 N.pl3  55  ARG55       0.1354
     16  NH2       81.0160   42.0910  124.0400 N.pl3  55  ARG55       0.1354
     17  N         72.9060   40.9320  126.6320 N.am   56  ARG56      -0.1963
     18  CA        71.6220   40.5870  127.2090 C.3    56  ARG56       0.1729
     19  C         71.6760   39.2750  127.9670 C.2    56  ARG56       0.2616
     20  O         72.3260   38.3250  127.5430 O.2    56  ARG56      -0.2715
     21  CB        70.5400   40.4490  126.1240 C.3    56  ARG56       0.0348
     22  CG        70.1350   41.7070  125.4210 C.3    56  ARG56       0.0492
     23  CD        68.9720   41.4100  124.4700 C.3    56  ARG56       0.2205
     24  NE        69.3910   40.6200  123.3080 N.pl3  56  ARG56      -0.0865
     25  CZ        68.5520   40.1180  122.4030 C.cat  56  ARG56       0.5346
     26  NH1       67.2460   40.2890  122.5370 N.pl3  56  ARG56       0.1354
     27  NH2       69.0110   39.4320  121.3630 N.pl3  56  ARG56       0.1354
     28  N         70.9110   39.2470  129.0500 N.am   57  TRP57      -0.1960
     29  CA        70.6590   38.0610  129.8630 C.3    57  TRP57       0.1771
     30  C         69.1510   37.9500  129.9990 C.2    57  TRP57       0.2619
     31  O         68.5110   38.8780  130.4910 O.2    57  TRP57      -0.2715
     32  CB        71.3230   38.2170  131.2230 C.3    57  TRP57       0.0590
     33  CG        71.3310   37.0230  132.1510 C.ar   57  TRP57       0.0006
     34  CD1       70.5340   35.9130  132.1120 C.ar   57  TRP57       0.0946
     35  CD2       72.1950   36.8590  133.2800 C.ar   57  TRP57       0.0152
     36  NE1       70.8570   35.0630  133.1600 N.ar   57  TRP57      -0.2442
     37  CE2       71.8690   35.6310  133.8870 C.ar   57  TRP57       0.0810
     38  CE3       73.2100   37.6390  133.8380 C.ar   57  TRP57       0.0012
     39  CZ2       72.5400   35.1530  135.0110 C.ar   57  TRP57       0.0191
     40  CZ3       73.8670   37.1670  134.9680 C.ar   57  TRP57       0.0001
     41  CH2       73.5270   35.9390  135.5380 C.ar   57  TRP57       0.0015
     42  N         68.5760   36.8420  129.5380 N.am   58  ARG58      -0.1977
     43  CA        67.1290   36.6570  129.6050 C.3    58  ARG58       0.1597
     44  C         66.7890   35.2720  130.1130 C.2    58  ARG58       0.2287
     45  O         67.5350   34.3130  129.8960 O.2    58  ARG58      -0.2864
     46  CB        66.4630   36.8650  128.2400 C.3    58  ARG58       0.0334
     47  CG        66.5790   38.2840  127.7090 C.3    58  ARG58       0.0492
     48  CD        65.7740   38.4680  126.4120 C.3    58  ARG58       0.2205
     49  NE        66.4060   37.7650  125.3130 N.pl3  58  ARG58      -0.0865
     50  CZ        65.8920   37.6420  124.0960 C.cat  58  ARG58       0.5346
     51  NH1       64.7040   38.1730  123.8030 N.pl3  58  ARG58       0.1354
     52  NH2       66.5660   36.9760  123.1720 N.pl3  58  ARG58       0.1354
     53  N         62.7200   32.3140  126.9670 N.3    95  PRO95      -0.2102
     54  CA        63.6120   33.4780  127.0830 C.3    95  PRO95       0.1504
     55  C         63.5840   34.4070  125.8600 C.2    95  PRO95       0.2576
     56  O         63.6740   35.6230  126.0320 O.2    95  PRO95      -0.2718
     57  CB        64.9880   32.8310  127.2780 C.3    95  PRO95       0.0282
     58  CG        64.6880   31.5240  127.9040 C.3    95  PRO95       0.0208
     59  CD        63.4270   31.0560  127.2660 C.3    95  PRO95       0.0893
     60  N         63.4100   33.8690  124.6530 N.am   96  SER96      -0.1953
     61  CA        63.3890   34.7250  123.4680 C.3    96  SER96       0.1924
     62  C         62.1760   35.6530  123.4470 C.2    96  SER96       0.2314
     63  O         62.1580   36.6250  122.7020 O.2    96  SER96      -0.2863
     64  CB        63.4020   33.8960  122.1870 C.3    96  SER96       0.2116
     65  OG        62.2280   33.1060  122.0710 O.3    96  SER96      -0.2180
     66  N         66.3750   43.0990  120.6550 N.3   102  SER102     -0.1202
     67  CA        67.5160   43.8470  120.1390 C.3   102  SER102      0.2020
     68  C         67.6800   43.7050  118.6440 C.2   102  SER102      0.2619
     69  O         67.4130   42.6470  118.0800 O.2   102  SER102     -0.2717
     70  CB        68.7990   43.3820  120.8150 C.3   102  SER102      0.2103
     71  OG        69.9050   44.1590  120.3890 O.3   102  SER102     -0.2182
     72  N         68.1340   44.7770  118.0100 N.am  103  ASP103     -0.1959
     73  CA        68.5730   44.7090  116.6170 C.3   103  ASP103      0.1840
     74  C         70.0850   44.9550  116.5400 C.2   103  ASP103      0.2622
     75  O         70.6320   45.2310  115.4750 O.2   103  ASP103     -0.2715
     76  CB        67.7970   45.7110  115.7630 C.3   103  ASP103      0.1450
     77  CG        68.2020   47.1490  116.0180 C.2   103  ASP103      0.3671
     78  OD1       68.8820   47.4270  117.0300 O.co2 103  ASP103     -0.2456
     79  OD2       67.8370   48.0160  115.1960 O.co2 103  ASP103     -0.2456
     80  N         70.7520   44.8570  117.6840 N.am  104  GLY104     -0.1954
     81  CA        72.1850   45.0490  117.7550 C.3   104  GLY104      0.1869
     82  C         72.5580   46.4550  118.1730 C.2   104  GLY104      0.2309
     83  O         73.5980   46.6630  118.7900 O.2   104  GLY104     -0.2863
@<TRIPOS>BOND
     1    79    77   ar
     2    75    74    2
     3    76    77    1
     4    76    73    1
     5    77    78   ar
     6    74    73    1
     7    74    80   am
     8    73    72    1
     9    80    81    1
    10    81    82    1
    11    72    68   am
    12    69    68    2
    13    82    83    2
    14    68    67    1
    15    67    66    1
    16    67    70    1
    17    71    70    1
    18    27    25    1
    19    65    64    1
    20    64    61    1
    21    25    26    1
    22    25    24    2
    23     5     2    1
    24     1     2    1
    25    63    62    2
    26     4     3    2
    27    52    50    1
    28    24    23    1
    29     2     3    1
    30    62    61    1
    31    61    60    1
    32    51    50    1
    33     3     6   am
    34    16    14    1
    35    50    49    2
    36    23    22    1
    37    15    14    1
    38    60    55   am
    39    14    13    2
    40     6     7    1
    41    49    48    1
    42    22    21    1
    43    13    12    1
    44     7     8    1
    45     7    10    1
    46    55    56    2
    47    55    54    1
    48    11    12    1
    49    11    10    1
    50    21    18    1
    51    48    47    1
    52     8    17   am
    53     8     9    2
    54    17    18    1
    55    53    54    1
    56    53    59    1
    57    54    57    1
    58    18    19    1
    59    59    58    1
    60    57    58    1
    61    20    19    2
    62    47    46    1
    63    19    28   am
    64    46    43    1
    65    28    29    1
    66    42    43    1
    67    42    30   am
    68    43    44    1
    69    29    30    1
    70    29    32    1
    71    45    44    2
    72    30    31    2
    73    32    33    1
    74    34    33   ar
    75    34    36   ar
    76    33    35   ar
    77    36    37   ar
    78    35    38   ar
    79    35    37   ar
    80    38    40   ar
    81    37    39   ar
    82    40    41   ar
    83    39    41   ar
