@<TRIPOS>MOLECULE
tmp/4zfkB00.pdb
 115 108 0 0 0
SMALL
GASTEIGER

@<TRIPOS>ATOM
      1  N         63.5040    9.3370   10.7670 N.3     1  CYS1       -0.1235
      2  CA        62.5290    8.9400    9.7570 C.3     1  CYS1        0.1677
      3  C         63.2230    8.7020    8.4250 C.2     1  CYS1        0.2270
      4  O         64.3910    9.0680    8.2470 O.2     1  CYS1       -0.2867
      5  CB        61.4540   10.0150    9.5810 C.3     1  CYS1        0.0956
      6  SG        60.4530   10.2980   11.0470 S.3     1  CYS1       -0.0801
      7  N         70.7180    8.9610   12.6340 N.3    36  HIS36      -0.1241
      8  CA        69.8980    9.1030   13.8320 C.3    36  HIS36       0.1621
      9  C         68.6820    8.1920   13.7780 C.2    36  HIS36       0.2264
     10  O         67.7740    8.3980   12.9750 O.2    36  HIS36      -0.2867
     11  CB        69.4800   10.5540   13.9940 C.3    36  HIS36       0.0745
     12  CG        70.6390   11.4750   14.1480 C.ar   36  HIS36       0.0817
     13  ND1       71.2010   11.7650   15.3710 N.ar   36  HIS36      -0.2268
     14  CD2       71.3720   12.1480   13.2260 C.ar   36  HIS36       0.1154
     15  CE1       72.2190   12.5910   15.1990 C.ar   36  HIS36       0.1986
     16  NE2       72.3450   12.8310   13.9080 N.ar   36  HIS36      -0.2212
     17  N         58.4390    6.2470   10.3170 N.3    87  ARG87      -0.1231
     18  CA        58.7810    7.1060   11.4380 C.3    87  ARG87       0.1694
     19  C         59.7050    6.4770   12.4720 C.2    87  ARG87       0.2592
     20  O         59.5140    5.3380   12.8960 O.2    87  ARG87      -0.2718
     21  CB        57.5150    7.5630   12.1540 C.3    87  ARG87       0.0321
     22  CG        57.7890    8.6620   13.1540 C.3    87  ARG87       0.0489
     23  CD        56.5680    9.0420   13.9510 C.3    87  ARG87       0.2205
     24  NE        56.9270   10.0280   14.9590 N.pl3  87  ARG87      -0.0865
     25  CZ        56.2420   10.2600   16.0700 C.cat  87  ARG87       0.5346
     26  NH1       55.1290    9.5860   16.3240 N.pl3  87  ARG87       0.1354
     27  NH2       56.6690   11.1830   16.9240 N.pl3  87  ARG87       0.1354
     28  N         60.7010    7.2560   12.8770 N.am   88  SER88      -0.1952
     29  CA        61.4620    6.9790   14.0900 C.3    88  SER88       0.1924
     30  C         61.1460    8.0840   15.0800 C.2    88  SER88       0.2314
     31  O         61.6250    9.2050   14.9380 O.2    88  SER88      -0.2863
     32  CB        62.9680    6.9140   13.8100 C.3    88  SER88       0.2116
     33  OG        63.4500    8.1430   13.2910 O.3    88  SER88      -0.2180
     34  N         61.1390   10.6170   17.9870 N.3    90  THR90      -0.1218
     35  CA        62.0030   11.2190   18.9900 C.3    90  THR90       0.1862
     36  C         61.4550   10.9030   20.3800 C.2    90  THR90       0.2287
     37  O         60.2530   10.9950   20.6170 O.2    90  THR90      -0.2866
     38  CB        62.1140   12.7430   18.7880 C.3    90  THR90       0.1770
     39  OG1       62.5910   13.0220   17.4660 O.3    90  THR90      -0.2211
     40  CG2       63.0770   13.3460   19.7950 C.3    90  THR90       0.0375
     41  N         58.1520   12.2760   22.2830 N.3    93  MET93      -0.1245
     42  CA        57.1030   12.6660   21.3500 C.3    93  MET93       0.1570
     43  C         55.9910   11.6260   21.3650 C.2    93  MET93       0.2261
     44  O         56.2510   10.4510   21.5990 O.2    93  MET93      -0.2867
     45  CB        57.6610   12.8190   19.9320 C.3    93  MET93       0.0387
     46  CG        58.6670   13.9290   19.7720 C.3    93  MET93       0.0595
     47  SD        57.9790   15.5710   20.1040 S.3    93  MET93      -0.1393
     48  CE        59.4930   16.5250   20.0540 C.3    93  MET93       0.0692
     49  N         50.7210   11.9620   14.3500 N.3    99  ALA99      -0.1245
     50  CA        52.1140   12.3920   14.4610 C.3    99  ALA99       0.1562
     51  C         53.0070   11.8300   13.3550 C.2    99  ALA99       0.2260
     52  O         54.1850   12.1680   13.2820 O.2    99  ALA99      -0.2867
     53  CB        52.6780   11.9890   15.8320 C.3    99  ALA99       0.0290
     54  N         58.7400   15.4800    7.4300 N.3   112  HIS112     -0.1226
     55  CA        59.9440   16.0030    8.0800 C.3   112  HIS112      0.1752
     56  C         60.7820   14.8710    8.6580 C.2   112  HIS112      0.2596
     57  O         60.2800   14.0400    9.4210 O.2   112  HIS112     -0.2718
     58  CB        59.5780   16.9940    9.1900 C.3   112  HIS112      0.0759
     59  CG        60.7270   17.3850   10.0710 C.ar  112  HIS112      0.0818
     60  ND1       60.6480   17.3630   11.4460 N.ar  112  HIS112     -0.2268
     61  CD2       61.9770   17.8210    9.7750 C.ar  112  HIS112      0.1154
     62  CE1       61.8000   17.7560   11.9590 C.ar  112  HIS112      0.1986
     63  NE2       62.6240   18.0410   10.9680 N.ar  112  HIS112     -0.2212
     64  N         62.0500   14.8340    8.2550 N.am  113  ASN113     -0.1960
     65  CA        63.0530   13.9400    8.8220 C.3   113  ASN113      0.1819
     66  C         64.0210   14.8140    9.6000 C.2   113  ASN113      0.2622
     67  O         64.7340   15.6530    9.0300 O.2   113  ASN113     -0.2715
     68  CB        63.7300   13.1330    7.6960 C.3   113  ASN113      0.1195
     69  CG        64.9510   12.3200    8.1380 C.2   113  ASN113      0.2630
     70  OD1       65.7530   11.9340    7.2810 O.2   113  ASN113     -0.2716
     71  ND2       65.0900   12.0320    9.4260 N.am  113  ASN113     -0.0877
     72  N         64.0000   14.6500   10.9210 N.am  114  GLY114     -0.1940
     73  CA        64.9200   15.3540   11.7860 C.3   114  GLY114      0.2014
     74  C         64.3110   15.6800   13.1310 C.2   114  GLY114      0.2638
     75  O         63.5010   14.9270   13.6610 O.2   114  GLY114     -0.2714
     76  N         64.7020   16.8260   13.6730 N.am  115  LEU115     -0.1977
     77  CA        64.3410   17.1940   15.0250 C.3   115  LEU115      0.1596
     78  C         64.4920   18.6990   15.1990 C.2   115  LEU115      0.2287
     79  O         65.4420   19.2810   14.6830 O.2   115  LEU115     -0.2864
     80  CB        65.2350   16.4360   16.0110 C.3   115  LEU115      0.0297
     81  CG        65.0650   16.7390   17.4890 C.3   115  LEU115      0.0022
     82  CD1       63.6700   16.3200   17.9140 C.3   115  LEU115      0.0001
     83  CD2       66.1290   16.0160   18.2930 C.3   115  LEU115      0.0001
     84  N         53.6700   16.7860   18.0160 N.3   131  VAL131     -0.1231
     85  CA        55.0330   16.4110   17.6710 C.3   131  VAL131      0.1692
     86  C         55.7170   17.6030   16.9830 C.2   131  VAL131      0.2592
     87  O         55.0590   18.3980   16.3190 O.2   131  VAL131     -0.2718
     88  CB        55.0750   15.1540   16.7670 C.3   131  VAL131      0.0266
     89  CG1       54.3620   15.3850   15.4480 C.3   131  VAL131      0.0020
     90  CG2       56.5250   14.7030   16.5250 C.3   131  VAL131      0.0020
     91  N         57.0290   17.7250   17.1630 N.am  132  ASP132     -0.1960
     92  CA        57.7560   18.8850   16.6500 C.3   132  ASP132      0.1840
     93  C         57.5500   19.0270   15.1460 C.2   132  ASP132      0.2622
     94  O         57.3730   20.1380   14.6450 O.2   132  ASP132     -0.2715
     95  CB        59.2560   18.8000   16.9900 C.3   132  ASP132      0.1450
     96  CG        59.9490   17.5630   16.4120 C.2   132  ASP132      0.3671
     97  OD1       59.3470   16.4680   16.3310 O.co2 132  ASP132     -0.2456
     98  OD2       61.1410   17.6910   16.0600 O.co2 132  ASP132     -0.2456
     99  N         57.5540   17.9070   14.4350 N.am  133  SER133     -0.1950
    100  CA        57.3400   17.9120   12.9840 C.3   133  SER133      0.1924
    101  C         56.0160   18.5330   12.5520 C.2   133  SER133      0.2314
    102  O         55.9470   19.1750   11.5080 O.2   133  SER133     -0.2863
    103  CB        57.4110   16.4890   12.4430 C.3   133  SER133      0.2116
    104  OG        58.6630   15.9260   12.7610 O.3   133  SER133     -0.2180
    105  N         67.7150   19.3550   12.7990 N.3   163  ARG163     -0.1245
    106  CA        67.7950   18.6870   11.5080 C.3   163  ARG163      0.1563
    107  C         66.4500   18.9080   10.8300 C.2   163  ARG163      0.2260
    108  O         65.4020   18.6550   11.4300 O.2   163  ARG163     -0.2867
    109  CB        68.1120   17.1880   11.6670 C.3   163  ARG163      0.0307
    110  CG        69.5280   16.9230   12.1720 C.3   163  ARG163      0.0489
    111  CD        69.8750   15.4260   12.2500 C.3   163  ARG163      0.2205
    112  NE        69.0620   14.7070   13.2290 N.pl3 163  ARG163     -0.0865
    113  CZ        69.2950   14.7020   14.5420 C.cat 163  ARG163      0.5346
    114  NH1       70.3140   15.3840   15.0440 N.pl3 163  ARG163      0.1354
    115  NH2       68.5090   14.0120   15.3610 N.pl3 163  ARG163      0.1354
@<TRIPOS>BOND
     1    70    69    2
     2    54    55    1
     3    68    69    1
     4    68    65    1
     5    55    56    1
     6    55    58    1
     7    69    71   am
     8     4     3    2
     9    64    56   am
    10    64    65    1
    11     3     2    1
    12    56    57    2
    13    65    66    1
    14    67    66    2
    15    58    59    1
    16     5     2    1
    17     5     6    1
    18    66    72   am
    19     2     1    1
    20    61    59   ar
    21    61    63   ar
    22    59    60   ar
    23    17    18    1
    24   107   108    2
    25   107   106    1
    26    72    73    1
    27    63    62   ar
    28    18    21    1
    29    18    19    1
    30    60    62   ar
    31   106   109    1
    32   106   105    1
    33   102   101    2
    34   109   110    1
    35    73    74    1
    36    21    22    1
    37   110   111    1
    38   111   112    1
    39   103   104    1
    40   103   100    1
    41    19    28   am
    42    19    20    2
    43   101   100    1
    44     7     8    1
    45    28    29    1
    46    10     9    2
    47   100    99    1
    48    74    75    2
    49    74    76   am
    50    22    23    1
    51    14    16   ar
    52    14    12   ar
    53   112   113    2
    54    52    51    2
    55    33    32    1
    56    51    50    1
    57    76    77    1
    58     9     8    1
    59    32    29    1
    60     8    11    1
    61    16    15   ar
    62    23    24    1
    63    11    12    1
    64    29    30    1
    65    12    13   ar
    66    49    50    1
    67    99    93   am
    68    50    53    1
    69   113   114    1
    70   113   115    1
    71    94    93    2
    72    79    78    2
    73    31    30    2
    74    24    25    2
    75    77    78    1
    76    77    80    1
    77    93    92    1
    78    15    13   ar
    79    89    88    1
    80    80    81    1
    81    98    96   ar
    82    25    26    1
    83    25    27    1
    84    87    86    2
    85    97    96   ar
    86    96    95    1
    87    90    88    1
    88    92    95    1
    89    92    91    1
    90    88    85    1
    91    86    91   am
    92    86    85    1
    93    39    38    1
    94    81    82    1
    95    81    83    1
    96    85    84    1
    97    34    35    1
    98    38    35    1
    99    38    40    1
   100    35    36    1
   101    46    45    1
   102    46    47    1
   103    45    42    1
   104    48    47    1
   105    36    37    2
   106    42    43    1
   107    42    41    1
   108    43    44    2
