@<TRIPOS>MOLECULE
tmp/4zflE00.pdb
 185 177 0 0 0
SMALL
GASTEIGER

@<TRIPOS>ATOM
      1  N         38.4240   12.0320   10.3960 N.3     1  ALA1       -0.1245
      2  CA        37.6850   11.1230   11.2540 C.3     1  ALA1        0.1562
      3  C         36.9200   11.9320   12.2800 C.2     1  ALA1        0.2260
      4  O         37.2850   13.0630   12.5910 O.2     1  ALA1       -0.2867
      5  CB        38.6160   10.1360   11.9430 C.3     1  ALA1        0.0290
      6  N         35.2270   20.1150   11.2460 N.3    34  GLN34      -0.1245
      7  CA        36.3170   19.2850   10.7700 C.3    34  GLN34       0.1566
      8  C         37.2390   20.0790    9.8510 C.2    34  GLN34       0.2260
      9  O         36.8070   20.5110    8.7810 O.2    34  GLN34      -0.2867
     10  CB        35.7350   18.0760   10.0530 C.3    34  GLN34       0.0367
     11  CG        36.7590   17.0540    9.6170 C.3    34  GLN34       0.0905
     12  CD        36.1100   15.7290    9.2840 C.2    34  GLN34       0.2608
     13  OE1       35.0520   15.3980    9.8180 O.2    34  GLN34      -0.2717
     14  NE2       36.7500   14.9520    8.4050 N.am   34  GLN34      -0.0878
     15  N         40.2240   18.8950    8.7340 N.3    36  HIS36      -0.1226
     16  CA        40.9450   17.9860    7.8530 C.3    36  HIS36       0.1752
     17  C         40.0250   16.9260    7.2670 C.2    36  HIS36       0.2597
     18  O         39.4840   16.0710    7.9870 O.2    36  HIS36      -0.2718
     19  CB        42.1120   17.3360    8.6140 C.3    36  HIS36       0.0759
     20  CG        43.0050   18.3310    9.2750 C.ar   36  HIS36       0.0818
     21  ND1       43.9810   19.0300    8.5950 N.ar   36  HIS36      -0.2268
     22  CD2       43.0410   18.7810   10.5510 C.ar   36  HIS36       0.1154
     23  CE1       44.5850   19.8610    9.4260 C.ar   36  HIS36       0.1986
     24  NE2       44.0360   19.7250   10.6240 N.ar   36  HIS36      -0.2212
     25  N         39.8670   16.9730    5.9460 N.am   37  GLY37      -0.1942
     26  CA        38.9300   16.0980    5.2690 C.3    37  GLY37       0.2014
     27  C         37.5770   16.7810    5.1460 C.2    37  GLY37       0.2639
     28  O         37.1760   17.5930    5.9850 O.2    37  GLY37      -0.2714
     29  N         36.8760   16.4560    4.0760 N.am   38  LEU38      -0.1963
     30  CA        35.5600   17.0210    3.8220 C.3    38  LEU38       0.1728
     31  C         34.4510   16.2230    4.4860 C.2    38  LEU38       0.2616
     32  O         33.3590   16.7360    4.6950 O.2    38  LEU38      -0.2715
     33  CB        35.2950   17.0720    2.3320 C.3    38  LEU38       0.0311
     34  CG        36.1440   18.0420    1.5200 C.3    38  LEU38       0.0022
     35  CD1       35.9070   17.7230    0.0500 C.3    38  LEU38       0.0001
     36  CD2       35.8160   19.4850    1.8700 C.3    38  LEU38       0.0001
     37  N         34.7310   14.9540    4.7720 N.am   39  MET39      -0.1963
     38  CA        33.7000   14.0150    5.1770 C.3    39  MET39       0.1736
     39  C         34.3560   12.8400    5.8570 C.2    39  MET39       0.2616
     40  O         35.5530   12.8630    6.1030 O.2    39  MET39      -0.2715
     41  CB        32.9050   13.5640    3.9610 C.3    39  MET39       0.0427
     42  CG        33.7720   12.7820    2.9890 C.3    39  MET39       0.0599
     43  SD        33.0600   12.5620    1.3520 S.3    39  MET39      -0.1393
     44  CE        33.2410   14.2230    0.6880 C.3    39  MET39       0.0692
     45  N         33.5680   11.8230    6.1820 N.am   40  ASN40      -0.1958
     46  CA        34.0910   10.6260    6.8290 C.3    40  ASN40       0.1819
     47  C         33.3700    9.4220    6.2790 C.2    40  ASN40       0.2621
     48  O         32.4770    8.8490    6.9250 O.2    40  ASN40      -0.2715
     49  CB        33.9200   10.7180    8.3350 C.3    40  ASN40       0.1195
     50  CG        34.5440   11.9820    8.9020 C.2    40  ASN40       0.2630
     51  OD1       35.7550   12.0490    9.1620 O.2    40  ASN40      -0.2716
     52  ND2       33.7270   13.0050    9.0550 N.am   40  ASN40      -0.0877
     53  N         33.7360    9.0630    5.0580 N.am   41  ALA41      -0.1963
     54  CA        32.9690    8.0880    4.2850 C.3    41  ALA41       0.1728
     55  C         33.7800    6.8400    3.9790 C.2    41  ALA41       0.2616
     56  O         33.3550    6.0160    3.1730 O.2    41  ALA41      -0.2715
     57  CB        32.4700    8.7220    2.9840 C.3    41  ALA41       0.0334
     58  N         34.9400    6.6970    4.6220 N.am   42  ASP42      -0.1971
     59  CA        35.8510    5.5960    4.3210 C.3    42  ASP42       0.1709
     60  C         35.7110    4.4280    5.2950 C.2    42  ASP42       0.2293
     61  O         36.5570    3.5420    5.3420 O.2    42  ASP42      -0.2864
     62  CB        37.2830    6.1120    4.3290 C.3    42  ASP42       0.1436
     63  CG        37.5640    7.0200    3.1440 C.2    42  ASP42       0.3671
     64  OD1       37.4690    6.5240    2.0030 O.co2  42  ASP42      -0.2456
     65  OD2       37.8640    8.2230    3.3440 O.co2  42  ASP42      -0.2456
     66  N         35.2910    6.9850    9.6540 N.3    87  ARG87      -0.1231
     67  CA        36.6470    7.0910    9.1490 C.3    87  ARG87       0.1694
     68  C         36.7800    8.0100    7.9440 C.2    87  ARG87       0.2593
     69  O         35.9430    7.9900    7.0380 O.2    87  ARG87      -0.2718
     70  CB        37.1720    5.7020    8.7650 C.3    87  ARG87       0.0321
     71  CG        38.6350    5.6990    8.3210 C.3    87  ARG87       0.0489
     72  CD        39.1020    4.3330    7.8710 C.3    87  ARG87       0.2205
     73  NE        40.4960    4.4240    7.4590 N.pl3  87  ARG87      -0.0865
     74  CZ        41.0660    3.6960    6.5130 C.cat  87  ARG87       0.5346
     75  NH1       40.3810    2.7750    5.8470 N.pl3  87  ARG87       0.1354
     76  NH2       42.3340    3.9130    6.2360 N.pl3  87  ARG87       0.1354
     77  N         37.8650    8.7910    7.9320 N.am   88  SER88      -0.1938
     78  CA        38.2830    9.4810    6.7190 C.3    88  SER88       0.2055
     79  C         39.7340    9.1670    6.4440 C.2    88  SER88       0.2643
     80  O         40.5780    9.2450    7.3390 O.2    88  SER88      -0.2714
     81  CB        38.0800   10.9770    6.8460 C.3    88  SER88       0.2130
     82  OG        38.2320   11.6000    5.5820 O.3    88  SER88      -0.2179
     83  N         40.0320    8.8300    5.1990 N.am   89  ALA89      -0.1963
     84  CA        41.3810    8.4380    4.8200 C.3    89  ALA89       0.1728
     85  C         41.7790    9.1570    3.5430 C.2    89  ALA89       0.2617
     86  O         40.9600    9.3510    2.6490 O.2    89  ALA89      -0.2715
     87  CB        41.4530    6.9300    4.6210 C.3    89  ALA89       0.0334
     88  N         43.0460    9.5460    3.4450 N.am   90  THR90      -0.1937
     89  CA        43.5530   10.1260    2.2190 C.3    90  THR90       0.2028
     90  C         43.4920    9.0880    1.1010 C.2    90  THR90       0.2642
     91  O         43.6460    7.8860    1.3370 O.2    90  THR90      -0.2714
     92  CB        45.0010   10.6470    2.3720 C.3    90  THR90       0.1808
     93  OG1       45.8540    9.5990    2.8370 O.3    90  THR90      -0.2208
     94  CG2       45.0490   11.8050    3.3630 C.3    90  THR90       0.0379
     95  N         43.2350    9.5730   -0.1060 N.am   91  ILE91      -0.1977
     96  CA        43.0550    8.7320   -1.2850 C.3    91  ILE91       0.1596
     97  C         44.2880    7.8800   -1.4870 C.2    91  ILE91       0.2287
     98  O         45.4110    8.3990   -1.5330 O.2    91  ILE91      -0.2864
     99  CB        42.8070    9.5970   -2.5300 C.3    91  ILE91       0.0276
    100  CG1       41.4790   10.3320   -2.3560 C.3    91  ILE91       0.0022
    101  CG2       42.7330    8.7780   -3.7930 C.3    91  ILE91       0.0022
    102  CD1       41.1460   11.3190   -3.4550 C.3    91  ILE91       0.0001
    103  N         44.9080    5.1350    0.5200 N.3    93  MET93      -0.1245
    104  CA        45.0820    4.3220    1.7140 C.3    93  MET93       0.1570
    105  C         44.1540    3.1180    1.6950 C.2    93  MET93       0.2261
    106  O         43.0840    3.1660    1.0820 O.2    93  MET93      -0.2867
    107  CB        44.8440    5.1660    2.9470 C.3    93  MET93       0.0387
    108  CG        45.8570    6.2620    3.0520 C.3    93  MET93       0.0595
    109  SD        47.1030    5.8370    4.2660 S.3    93  MET93      -0.1393
    110  CE        46.3740    6.7430    5.6280 C.3    93  MET93       0.0692
    111  N         40.7940   -1.4450    9.4330 N.3    99  ALA99      -0.1245
    112  CA        41.4220   -0.1250    9.5330 C.3    99  ALA99       0.1562
    113  C         40.4810    0.9070   10.1450 C.2    99  ALA99       0.2260
    114  O         40.8960    2.0350   10.4220 O.2    99  ALA99      -0.2867
    115  CB        41.8850    0.3430    8.1500 C.3    99  ALA99       0.0290
    116  N         41.2950    6.7220   16.9370 N.3   112  HIS112     -0.1226
    117  CA        42.2460    7.8080   16.6500 C.3   112  HIS112      0.1752
    118  C         41.7330    8.7130   15.5360 C.2   112  HIS112      0.2596
    119  O         41.4220    8.2270   14.4430 O.2   112  HIS112     -0.2718
    120  CB        43.6100    7.2370   16.2590 C.3   112  HIS112      0.0759
    121  CG        44.5620    8.2430   15.6920 C.ar  112  HIS112      0.0818
    122  ND1       45.2500    8.0330   14.5080 N.ar  112  HIS112     -0.2268
    123  CD2       44.9640    9.4530   16.1440 C.ar  112  HIS112      0.1154
    124  CE1       46.0210    9.0730   14.2590 C.ar  112  HIS112      0.1986
    125  NE2       45.8650    9.9510   15.2360 N.ar  112  HIS112     -0.2212
    126  N         41.6700   10.0180   15.8170 N.am  113  ASN113     -0.1960
    127  CA        41.3610   11.0490   14.8400 C.3   113  ASN113      0.1819
    128  C         42.6570   11.7930   14.5890 C.2   113  ASN113      0.2622
    129  O         43.1710   12.4890   15.4670 O.2   113  ASN113     -0.2715
    130  CB        40.2430   11.9760   15.3530 C.3   113  ASN113      0.1195
    131  CG        40.0230   13.2240   14.4900 C.2   113  ASN113      0.2630
    132  OD1       39.4640   14.2240   14.9650 O.2   113  ASN113     -0.2716
    133  ND2       40.4340   13.1710   13.2220 N.am  113  ASN113     -0.0877
    134  N         43.1940   11.6340   13.3840 N.am  114  GLY114     -0.1940
    135  CA        44.4010   12.3450   13.0300 C.3   114  GLY114      0.2014
    136  C         45.2930   11.6260   12.0370 C.2   114  GLY114      0.2638
    137  O         44.8230   10.9010   11.1530 O.2   114  GLY114     -0.2714
    138  N         46.5930   11.8440   12.2090 N.am  115  LEU115     -0.1977
    139  CA        47.5960   11.4750   11.2360 C.3   115  LEU115      0.1596
    140  C         48.9010   11.3080   11.9850 C.2   115  LEU115      0.2287
    141  O         49.2080   12.1400   12.8170 O.2   115  LEU115     -0.2864
    142  CB        47.7470   12.6120   10.2100 C.3   115  LEU115      0.0297
    143  CG        48.8460   12.5700    9.1550 C.3   115  LEU115      0.0022
    144  CD1       48.4360   11.6710    8.0100 C.3   115  LEU115      0.0001
    145  CD2       49.2170   13.9700    8.6730 C.3   115  LEU115      0.0001
    146  N         47.2290    0.6040    8.6650 N.3   131  VAL131     -0.1231
    147  CA        46.9760    2.0570    8.6660 C.3   131  VAL131      0.1692
    148  C         47.6450    2.6840    9.8840 C.2   131  VAL131      0.2592
    149  O         47.7960    2.0250   10.9070 O.2   131  VAL131     -0.2718
    150  CB        45.4580    2.3790    8.6700 C.3   131  VAL131      0.0266
    151  CG1       44.7830    1.8260    9.9040 C.3   131  VAL131      0.0020
    152  CG2       45.2100    3.8730    8.5900 C.3   131  VAL131      0.0020
    153  N         48.0070    3.9600    9.7760 N.am  132  ASP132     -0.1960
    154  CA        48.7610    4.6090   10.8280 C.3   132  ASP132      0.1840
    155  C         48.0540    4.5250   12.1740 C.2   132  ASP132      0.2622
    156  O         48.6920    4.2340   13.1840 O.2   132  ASP132     -0.2715
    157  CB        49.0880    6.0680   10.4420 C.3   132  ASP132      0.1450
    158  CG        47.8600    6.9840   10.2900 C.2   132  ASP132      0.3671
    159  OD1       46.6920    6.5340   10.2220 O.co2 132  ASP132     -0.2456
    160  OD2       48.1010    8.2060   10.2130 O.co2 132  ASP132     -0.2456
    161  N         46.7390    4.7000   12.1880 N.am  133  SER133     -0.1950
    162  CA        45.9760    4.6240   13.4320 C.3   133  SER133      0.1924
    163  C         46.1140    3.2530   14.1340 C.2   133  SER133      0.2314
    164  O         46.1180    3.1680   15.3530 O.2   133  SER133     -0.2863
    165  CB        44.5000    4.9040   13.1550 C.3   133  SER133      0.2116
    166  OG        44.3280    6.2100   12.6060 O.3   133  SER133     -0.2180
    167  N         48.7310   14.6150   14.3100 N.3   163  ARG163     -0.1245
    168  CA        47.5350   14.9420   15.0580 C.3   163  ARG163      0.1563
    169  C         47.0780   13.6490   15.7410 C.2   163  ARG163      0.2260
    170  O         46.9540   12.5920   15.1060 O.2   163  ARG163     -0.2867
    171  CB        46.4710   15.5430   14.1440 C.3   163  ARG163      0.0307
    172  CG        46.9030   16.8210   13.4790 C.3   163  ARG163      0.0489
    173  CD        45.7600   17.4650   12.6640 C.3   163  ARG163      0.2205
    174  NE        45.4970   16.6970   11.4450 N.pl3 163  ARG163     -0.0865
    175  CZ        46.2110   16.8230   10.3330 C.cat 163  ARG163      0.5346
    176  NH1       47.2260   17.6690   10.2870 N.pl3 163  ARG163      0.1354
    177  NH2       45.9290   16.0980    9.2720 N.pl3 163  ARG163      0.1354
    178  N         43.3250   18.3360   17.0570 N.3   181  ASP181     -0.1239
    179  CA        41.9560   18.3140   16.5390 C.3   181  ASP181      0.1674
    180  C         40.9580   18.4520   17.6810 C.2   181  ASP181      0.2266
    181  O         41.3330   18.5730   18.8600 O.2   181  ASP181     -0.2867
    182  CB        41.6940   17.0480   15.7100 C.3   181  ASP181      0.1410
    183  CG        40.8050   17.3230   14.4890 C.2   181  ASP181      0.3668
    184  OD1       39.7730   18.0140   14.6570 O.co2 181  ASP181     -0.2456
    185  OD2       41.1350   16.8650   13.3660 O.co2 181  ASP181     -0.2456
@<TRIPOS>BOND
     1   101    99    1
     2   102   100    1
     3    99   100    1
     4    99    96    1
     5    98    97    2
     6    97    96    1
     7    96    95    1
     8    95    90   am
     9    35    34    1
    10   103   104    1
    11    44    43    1
    12   106   105    2
    13    90    91    2
    14    90    89    1
    15    43    42    1
    16    34    36    1
    17    34    33    1
    18   105   104    1
    19   104   107    1
    20    64    63   ar
    21    89    92    1
    22    89    88    1
    23    33    30    1
    24    92    93    1
    25    92    94    1
    26    86    85    2
    27   107   108    1
    28    57    54    1
    29    42    41    1
    30   108   109    1
    31    63    65   ar
    32    63    62    1
    33    56    55    2
    34    88    85   am
    35    85    84    1
    36    30    29    1
    37    30    31    1
    38    41    38    1
    39    55    54    1
    40    55    58   am
    41    29    27   am
    42   109   110    1
    43    54    53    1
    44    59    62    1
    45    59    58    1
    46    59    60    1
    47    31    32    2
    48    31    37   am
    49    87    84    1
    50    37    38    1
    51    84    83    1
    52    53    47   am
    53    27    26    1
    54    27    28    2
    55    38    39    1
    56    83    79   am
    57    26    25    1
    58    60    61    2
    59    82    81    1
    60    75    74    1
    61    39    40    2
    62    39    45   am
    63    25    17   am
    64    45    46    1
    65    76    74    1
    66    47    46    1
    67    47    48    2
    68    79    78    1
    69    79    80    2
    70    74    73    2
    71    78    81    1
    72    78    77    1
    73    46    49    1
    74    69    68    2
    75    17    16    1
    76    17    18    2
    77    73    72    1
    78    16    19    1
    79    16    15    1
    80    72    71    1
    81    77    68   am
    82    68    67    1
    83   144   143    1
    84   115   112    1
    85    71    70    1
    86    49    50    1
    87    14    12   am
    88   152   150    1
    89    21    20   ar
    90    21    23   ar
    91    19    20    1
    92   146   147    1
    93   147   150    1
    94   147   148    1
    95   150   151    1
    96   145   143    1
    97    70    67    1
    98     9     8    2
    99    50    52   am
   100    50    51    2
   101    67    66    1
   102   143   142    1
   103   177   175    1
   104    20    22   ar
   105    12    11    1
   106    12    13    2
   107    23    24   ar
   108   111   112    1
   109   112   113    1
   110    11    10    1
   111   153   148   am
   112   153   154    1
   113     8     7    1
   114   148   149    2
   115    10     7    1
   116   113   114    2
   117   142   139    1
   118   160   158   ar
   119   159   158   ar
   120   176   175    1
   121   158   157    1
   122   175   174    2
   123     1     2    1
   124   157   154    1
   125    22    24   ar
   126     7     6    1
   127   154   155    1
   128   137   136    2
   129   139   140    1
   130   139   138    1
   131     2     5    1
   132     2     3    1
   133   174   173    1
   134   140   141    2
   135   136   138   am
   136   136   135    1
   137   155   161   am
   138   155   156    2
   139   161   162    1
   140     3     4    2
   141   166   165    1
   142   173   172    1
   143   135   134    1
   144   165   162    1
   145   133   131   am
   146   185   183   ar
   147   134   128   am
   148   162   163    1
   149   172   171    1
   150   163   164    2
   151   171   168    1
   152   124   122   ar
   153   124   125   ar
   154   167   168    1
   155   119   118    2
   156   183   184   ar
   157   183   182    1
   158   131   132    2
   159   131   130    1
   160   122   121   ar
   161   128   127    1
   162   128   129    2
   163   127   130    1
   164   127   126    1
   165   168   169    1
   166   170   169    2
   167   125   123   ar
   168   118   126   am
   169   118   117    1
   170   121   123   ar
   171   121   120    1
   172   182   179    1
   173   120   117    1
   174   179   178    1
   175   179   180    1
   176   117   116    1
   177   180   181    2
