@<TRIPOS>MOLECULE
tmp/4zfmD00.pdb
 164 163 0 0 0
SMALL
GASTEIGER

@<TRIPOS>ATOM
      1  N         -5.1410  -40.7620  -87.8020 N.3    19  GLN19      -0.1245
      2  CA        -4.8030  -39.4060  -87.4670 C.3    19  GLN19       0.1566
      3  C         -3.6740  -39.3120  -86.5100 C.2    19  GLN19       0.2260
      4  O         -3.0030  -38.2700  -86.4000 O.2    19  GLN19      -0.2867
      5  CB        -6.0310  -38.6910  -86.9050 C.3    19  GLN19       0.0367
      6  CG        -7.1730  -38.5870  -87.8920 C.3    19  GLN19       0.0905
      7  CD        -8.2970  -37.7270  -87.3920 C.2    19  GLN19       0.2608
      8  OE1       -9.2250  -38.1900  -86.7660 O.2    19  GLN19      -0.2717
      9  NE2       -8.1680  -36.4370  -87.6110 N.am   19  GLN19      -0.0878
     10  N        -12.9180  -46.4030  -87.7670 N.3   120  HIS120     -0.1226
     11  CA       -12.8080  -44.9900  -88.0980 C.3   120  HIS120      0.1752
     12  C        -12.2450  -44.8690  -89.5090 C.2   120  HIS120      0.2596
     13  O        -11.1560  -44.2720  -89.6990 O.2   120  HIS120     -0.2718
     14  CB       -12.0720  -44.1650  -87.0250 C.3   120  HIS120      0.0759
     15  CG       -12.3310  -42.6930  -87.1540 C.ar  120  HIS120      0.0818
     16  ND1      -12.6340  -41.9000  -86.0770 N.ar  120  HIS120     -0.2268
     17  CD2      -12.2710  -41.8640  -88.2030 C.ar  120  HIS120      0.1154
     18  CE1      -12.7550  -40.6350  -86.4770 C.ar  120  HIS120      0.1986
     19  NE2      -12.6060  -40.5970  -87.7550 N.ar  120  HIS120     -0.2212
     20  N        -12.9270  -45.3790  -90.4770 N.am  121  TRP121     -0.1976
     21  CA       -12.8670  -44.9670  -91.8620 C.3   121  TRP121      0.1640
     22  C        -11.7960  -45.5990  -92.6940 C.2   121  TRP121      0.2290
     23  O        -11.6630  -45.2480  -93.8830 O.2   121  TRP121     -0.2864
     24  CB       -12.7740  -43.4150  -92.0140 C.3   121  TRP121      0.0576
     25  CG       -13.8010  -42.6140  -91.2450 C.ar  121  TRP121      0.0006
     26  CD1      -14.8980  -43.0780  -90.5550 C.ar  121  TRP121      0.0946
     27  CD2      -13.8080  -41.1750  -91.1270 C.ar  121  TRP121      0.0152
     28  NE1      -15.5830  -41.9690  -90.0440 N.ar  121  TRP121     -0.2442
     29  CE2      -14.9330  -40.8250  -90.3500 C.ar  121  TRP121      0.0810
     30  CE3      -12.9400  -40.1810  -91.5820 C.ar  121  TRP121      0.0012
     31  CZ2      -15.2180  -39.5180  -90.0290 C.ar  121  TRP121      0.0191
     32  CZ3      -13.2330  -38.8980  -91.2540 C.ar  121  TRP121      0.0001
     33  CH2      -14.3730  -38.5710  -90.4950 C.ar  121  TRP121      0.0015
     34  N        -19.2090  -42.2930  -86.8770 N.3   166  GLN166     -0.1245
     35  CA       -19.6260  -41.3110  -87.8570 C.3   166  GLN166      0.1566
     36  C        -19.8420  -41.9760  -89.2200 C.2   166  GLN166      0.2260
     37  O        -19.3540  -41.5110  -90.2830 O.2   166  GLN166     -0.2867
     38  CB       -18.6970  -40.1700  -87.9570 C.3   166  GLN166      0.0367
     39  CG       -18.3120  -39.5940  -86.6040 C.3   166  GLN166      0.0905
     40  CD       -17.3160  -38.5130  -86.6790 C.2   166  GLN166      0.2608
     41  OE1      -16.0520  -38.7150  -86.6440 O.2   166  GLN166     -0.2717
     42  NE2      -17.7960  -37.3640  -86.7090 N.am  166  GLN166     -0.0878
     43  N        -20.8820  -39.5750  -91.9000 N.3   169  ILE169     -0.1245
     44  CA       -19.7350  -38.8970  -92.5040 C.3   169  ILE169      0.1561
     45  C        -19.0200  -39.7890  -93.4660 C.2   169  ILE169      0.2260
     46  O        -18.8490  -39.4070  -94.6580 O.2   169  ILE169     -0.2867
     47  CB       -18.7960  -38.3240  -91.4920 C.3   169  ILE169      0.0252
     48  CG1      -19.5620  -37.3750  -90.5380 C.3   169  ILE169      0.0019
     49  CG2      -17.6060  -37.6450  -92.1800 C.3   169  ILE169      0.0019
     50  CD1      -20.2340  -36.2050  -91.0750 C.3   169  ILE169      0.0001
     51  N        -20.2670  -31.0110  -82.9920 N.3   297  TYR297     -0.1241
     52  CA       -19.6280  -29.7110  -83.1930 C.3   297  TYR297      0.1605
     53  C        -20.6100  -28.5930  -83.3650 C.2   297  TYR297      0.2264
     54  O        -20.2630  -27.4700  -82.9100 O.2   297  TYR297     -0.2867
     55  CB       -18.7390  -29.7620  -84.4760 C.3   297  TYR297      0.0534
     56  CG       -17.4880  -30.6110  -84.2430 C.ar  297  TYR297     -0.0201
     57  CD1      -16.4230  -30.1210  -83.4520 C.ar  297  TYR297     -0.0009
     58  CD2      -17.4170  -31.9220  -84.6290 C.ar  297  TYR297     -0.0009
     59  CE1      -15.2860  -30.8660  -83.2050 C.ar  297  TYR297      0.0417
     60  CE2      -16.3000  -32.6910  -84.3880 C.ar  297  TYR297      0.0417
     61  CZ       -15.2560  -32.1080  -83.7070 C.ar  297  TYR297      0.1957
     62  OH       -14.0590  -32.8530  -83.5180 O.3   297  TYR297     -0.2866
     63  N        -16.8510  -22.4990  -88.2220 N.3   335  TRP335     -0.1241
     64  CA       -17.7250  -23.5270  -87.6380 C.3   335  TRP335      0.1605
     65  C        -18.6100  -22.7520  -86.6380 C.2   335  TRP335      0.2264
     66  O        -18.1340  -21.8180  -85.9410 O.2   335  TRP335     -0.2867
     67  CB       -16.9750  -24.6170  -86.8970 C.3   335  TRP335      0.0550
     68  CG       -16.3050  -25.5500  -87.8470 C.ar  335  TRP335      0.0003
     69  CD1      -15.9700  -25.2640  -89.1660 C.ar  335  TRP335      0.0946
     70  CD2      -15.9100  -26.9310  -87.6110 C.ar  335  TRP335      0.0152
     71  NE1      -15.3560  -26.3740  -89.7430 N.ar  335  TRP335     -0.2442
     72  CE2      -15.3170  -27.4090  -88.8300 C.ar  335  TRP335      0.0810
     73  CE3      -16.0040  -27.7980  -86.5240 C.ar  335  TRP335      0.0012
     74  CZ2      -14.7990  -28.6980  -88.9710 C.ar  335  TRP335      0.0191
     75  CZ3      -15.4500  -29.0880  -86.6550 C.ar  335  TRP335      0.0001
     76  CH2      -14.8840  -29.5310  -87.8860 C.ar  335  TRP335      0.0015
     77  N        -16.9000  -37.2540  -79.0620 N.3   361  GLU361     -0.1245
     78  CA       -16.0940  -36.2130  -79.6960 C.3   361  GLU361      0.1567
     79  C        -16.7570  -34.8730  -79.6020 C.2   361  GLU361      0.2260
     80  O        -17.8980  -34.7090  -79.9820 O.2   361  GLU361     -0.2867
     81  CB       -15.8920  -36.5920  -81.1780 C.3   361  GLU361      0.0388
     82  CG       -15.2900  -35.5890  -82.0970 C.3   361  GLU361      0.1160
     83  CD       -14.9770  -36.1240  -83.5120 C.2   361  GLU361      0.3649
     84  OE1      -15.4520  -37.2460  -83.8280 O.co2 361  GLU361     -0.2457
     85  OE2      -14.3720  -35.3460  -84.2310 O.co2 361  GLU361     -0.2457
     86  N        -12.1180  -33.9050  -77.9840 N.3   408  TRP408     -0.1241
     87  CA       -11.4130  -34.1230  -79.2330 C.3   408  TRP408      0.1605
     88  C        -10.3870  -33.0540  -79.2960 C.2   408  TRP408      0.2264
     89  O        -10.7790  -31.8920  -79.5250 O.2   408  TRP408     -0.2867
     90  CB       -12.3270  -34.0880  -80.4410 C.3   408  TRP408      0.0550
     91  CG       -11.6600  -34.4990  -81.7280 C.ar  408  TRP408      0.0003
     92  CD1      -11.1450  -33.7170  -82.6760 C.ar  408  TRP408      0.0946
     93  CD2      -11.3600  -35.8740  -82.0880 C.ar  408  TRP408      0.0152
     94  NE1      -10.5930  -34.4810  -83.6660 N.ar  408  TRP408     -0.2442
     95  CE2      -10.7320  -35.8210  -83.3180 C.ar  408  TRP408      0.0810
     96  CE3      -11.6620  -37.1120  -81.5060 C.ar  408  TRP408      0.0012
     97  CZ2      -10.2860  -36.9490  -83.9660 C.ar  408  TRP408      0.0191
     98  CZ3      -11.2280  -38.1980  -82.2250 C.ar  408  TRP408      0.0001
     99  CH2      -10.5770  -38.1030  -83.3990 C.ar  408  TRP408      0.0015
    100  N         -3.2790  -33.9170  -83.8080 N.3   413  LEU413     -0.1245
    101  CA        -3.2700  -34.9920  -84.7550 C.3   413  LEU413      0.1561
    102  C         -3.3740  -34.5310  -86.2090 C.2   413  LEU413      0.2260
    103  O         -3.5080  -33.3870  -86.4800 O.2   413  LEU413     -0.2867
    104  CB        -4.3090  -36.0330  -84.3400 C.3   413  LEU413      0.0270
    105  CG        -5.6340  -35.4790  -83.9120 C.3   413  LEU413      0.0019
    106  CD1       -6.2280  -34.8440  -85.1270 C.3   413  LEU413      0.0001
    107  CD2       -6.5090  -36.5620  -83.3780 C.3   413  LEU413      0.0001
    108  N         -5.1510  -34.0090  -89.6330 N.3   415  SER415     -0.1202
    109  CA        -6.5050  -33.9680  -90.1800 C.3   415  SER415      0.2020
    110  C         -6.5250  -34.7280  -91.4690 C.2   415  SER415      0.2619
    111  O         -5.5320  -34.9290  -92.1480 O.2   415  SER415     -0.2717
    112  CB        -7.0330  -32.5730  -90.3760 C.3   415  SER415      0.2103
    113  OG        -6.3560  -31.9460  -91.4240 O.3   415  SER415     -0.2182
    114  N         -7.7020  -35.2100  -91.8350 N.am  416  TRP416     -0.1961
    115  CA        -7.8780  -36.0110  -93.0090 C.3   416  TRP416      0.1771
    116  C         -7.3930  -35.3180  -94.2810 C.2   416  TRP416      0.2619
    117  O         -6.7060  -35.9740  -95.0700 O.2   416  TRP416     -0.2715
    118  CB        -9.3500  -36.4530  -93.1090 C.3   416  TRP416      0.0590
    119  CG        -9.7850  -37.1880  -91.9230 C.ar  416  TRP416      0.0006
    120  CD1      -10.3840  -36.6860  -90.8310 C.ar  416  TRP416      0.0946
    121  CD2       -9.5100  -38.5690  -91.5990 C.ar  416  TRP416      0.0152
    122  NE1      -10.4990  -37.6530  -89.8540 N.ar  416  TRP416     -0.2442
    123  CE2       -9.9620  -38.8150  -90.3070 C.ar  416  TRP416      0.0810
    124  CE3       -8.9310  -39.6090  -92.2980 C.ar  416  TRP416      0.0012
    125  CZ2       -9.9190  -40.0560  -89.6950 C.ar  416  TRP416      0.0191
    126  CZ3       -8.8830  -40.8830  -91.6880 C.ar  416  TRP416      0.0001
    127  CH2       -9.3650  -41.0520  -90.4070 C.ar  416  TRP416      0.0015
    128  N         -7.7610  -34.0790  -94.4450 N.am  417  LEU417     -0.1963
    129  CA        -7.4820  -33.3530  -95.6680 C.3   417  LEU417      0.1728
    130  C         -6.7310  -32.0620  -95.4360 C.2   417  LEU417      0.2616
    131  O         -6.2350  -31.4990  -96.4670 O.2   417  LEU417     -0.2715
    132  CB        -8.8030  -33.0030  -96.4470 C.3   417  LEU417      0.0311
    133  CG        -9.6220  -34.2760  -96.8600 C.3   417  LEU417      0.0022
    134  CD1      -10.9280  -33.7480  -97.5310 C.3   417  LEU417      0.0001
    135  CD2       -8.8380  -35.1660  -97.7880 C.3   417  LEU417      0.0001
    136  N         -6.6100  -31.5710  -94.2150 N.am  418  ASN418     -0.1972
    137  CA        -6.1850  -30.1580  -94.0030 C.3   418  ASN418      0.1688
    138  C         -4.8610  -30.0600  -93.2170 C.2   418  ASN418      0.2292
    139  O         -4.5790  -29.0170  -92.6830 O.2   418  ASN418     -0.2864
    140  CB        -7.2660  -29.4190  -93.2670 C.3   418  ASN418      0.1181
    141  CG        -8.5280  -29.3380  -94.0550 C.2   418  ASN418      0.2629
    142  OD1       -8.4730  -28.9350  -95.1760 O.2   418  ASN418     -0.2716
    143  ND2       -9.6180  -29.8630  -93.5250 N.am  418  ASN418     -0.0877
    144  N         -4.5360  -26.5880  -87.8140 N.3   422  LYS422     -0.1245
    145  CA        -5.7570  -26.3780  -87.0110 C.3   422  LYS422      0.1561
    146  C         -5.7730  -27.4980  -85.9460 C.2   422  LYS422      0.2260
    147  O         -6.1680  -28.6250  -86.2190 O.2   422  LYS422     -0.2867
    148  CB        -7.0210  -26.3530  -87.9070 C.3   422  LYS422      0.0271
    149  CG        -8.3020  -26.0850  -87.1920 C.3   422  LYS422      0.0035
    150  CD        -9.4890  -26.3470  -88.1610 C.3   422  LYS422      0.0206
    151  CE       -10.8750  -26.2560  -87.5530 C.3   422  LYS422      0.1093
    152  NZ       -11.8920  -26.6150  -88.6050 N.3   422  LYS422     -0.1314
    153  N         -6.2980  -29.5310  -82.2950 N.3   424  TYR424     -0.1241
    154  CA        -7.3740  -29.8750  -81.4150 C.3   424  TYR424      0.1605
    155  C         -6.9650  -30.4020  -80.0250 C.2   424  TYR424      0.2264
    156  O         -7.7460  -30.6420  -79.1800 O.2   424  TYR424     -0.2867
    157  CB        -8.3020  -30.9640  -81.9910 C.3   424  TYR424      0.0534
    158  CG        -9.1970  -30.5090  -83.0960 C.ar  424  TYR424     -0.0201
    159  CD1       -8.7570  -30.4630  -84.4060 C.ar  424  TYR424     -0.0009
    160  CD2      -10.4610  -30.1540  -82.8260 C.ar  424  TYR424     -0.0009
    161  CE1       -9.6520  -29.9830  -85.4700 C.ar  424  TYR424      0.0417
    162  CE2      -11.3370  -29.7380  -83.8310 C.ar  424  TYR424      0.0417
    163  CZ       -10.9170  -29.6600  -85.0560 C.ar  424  TYR424      0.1957
    164  OH       -11.8790  -29.1940  -86.0080 O.3   424  TYR424     -0.2866
@<TRIPOS>BOND
     1   135   133    1
     2   134   133    1
     3   133   132    1
     4   131   130    2
     5   132   129    1
     6   129   130    1
     7   129   128    1
     8   130   136   am
     9   142   141    2
    10   117   116    2
    11    46    45    2
    12   128   116   am
    13   116   115    1
    14   136   137    1
    15   141   143   am
    16   141   140    1
    17   137   140    1
    18   137   138    1
    19    23    22    2
    20    45    44    1
    21   138   139    2
    22   118   115    1
    23   118   119    1
    24   115   114    1
    25    22    21    1
    26    44    43    1
    27    44    47    1
    28   124   126   ar
    29   124   121   ar
    30    49    47    1
    31   111   110    2
    32    24    21    1
    33    24    25    1
    34   119   121   ar
    35   119   120   ar
    36    21    20    1
    37   114   110   am
    38   126   127   ar
    39   121   123   ar
    40    30    32   ar
    41    30    27   ar
    42    47    48    1
    43   110   109    1
    44   113   112    1
    45    32    33   ar
    46    25    27   ar
    47    25    26   ar
    48    27    29   ar
    49    50    48    1
    50   120   122   ar
    51    26    28   ar
    52    33    31   ar
    53    20    12   am
    54   127   125   ar
    55   112   109    1
    56    29    28   ar
    57    29    31   ar
    58   123   122   ar
    59   123   125   ar
    60    37    36    2
    61   109   108    1
    62    71    69   ar
    63    71    72   ar
    64    13    12    2
    65    12    11    1
    66    36    35    1
    67    69    68   ar
    68    74    72   ar
    69    74    76   ar
    70    72    70   ar
    71   152   151    1
    72    63    64    1
    73    17    19   ar
    74    17    15   ar
    75   150   151    1
    76   150   149    1
    77    11    10    1
    78    11    14    1
    79    38    35    1
    80    38    39    1
    81   148   149    1
    82   148   145    1
    83     6     7    1
    84     6     5    1
    85    76    75   ar
    86    35    34    1
    87    68    70   ar
    88    68    67    1
    89   144   145    1
    90     1     2    1
    91    19    18   ar
    92    64    67    1
    93    64    65    1
    94     9     7   am
    95    70    73   ar
    96     2     5    1
    97     2     3    1
    98     7     8    2
    99    15    14    1
   100    15    16   ar
   101   145   146    1
   102    42    40   am
   103    40    41    2
   104    40    39    1
   105    75    73   ar
   106    65    66    2
   107     3     4    2
   108   103   102    2
   109    18    16   ar
   110   147   146    2
   111   102   101    1
   112   164   163    1
   113   161   163   ar
   114   161   159   ar
   115   106   105    1
   116   163   162   ar
   117   101   104    1
   118   101   100    1
   119    58    60   ar
   120    58    56   ar
   121    55    56    1
   122    55    52    1
   123   159   158   ar
   124    60    61   ar
   125   104   105    1
   126    56    57   ar
   127    85    83   ar
   128    97    99   ar
   129    97    95   ar
   130   105   107    1
   131   162   160   ar
   132    84    83   ar
   133    61    62    1
   134    61    59   ar
   135    94    95   ar
   136    94    92   ar
   137    83    82    1
   138    57    59   ar
   139    99    98   ar
   140    53    52    1
   141    53    54    2
   142    95    93   ar
   143    52    51    1
   144   158   160   ar
   145   158   157    1
   146    92    91   ar
   147   153   154    1
   148    98    96   ar
   149    82    81    1
   150    93    91   ar
   151    93    96   ar
   152   157   154    1
   153    91    90    1
   154   154   155    1
   155    81    78    1
   156    90    87    1
   157   155   156    2
   158    80    79    2
   159    78    79    1
   160    78    77    1
   161    89    88    2
   162    88    87    1
   163    87    86    1
