@<TRIPOS>MOLECULE
tmp/4zfmD01.pdb
 123 121 0 0 0
SMALL
GASTEIGER

@<TRIPOS>ATOM
      1  N        -12.9270  -45.3790  -90.4770 N.3   121  TRP121     -0.1241
      2  CA       -12.8670  -44.9670  -91.8620 C.3   121  TRP121      0.1605
      3  C        -11.7960  -45.5990  -92.6940 C.2   121  TRP121      0.2264
      4  O        -11.6630  -45.2480  -93.8830 O.2   121  TRP121     -0.2867
      5  CB       -12.7740  -43.4150  -92.0140 C.3   121  TRP121      0.0550
      6  CG       -13.8010  -42.6140  -91.2450 C.ar  121  TRP121      0.0003
      7  CD1      -14.8980  -43.0780  -90.5550 C.ar  121  TRP121      0.0946
      8  CD2      -13.8080  -41.1750  -91.1270 C.ar  121  TRP121      0.0152
      9  NE1      -15.5830  -41.9690  -90.0440 N.ar  121  TRP121     -0.2442
     10  CE2      -14.9330  -40.8250  -90.3500 C.ar  121  TRP121      0.0810
     11  CE3      -12.9400  -40.1810  -91.5820 C.ar  121  TRP121      0.0012
     12  CZ2      -15.2180  -39.5180  -90.0290 C.ar  121  TRP121      0.0191
     13  CZ3      -13.2330  -38.8980  -91.2540 C.ar  121  TRP121      0.0001
     14  CH2      -14.3730  -38.5710  -90.4950 C.ar  121  TRP121      0.0015
     15  N        -19.2090  -42.2930  -86.8770 N.3   166  GLN166     -0.1245
     16  CA       -19.6260  -41.3110  -87.8570 C.3   166  GLN166      0.1566
     17  C        -19.8420  -41.9760  -89.2200 C.2   166  GLN166      0.2260
     18  O        -19.3540  -41.5110  -90.2830 O.2   166  GLN166     -0.2867
     19  CB       -18.6970  -40.1700  -87.9570 C.3   166  GLN166      0.0367
     20  CG       -18.3120  -39.5940  -86.6040 C.3   166  GLN166      0.0905
     21  CD       -17.3160  -38.5130  -86.6790 C.2   166  GLN166      0.2608
     22  OE1      -16.0520  -38.7150  -86.6440 O.2   166  GLN166     -0.2717
     23  NE2      -17.7960  -37.3640  -86.7090 N.am  166  GLN166     -0.0878
     24  N        -20.8820  -39.5750  -91.9000 N.3   169  ILE169     -0.1245
     25  CA       -19.7350  -38.8970  -92.5040 C.3   169  ILE169      0.1561
     26  C        -19.0200  -39.7890  -93.4660 C.2   169  ILE169      0.2260
     27  O        -18.8490  -39.4070  -94.6580 O.2   169  ILE169     -0.2867
     28  CB       -18.7960  -38.3240  -91.4920 C.3   169  ILE169      0.0252
     29  CG1      -19.5620  -37.3750  -90.5380 C.3   169  ILE169      0.0019
     30  CG2      -17.6060  -37.6450  -92.1800 C.3   169  ILE169      0.0019
     31  CD1      -20.2340  -36.2050  -91.0750 C.3   169  ILE169      0.0001
     32  N        -19.4850  -38.5520  -97.2060 N.3   173  PHE173     -0.1241
     33  CA       -18.3000  -37.9480  -97.7700 C.3   173  PHE173      0.1605
     34  C        -17.6980  -38.9210  -98.7830 C.2   173  PHE173      0.2264
     35  O        -17.0660  -38.4110  -99.7710 O.2   173  PHE173     -0.2867
     36  CB       -17.2790  -37.5880  -96.7220 C.3   173  PHE173      0.0534
     37  CG       -17.5240  -36.3060  -95.9710 C.ar  173  PHE173     -0.0203
     38  CD1      -18.7860  -35.9870  -95.5490 C.ar  173  PHE173     -0.0042
     39  CD2      -16.5080  -35.5960  -95.5220 C.ar  173  PHE173     -0.0042
     40  CE1      -19.0050  -34.8360  -94.8130 C.ar  173  PHE173     -0.0003
     41  CE2      -16.7170  -34.4190  -94.7930 C.ar  173  PHE173     -0.0003
     42  CZ       -18.0050  -34.0230  -94.4770 C.ar  173  PHE173     -0.0000
     43  N        -13.9360  -38.0550  -99.4840 N.3   180  HIS180     -0.1241
     44  CA       -13.2250  -39.1530  -98.8020 C.3   180  HIS180      0.1621
     45  C        -13.2900  -40.3550  -99.6610 C.2   180  HIS180      0.2264
     46  O        -14.0840  -40.4230 -100.6090 O.2   180  HIS180     -0.2867
     47  CB       -13.9250  -39.3680  -97.4510 C.3   180  HIS180      0.0745
     48  CG       -13.6570  -38.3010  -96.4560 C.ar  180  HIS180      0.0817
     49  ND1      -14.0970  -38.5060  -95.1400 N.ar  180  HIS180     -0.2268
     50  CD2      -13.0540  -37.1090  -96.5150 C.ar  180  HIS180      0.1154
     51  CE1      -13.7780  -37.4230  -94.4980 C.ar  180  HIS180      0.1986
     52  NE2      -13.1350  -36.5590  -95.2460 N.ar  180  HIS180     -0.2212
     53  N        -22.4750  -38.6470  -85.9820 N.3   222  ALA222     -0.1245
     54  CA       -22.0900  -37.2180  -86.1180 C.3   222  ALA222      0.1562
     55  C        -23.3700  -36.3860  -86.1770 C.2   222  ALA222      0.2260
     56  O        -23.9890  -36.3400  -87.2200 O.2   222  ALA222     -0.2867
     57  CB       -21.1970  -37.0540  -87.2970 C.3   222  ALA222      0.0290
     58  N        -20.9460  -37.5410  -81.6770 N.3   295  ASN295     -0.1240
     59  CA       -19.8500  -36.6150  -82.0990 C.3   295  ASN295      0.1653
     60  C        -20.5410  -35.2900  -82.3850 C.2   295  ASN295      0.2266
     61  O        -21.3650  -35.2190  -83.3190 O.2   295  ASN295     -0.2867
     62  CB       -19.1430  -37.1080  -83.4050 C.3   295  ASN295      0.1155
     63  CG       -18.8430  -38.6030  -83.3910 C.2   295  ASN295      0.2627
     64  OD1      -19.7960  -39.3740  -83.5630 O.2   295  ASN295     -0.2716
     65  ND2      -17.6160  -39.0220  -83.3150 N.am  295  ASN295     -0.0877
     66  N        -20.2670  -31.0110  -82.9920 N.3   297  TYR297     -0.1227
     67  CA       -19.6280  -29.7110  -83.1930 C.3   297  TYR297      0.1736
     68  C        -20.6100  -28.5930  -83.3650 C.2   297  TYR297      0.2595
     69  O        -20.2630  -27.4700  -82.9100 O.2   297  TYR297     -0.2718
     70  CB       -18.7390  -29.7620  -84.4760 C.3   297  TYR297      0.0548
     71  CG       -17.4880  -30.6110  -84.2430 C.ar  297  TYR297     -0.0200
     72  CD1      -16.4230  -30.1210  -83.4520 C.ar  297  TYR297     -0.0009
     73  CD2      -17.4170  -31.9220  -84.6290 C.ar  297  TYR297     -0.0009
     74  CE1      -15.2860  -30.8660  -83.2050 C.ar  297  TYR297      0.0417
     75  CE2      -16.3000  -32.6910  -84.3880 C.ar  297  TYR297      0.0417
     76  CZ       -15.2560  -32.1080  -83.7070 C.ar  297  TYR297      0.1957
     77  OH       -14.0590  -32.8530  -83.5180 O.3   297  TYR297     -0.2866
     78  N        -21.7340  -28.7490  -84.0470 N.am  298  GLN298     -0.1979
     79  CA       -22.5970  -27.5650  -84.3010 C.3   298  GLN298      0.1601
     80  C        -23.9460  -28.0600  -84.7290 C.2   298  GLN298      0.2287
     81  O        -24.1430  -29.1310  -85.2710 O.2   298  GLN298     -0.2864
     82  CB       -21.9860  -26.6710  -85.3550 C.3   298  GLN298      0.0394
     83  CG       -21.8100  -27.3490  -86.6640 C.3   298  GLN298      0.0908
     84  CD       -20.8260  -26.6660  -87.6080 C.2   298  GLN298      0.2608
     85  OE1      -20.9430  -25.4980  -87.8200 O.2   298  GLN298     -0.2717
     86  NE2      -19.7830  -27.3800  -88.0830 N.am  298  GLN298     -0.0878
     87  N        -16.8510  -22.4990  -88.2220 N.3   335  TRP335     -0.1241
     88  CA       -17.7250  -23.5270  -87.6380 C.3   335  TRP335      0.1605
     89  C        -18.6100  -22.7520  -86.6380 C.2   335  TRP335      0.2264
     90  O        -18.1340  -21.8180  -85.9410 O.2   335  TRP335     -0.2867
     91  CB       -16.9750  -24.6170  -86.8970 C.3   335  TRP335      0.0550
     92  CG       -16.3050  -25.5500  -87.8470 C.ar  335  TRP335      0.0003
     93  CD1      -15.9700  -25.2640  -89.1660 C.ar  335  TRP335      0.0946
     94  CD2      -15.9100  -26.9310  -87.6110 C.ar  335  TRP335      0.0152
     95  NE1      -15.3560  -26.3740  -89.7430 N.ar  335  TRP335     -0.2442
     96  CE2      -15.3170  -27.4090  -88.8300 C.ar  335  TRP335      0.0810
     97  CE3      -16.0040  -27.7980  -86.5240 C.ar  335  TRP335      0.0012
     98  CZ2      -14.7990  -28.6980  -88.9710 C.ar  335  TRP335      0.0191
     99  CZ3      -15.4500  -29.0880  -86.6550 C.ar  335  TRP335      0.0001
    100  CH2      -14.8840  -29.5310  -87.8860 C.ar  335  TRP335      0.0015
    101  N        -16.9000  -37.2540  -79.0620 N.3   361  GLU361     -0.1245
    102  CA       -16.0940  -36.2130  -79.6960 C.3   361  GLU361      0.1567
    103  C        -16.7570  -34.8730  -79.6020 C.2   361  GLU361      0.2260
    104  O        -17.8980  -34.7090  -79.9820 O.2   361  GLU361     -0.2867
    105  CB       -15.8920  -36.5920  -81.1780 C.3   361  GLU361      0.0388
    106  CG       -15.2900  -35.5890  -82.0970 C.3   361  GLU361      0.1160
    107  CD       -14.9770  -36.1240  -83.5120 C.2   361  GLU361      0.3649
    108  OE1      -15.4520  -37.2460  -83.8280 O.co2 361  GLU361     -0.2457
    109  OE2      -14.3720  -35.3460  -84.2310 O.co2 361  GLU361     -0.2457
    110  N         -7.7020  -35.2100  -91.8350 N.3   416  TRP416     -0.1241
    111  CA        -7.8780  -36.0110  -93.0090 C.3   416  TRP416      0.1605
    112  C         -7.3930  -35.3180  -94.2810 C.2   416  TRP416      0.2264
    113  O         -6.7060  -35.9740  -95.0700 O.2   416  TRP416     -0.2867
    114  CB        -9.3500  -36.4530  -93.1090 C.3   416  TRP416      0.0550
    115  CG        -9.7850  -37.1880  -91.9230 C.ar  416  TRP416      0.0003
    116  CD1      -10.3840  -36.6860  -90.8310 C.ar  416  TRP416      0.0946
    117  CD2       -9.5100  -38.5690  -91.5990 C.ar  416  TRP416      0.0152
    118  NE1      -10.4990  -37.6530  -89.8540 N.ar  416  TRP416     -0.2442
    119  CE2       -9.9620  -38.8150  -90.3070 C.ar  416  TRP416      0.0810
    120  CE3       -8.9310  -39.6090  -92.2980 C.ar  416  TRP416      0.0012
    121  CZ2       -9.9190  -40.0560  -89.6950 C.ar  416  TRP416      0.0191
    122  CZ3       -8.8830  -40.8830  -91.6880 C.ar  416  TRP416      0.0001
    123  CH2       -9.3650  -41.0520  -90.4070 C.ar  416  TRP416      0.0015
@<TRIPOS>BOND
     1    46    45    2
     2    35    34    2
     3    45    44    1
     4    43    44    1
     5    44    47    1
     6    34    33    1
     7    33    32    1
     8    33    36    1
     9    47    48    1
    10    36    37    1
    11    50    48   ar
    12    50    52   ar
    13    48    49   ar
    14    37    38   ar
    15    37    39   ar
    16    38    40   ar
    17    39    41   ar
    18    52    51   ar
    19    49    51   ar
    20   113   112    2
    21    40    42   ar
    22    41    42   ar
    23    27    26    2
    24   112   111    1
    25     4     3    2
    26    26    25    1
    27   114   111    1
    28   114   115    1
    29   111   110    1
    30     3     2    1
    31    25    24    1
    32    25    28    1
    33   120   122   ar
    34   120   117   ar
    35    30    28    1
    36     5     2    1
    37     5     6    1
    38   115   117   ar
    39   115   116   ar
    40     2     1    1
    41   122   123   ar
    42   117   119   ar
    43    11    13   ar
    44    11     8   ar
    45    28    29    1
    46    13    14   ar
    47     6     8   ar
    48     6     7   ar
    49     8    10   ar
    50    31    29    1
    51   116   118   ar
    52     7     9   ar
    53    14    12   ar
    54   123   121   ar
    55    10     9   ar
    56    10    12   ar
    57   119   118   ar
    58   119   121   ar
    59    18    17    2
    60    95    93   ar
    61    95    96   ar
    62    17    16    1
    63    93    92   ar
    64    98    96   ar
    65    98   100   ar
    66    96    94   ar
    67    87    88    1
    68    86    84   am
    69    19    16    1
    70    19    20    1
    71   100    99   ar
    72    16    15    1
    73    92    94   ar
    74    92    91    1
    75    85    84    2
    76    88    91    1
    77    88    89    1
    78    94    97   ar
    79    84    83    1
    80    57    54    1
    81    56    55    2
    82    23    21   am
    83    21    22    2
    84    21    20    1
    85    83    82    1
    86    99    97   ar
    87    89    90    2
    88    55    54    1
    89    54    53    1
    90    82    79    1
    91    81    80    2
    92    80    79    1
    93    73    75   ar
    94    73    71   ar
    95    70    71    1
    96    70    67    1
    97    75    76   ar
    98    79    78    1
    99    71    72   ar
   100   109   107   ar
   101    78    68   am
   102   108   107   ar
   103    76    77    1
   104    76    74   ar
   105    64    63    2
   106   107   106    1
   107    72    74   ar
   108    62    63    1
   109    62    59    1
   110    63    65   am
   111    68    67    1
   112    68    69    2
   113    61    60    2
   114    67    66    1
   115    60    59    1
   116    59    58    1
   117   106   105    1
   118   105   102    1
   119   104   103    2
   120   102   103    1
   121   102   101    1
