@<TRIPOS>MOLECULE
tmp/4zfnB00.pdb
 158 154 0 0 0
SMALL
GASTEIGER

@<TRIPOS>ATOM
      1  N          1.0290   15.5810   30.1670 N.3    36  VAL36      -0.1245
      2  CA        -0.0420   15.2210   29.2470 C.3    36  VAL36       0.1561
      3  C          0.5450   14.5000   28.0180 C.2    36  VAL36       0.2260
      4  O          1.1680   15.1300   27.1670 O.2    36  VAL36      -0.2867
      5  CB        -0.8190   16.4730   28.8130 C.3    36  VAL36       0.0252
      6  CG1       -1.9530   16.0870   27.8940 C.3    36  VAL36       0.0019
      7  CG2       -1.3280   17.2210   30.0450 C.3    36  VAL36       0.0019
      8  N          2.4500   14.9950   23.8370 N.3    39  GLY39      -0.1225
      9  CA         3.0230   16.2990   23.5590 C.3    39  GLY39       0.1811
     10  C          3.6800   16.9550   24.7790 C.2    39  GLY39       0.2280
     11  O          4.6140   17.7330   24.6370 O.2    39  GLY39      -0.2866
     12  N         -6.9310   14.5090   21.6450 N.3    63  PHE63      -0.1241
     13  CA        -7.9620   15.2440   20.9310 C.3    63  PHE63       0.1605
     14  C         -7.8740   14.8200   19.4660 C.2    63  PHE63       0.2264
     15  O         -6.9970   15.2890   18.7360 O.2    63  PHE63      -0.2867
     16  CB        -7.7490   16.7560   21.0600 C.3    63  PHE63       0.0534
     17  CG        -9.0190   17.5710   20.9820 C.ar   63  PHE63      -0.0203
     18  CD1       -9.1980   18.6880   21.7870 C.ar   63  PHE63      -0.0042
     19  CD2      -10.0570   17.1850   20.1360 C.ar   63  PHE63      -0.0042
     20  CE1      -10.3610   19.4370   21.7160 C.ar   63  PHE63      -0.0003
     21  CE2      -11.2320   17.9300   20.0680 C.ar   63  PHE63      -0.0003
     22  CZ       -11.3830   19.0540   20.8630 C.ar   63  PHE63      -0.0000
     23  N          1.6730   20.6130   29.5060 N.3    93  ASP93      -0.1225
     24  CA         1.4330   20.2410   28.1140 C.3    93  ASP93       0.1805
     25  C          2.2600   21.1220   27.1660 C.2    93  ASP93       0.2598
     26  O          2.8500   22.1220   27.5940 O.2    93  ASP93      -0.2718
     27  CB        -0.0550   20.3420   27.7790 C.3    93  ASP93       0.1424
     28  CG        -0.4660   19.3710   26.6990 C.2    93  ASP93       0.3668
     29  OD1        0.4320   18.7090   26.1290 O.co2  93  ASP93      -0.2456
     30  OD2       -1.6780   19.2740   26.4070 O.co2  93  ASP93      -0.2456
     31  N          2.3370   20.7570   25.8860 N.am   94  ASP94      -0.1960
     32  CA         3.1110   21.5910   24.9900 C.3    94  ASP94       0.1840
     33  C          2.3070   22.8040   24.5120 C.2    94  ASP94       0.2622
     34  O          2.8610   23.8950   24.4060 O.2    94  ASP94      -0.2715
     35  CB         3.6870   20.8020   23.7920 C.3    94  ASP94       0.1450
     36  CG         2.6730   19.9310   23.0720 C.2    94  ASP94       0.3671
     37  OD1        1.4800   19.9340   23.4040 O.co2  94  ASP94      -0.2456
     38  OD2        3.1040   19.2370   22.1230 O.co2  94  ASP94      -0.2456
     39  N          1.0130   22.6460   24.2550 N.am   95  VAL95      -0.1963
     40  CA         0.2300   23.7960   23.7930 C.3    95  VAL95       0.1727
     41  C         -1.2280   23.6790   24.1850 C.2    95  VAL95       0.2616
     42  O         -1.8000   22.5910   24.1350 O.2    95  VAL95      -0.2715
     43  CB         0.3330   23.9700   22.2560 C.3    95  VAL95       0.0290
     44  CG1        0.0310   22.6820   21.5420 C.3    95  VAL95       0.0023
     45  CG2       -0.6020   25.0870   21.7520 C.3    95  VAL95       0.0023
     46  N         -1.8170   24.8000   24.5980 N.am   96  ALA96      -0.1963
     47  CA        -3.2580   24.8800   24.8150 C.3    96  ALA96       0.1728
     48  C         -3.8900   25.5930   23.6280 C.2    96  ALA96       0.2616
     49  O         -3.5850   26.7560   23.3720 O.2    96  ALA96      -0.2715
     50  CB        -3.5750   25.6020   26.0980 C.3    96  ALA96       0.0334
     51  N         -4.7470   24.8850   22.8990 N.am   97  ASP97      -0.1957
     52  CA        -5.4120   25.4520   21.7360 C.3    97  ASP97       0.1840
     53  C         -6.8060   25.9190   22.1340 C.2    97  ASP97       0.2623
     54  O         -7.0280   27.1000   22.3940 O.2    97  ASP97      -0.2715
     55  CB        -5.4880   24.4280   20.5910 C.3    97  ASP97       0.1450
     56  CG        -5.9280   25.0580   19.2620 C.2    97  ASP97       0.3671
     57  OD1       -7.1310   25.2580   19.0640 O.co2  97  ASP97      -0.2456
     58  OD2       -5.0800   25.3310   18.3950 O.co2  97  ASP97      -0.2456
     59  N         -7.7400   24.9800   22.1840 N.am   98  THR98      -0.1937
     60  CA        -9.0740   25.2620   22.6840 C.3    98  THR98       0.2028
     61  C         -9.0650   25.3110   24.1980 C.2    98  THR98       0.2643
     62  O         -9.9170   25.9520   24.7990 O.2    98  THR98      -0.2714
     63  CB       -10.0820   24.2020   22.2390 C.3    98  THR98       0.1808
     64  OG1       -9.7610   22.9600   22.8770 O.3    98  THR98      -0.2208
     65  CG2      -10.0530   24.0260   20.7220 C.3    98  THR98       0.0379
     66  N         -8.1030   24.6160   24.8090 N.am   99  GLY99      -0.1939
     67  CA        -8.0230   24.5370   26.2560 C.3    99  GLY99       0.2014
     68  C         -8.8180   23.3760   26.8330 C.2    99  GLY99       0.2639
     69  O         -8.8300   23.1690   28.0440 O.2    99  GLY99      -0.2714
     70  N         -9.4680   22.6070   25.9660 N.am  100  GLU100     -0.1963
     71  CA       -10.2930   21.4770   26.4090 C.3   100  GLU100      0.1733
     72  C         -9.4730   20.3660   27.0730 C.2   100  GLU100      0.2617
     73  O         -9.9160   19.7520   28.0460 O.2   100  GLU100     -0.2715
     74  CB       -11.0690   20.8870   25.2290 C.3   100  GLU100      0.0429
     75  CG       -12.1850   21.7680   24.6900 C.3   100  GLU100      0.1163
     76  CD       -13.3490   21.9160   25.6500 C.2   100  GLU100      0.3649
     77  OE1      -13.5880   20.9890   26.4600 O.co2 100  GLU100     -0.2457
     78  OE2      -14.0350   22.9590   25.5820 O.co2 100  GLU100     -0.2457
     79  N         -8.2810   20.1080   26.5400 N.am  101  THR101     -0.1937
     80  CA        -7.4230   19.0640   27.0870 C.3   101  THR101      0.2028
     81  C         -6.9840   19.4250   28.5100 C.2   101  THR101      0.2642
     82  O         -7.1510   18.6230   29.4230 O.2   101  THR101     -0.2714
     83  CB        -6.2000   18.8100   26.1720 C.3   101  THR101      0.1808
     84  OG1       -6.6630   18.2830   24.9250 O.3   101  THR101     -0.2208
     85  CG2       -5.2330   17.7970   26.7960 C.3   101  THR101      0.0379
     86  N         -6.4590   20.6350   28.7090 N.am  102  LEU102     -0.1977
     87  CA        -6.0490   21.0520   30.0500 C.3   102  LEU102      0.1596
     88  C         -7.2330   21.0540   31.0190 C.2   102  LEU102      0.2287
     89  O         -7.0820   20.7040   32.1870 O.2   102  LEU102     -0.2864
     90  CB        -5.3860   22.4300   30.0220 C.3   102  LEU102      0.0297
     91  CG        -3.9450   22.4920   29.5030 C.3   102  LEU102      0.0022
     92  CD1       -3.4160   23.9310   29.5410 C.3   102  LEU102      0.0001
     93  CD2       -3.0420   21.5720   30.3190 C.3   102  LEU102      0.0001
     94  N         -2.9780   29.6430   22.5510 N.3   125  LYS125     -0.1245
     95  CA        -3.6660   30.2880   21.4250 C.3   125  LYS125      0.1561
     96  C         -4.6190   31.3540   21.9640 C.2   125  LYS125      0.2260
     97  O         -5.1380   31.2070   23.0650 O.2   125  LYS125     -0.2867
     98  CB        -4.4440   29.2690   20.5800 C.3   125  LYS125      0.0271
     99  CG        -3.6400   28.0800   20.0730 C.3   125  LYS125      0.0035
    100  CD        -2.6120   28.4610   19.0400 C.3   125  LYS125      0.0206
    101  CE        -1.8330   27.2300   18.5520 C.3   125  LYS125      0.1093
    102  NZ        -2.6770   26.2810   17.7560 N.3   125  LYS125     -0.1314
    103  N         -0.5000   27.4510   13.9020 N.3   142  TRP142     -0.1227
    104  CA        -0.2420   26.0670   14.2620 C.3   142  TRP142      0.1737
    105  C          1.2390   25.8570   14.5600 C.2   142  TRP142      0.2595
    106  O          2.1110   26.2040   13.7620 O.2   142  TRP142     -0.2718
    107  CB        -0.7050   25.1230   13.1570 C.3   142  TRP142      0.0564
    108  CG        -0.7820   23.6980   13.6110 C.ar  142  TRP142      0.0003
    109  CD1        0.1250   22.7050   13.3650 C.ar  142  TRP142      0.0946
    110  CD2       -1.8240   23.1080   14.3950 C.ar  142  TRP142      0.0152
    111  NE1       -0.2930   21.5340   13.9460 N.ar  142  TRP142     -0.2442
    112  CE2       -1.4840   21.7540   14.5870 C.ar  142  TRP142      0.0810
    113  CE3       -3.0040   23.5940   14.9630 C.ar  142  TRP142      0.0012
    114  CZ2       -2.2830   20.8820   15.3200 C.ar  142  TRP142      0.0191
    115  CZ3       -3.7950   22.7280   15.6920 C.ar  142  TRP142      0.0001
    116  CH2       -3.4330   21.3870   15.8630 C.ar  142  TRP142      0.0015
    117  N          1.5220   25.3070   15.7330 N.am  143  ILE143     -0.1966
    118  CA         2.9040   25.0980   16.1380 C.3   143  ILE143      0.1727
    119  C          3.4000   23.7300   15.7070 C.2   143  ILE143      0.2616
    120  O          2.7480   22.7050   15.9410 O.2   143  ILE143     -0.2715
    121  CB         3.0780   25.2300   17.6470 C.3   143  ILE143      0.0290
    122  CG1        2.5330   26.5700   18.1310 C.3   143  ILE143      0.0022
    123  CG2        4.5390   25.1110   18.0330 C.3   143  ILE143      0.0023
    124  CD1        1.9350   26.4580   19.4910 C.3   143  ILE143      0.0001
    125  N          4.5520   23.7210   15.0550 N.am  144  ILE144     -0.1963
    126  CA         5.2110   22.4750   14.7180 C.3   144  ILE144      0.1727
    127  C          6.3530   22.2820   15.6980 C.2   144  ILE144      0.2616
    128  O          7.3730   22.9490   15.5850 O.2   144  ILE144     -0.2715
    129  CB         5.7540   22.4740   13.2690 C.3   144  ILE144      0.0290
    130  CG1        4.6320   22.8000   12.2730 C.3   144  ILE144      0.0022
    131  CG2        6.3760   21.1290   12.9470 C.3   144  ILE144      0.0023
    132  CD1        5.1060   22.9360   10.8290 C.3   144  ILE144      0.0001
    133  N          6.1840   21.3910   16.6700 N.am  145  PHE145     -0.1974
    134  CA         7.2370   21.1570   17.6590 C.3   145  PHE145      0.1639
    135  C          8.3330   20.2640   17.1120 C.2   145  PHE145      0.2290
    136  O          8.1100   19.5200   16.1610 O.2   145  PHE145     -0.2864
    137  CB         6.6590   20.5300   18.9340 C.3   145  PHE145      0.0560
    138  CG         5.6720   21.4100   19.6430 C.ar  145  PHE145     -0.0200
    139  CD1        6.1080   22.3480   20.5610 C.ar  145  PHE145     -0.0042
    140  CD2        4.3160   21.2940   19.3900 C.ar  145  PHE145     -0.0042
    141  CE1        5.2120   23.1640   21.2390 C.ar  145  PHE145     -0.0003
    142  CE2        3.4010   22.1120   20.0430 C.ar  145  PHE145     -0.0003
    143  CZ         3.8530   23.0580   20.9680 C.ar  145  PHE145     -0.0000
    144  N          6.9730   16.6850   16.9930 N.3   148  ASP148     -0.1239
    145  CA         5.9150   16.1820   16.1040 C.3   148  ASP148      0.1674
    146  C          6.0320   16.7330   14.6830 C.2   148  ASP148      0.2266
    147  O          5.0680   16.6930   13.9050 O.2   148  ASP148     -0.2867
    148  CB         4.5040   16.4400   16.7050 C.3   148  ASP148      0.1410
    149  CG         4.1750   17.9200   16.9250 C.2   148  ASP148      0.3668
    150  OD1        4.8450   18.8130   16.3640 O.co2 148  ASP148     -0.2456
    151  OD2        3.1950   18.1830   17.6660 O.co2 148  ASP148     -0.2456
    152  N          3.6480   16.1520   11.1170 N.3   152  VAL152     -0.1245
    153  CA         3.1760   17.2350   10.2550 C.3   152  VAL152      0.1561
    154  C          3.5870   17.0070    8.8040 C.2   152  VAL152      0.2260
    155  O          2.7630   17.1230    7.8960 O.2   152  VAL152     -0.2867
    156  CB         3.7000   18.6030   10.7360 C.3   152  VAL152      0.0252
    157  CG1        3.4070   19.6820    9.7140 C.3   152  VAL152      0.0019
    158  CG2        3.0600   18.9560   12.0620 C.3   152  VAL152      0.0019
@<TRIPOS>BOND
     1   155   154    2
     2   154   153    1
     3   157   156    1
     4   153   156    1
     5   153   152    1
     6   156   158    1
     7   132   130    1
     8   130   129    1
     9   131   129    1
    10   107   108    1
    11   107   104    1
    12   129   126    1
    13   109   108   ar
    14   109   111   ar
    15   108   110   ar
    16   106   105    2
    17   103   104    1
    18   147   146    2
    19   111   112   ar
    20   104   105    1
    21   110   112   ar
    22   110   113   ar
    23   105   117   am
    24   112   114   ar
    25   146   145    1
    26   126   125    1
    27   126   127    1
    28   113   115   ar
    29   125   119   am
    30   114   116   ar
    31   128   127    2
    32   115   116   ar
    33   127   133   am
    34   119   120    2
    35   119   118    1
    36   117   118    1
    37   145   148    1
    38   145   144    1
    39   118   121    1
    40   136   135    2
    41   150   149   ar
    42   133   134    1
    43   148   149    1
    44   149   151   ar
    45   135   134    1
    46   121   123    1
    47   121   122    1
    48   134   137    1
    49   102   101    1
    50   122   124    1
    51    58    56   ar
    52   101   100    1
    53    15    14    2
    54   137   138    1
    55   100    99    1
    56    57    56   ar
    57    56    55    1
    58   140   138   ar
    59   140   142   ar
    60    14    13    1
    61   138   139   ar
    62   142   143   ar
    63    21    19   ar
    64    21    22   ar
    65    99    98    1
    66    19    17   ar
    67   139   141   ar
    68    98    95    1
    69    55    52    1
    70    65    63    1
    71    22    20   ar
    72    13    16    1
    73    13    12    1
    74   143   141   ar
    75    17    16    1
    76    17    18   ar
    77    95    96    1
    78    95    94    1
    79    44    43    1
    80    20    18   ar
    81    52    53    1
    82    52    51    1
    83    45    43    1
    84    96    97    2
    85    38    36   ar
    86    53    59   am
    87    53    54    2
    88    59    60    1
    89    63    60    1
    90    63    64    1
    91    43    40    1
    92    60    61    1
    93    51    48   am
    94    36    37   ar
    95    36    35    1
    96    49    48    2
    97     9     8    1
    98     9    10    1
    99    48    47    1
   100    35    32    1
   101    40    41    1
   102    40    39    1
   103    42    41    2
   104    41    46   am
   105    61    62    2
   106    61    66   am
   107    39    33   am
   108    34    33    2
   109    33    32    1
   110    46    47    1
   111    11    10    2
   112    75    74    1
   113    75    76    1
   114    66    67    1
   115    47    50    1
   116    84    83    1
   117    32    31    1
   118    74    71    1
   119    78    76   ar
   120    76    77   ar
   121    31    25   am
   122    70    71    1
   123    70    68   am
   124    29    28   ar
   125    83    85    1
   126    83    80    1
   127    67    68    1
   128    30    28   ar
   129    71    72    1
   130    79    72   am
   131    79    80    1
   132    28    27    1
   133    68    69    2
   134    72    73    2
   135    80    81    1
   136    25    26    2
   137    25    24    1
   138     4     3    2
   139    27    24    1
   140     6     5    1
   141     3     2    1
   142    24    23    1
   143    81    86   am
   144    81    82    2
   145    86    87    1
   146     5     2    1
   147     5     7    1
   148     2     1    1
   149    91    92    1
   150    91    90    1
   151    91    93    1
   152    90    87    1
   153    87    88    1
   154    88    89    2
