@<TRIPOS>MOLECULE
tmp/4zfqA02.pdb
 137 131 0 0 0
SMALL
GASTEIGER

@<TRIPOS>ATOM
      1  N        -20.3540   23.0550  -48.4110 N.3   242  ARG242     -0.1231
      2  CA       -21.1140   23.1710  -47.1590 C.3   242  ARG242      0.1694
      3  C        -22.5990   23.3090  -47.4910 C.2   242  ARG242      0.2592
      4  O        -23.4670   23.1220  -46.6270 O.2   242  ARG242     -0.2718
      5  CB       -20.6780   24.3860  -46.3260 C.3   242  ARG242      0.0321
      6  CG       -19.3120   24.9890  -46.6430 C.3   242  ARG242      0.0489
      7  CD       -19.2280   26.4210  -46.1360 C.3   242  ARG242      0.2205
      8  NE       -17.9040   27.0230  -46.3270 N.pl3 242  ARG242     -0.0865
      9  CZ       -16.8800   26.8940  -45.4830 C.cat 242  ARG242      0.5346
     10  NH1      -16.9980   26.1730  -44.3710 N.pl3 242  ARG242      0.1354
     11  NH2      -15.7270   27.4880  -45.7530 N.pl3 242  ARG242      0.1354
     12  N        -22.8580   23.6320  -48.7640 N.am  243  ASN243     -0.1960
     13  CA       -24.1550   24.0870  -49.2580 C.3   243  ASN243      0.1819
     14  C        -24.6310   23.2800  -50.4750 C.2   243  ASN243      0.2621
     15  O        -25.1260   23.8390  -51.4530 O.2   243  ASN243     -0.2715
     16  CB       -24.0680   25.5800  -49.6220 C.3   243  ASN243      0.1195
     17  CG       -24.0770   26.4960  -48.4010 C.2   243  ASN243      0.2630
     18  OD1      -23.1730   27.3160  -48.2300 O.2   243  ASN243     -0.2716
     19  ND2      -25.1030   26.3730  -47.5590 N.am  243  ASN243     -0.0877
     20  N        -24.4520   21.9660  -50.4230 N.am  244  VAL244     -0.1977
     21  CA       -25.0590   21.0780  -51.4040 C.3   244  VAL244      0.1596
     22  C        -25.9430   20.1060  -50.6670 C.2   244  VAL244      0.2287
     23  O        -25.4870   19.4240  -49.7470 O.2   244  VAL244     -0.2864
     24  CB       -24.0330   20.2690  -52.2190 C.3   244  VAL244      0.0276
     25  CG1      -24.6320   19.8690  -53.5520 C.3   244  VAL244      0.0022
     26  CG2      -22.7630   21.0500  -52.4260 C.3   244  VAL244      0.0022
     27  N        -27.1430   16.8700  -49.8630 N.3   246  ARG246     -0.1245
     28  CA       -26.3920   15.6460  -50.0840 C.3   246  ARG246      0.1563
     29  C        -27.2170   14.6830  -50.9330 C.2   246  ARG246      0.2260
     30  O        -28.4360   14.7960  -51.0010 O.2   246  ARG246     -0.2867
     31  CB       -26.0000   15.0180  -48.7440 C.3   246  ARG246      0.0307
     32  CG       -25.1330   15.9360  -47.8450 C.3   246  ARG246      0.0489
     33  CD       -23.6750   15.9600  -48.2610 C.3   246  ARG246      0.2205
     34  NE       -22.8380   16.6080  -47.2550 N.pl3 246  ARG246     -0.0865
     35  CZ       -22.4060   17.8650  -47.3100 C.cat 246  ARG246      0.5346
     36  NH1      -22.7050   18.6590  -48.3370 N.pl3 246  ARG246      0.1354
     37  NH2      -21.6540   18.3320  -46.3280 N.pl3 246  ARG246      0.1354
     38  N        -32.1380   27.0670  -33.8800 N.3   261  MET261     -0.1245
     39  CA       -30.9080   26.3010  -34.0660 C.3   261  MET261      0.1570
     40  C        -29.7580   27.2090  -34.5290 C.2   261  MET261      0.2261
     41  O        -29.7660   27.7150  -35.6590 O.2   261  MET261     -0.2867
     42  CB       -31.1550   25.1690  -35.0750 C.3   261  MET261      0.0387
     43  CG       -29.9690   24.2270  -35.3070 C.3   261  MET261      0.0595
     44  SD       -30.3230   22.9060  -36.5020 S.3   261  MET261     -0.1393
     45  CE       -28.6570   22.3690  -36.9080 C.3   261  MET261      0.0692
     46  N        -26.6560   27.2160  -36.0200 N.3   263  ASN263     -0.1226
     47  CA       -25.9820   26.2490  -36.9080 C.3   263  ASN263      0.1770
     48  C        -24.4710   26.0270  -36.7490 C.2   263  ASN263      0.2439
     49  O        -23.8040   26.7520  -36.0120 O.2   263  ASN263     -0.2733
     50  CB       -26.2360   26.6600  -38.3610 C.3   263  ASN263      0.1168
     51  CG       -27.7010   26.8420  -38.6630 C.2   263  ASN263      0.2627
     52  OD1      -28.0750   27.6570  -39.5070 O.2   263  ASN263     -0.2716
     53  ND2      -28.5460   26.0900  -37.9680 N.am  263  ASN263     -0.0877
     54  N        -23.9300   25.0180  -37.4650 N.am  264  PRO264     -0.2729
     55  CA       -22.4870   24.7460  -37.5340 C.3   264  PRO264      0.1401
     56  C        -21.6580   25.9940  -37.8350 C.2   264  PRO264      0.2269
     57  O        -20.4300   25.9310  -37.7720 O.2   264  PRO264     -0.2865
     58  CB       -22.3700   23.7300  -38.6860 C.3   264  PRO264      0.0296
     59  CG       -23.7210   23.7430  -39.3880 C.3   264  PRO264      0.0237
     60  CD       -24.6920   24.0610  -38.2890 C.3   264  PRO264      0.0939
     61  N        -36.2730   28.2710  -37.4550 N.3   266  GLU266     -0.1245
     62  CA       -37.0510   27.6590  -38.5310 C.3   266  GLU266      0.1567
     63  C        -38.5490   27.5730  -38.2580 C.2   266  GLU266      0.2260
     64  O        -38.9890   27.5800  -37.1090 O.2   266  GLU266     -0.2867
     65  CB       -36.5260   26.2550  -38.8180 C.3   266  GLU266      0.0388
     66  CG       -35.3510   26.2360  -39.7900 C.3   266  GLU266      0.1160
     67  CD       -34.1750   25.4000  -39.3060 C.2   266  GLU266      0.3649
     68  OE1      -33.9750   25.2760  -38.0720 O.co2 266  GLU266     -0.2457
     69  OE2      -33.4450   24.8710  -40.1710 O.co2 266  GLU266     -0.2457
     70  N        -26.8020   16.2830  -40.3850 N.3   275  ASN275     -0.1225
     71  CA       -25.9310   17.3400  -40.9030 C.3   275  ASN275      0.1785
     72  C        -26.6230   18.6890  -40.8330 C.2   275  ASN275      0.2598
     73  O        -26.0110   19.7190  -41.0850 O.2   275  ASN275     -0.2718
     74  CB       -25.4820   17.0590  -42.3440 C.3   275  ASN275      0.1169
     75  CG       -26.6480   16.9800  -43.3340 C.2   275  ASN275      0.2627
     76  OD1      -27.7020   17.5910  -43.1400 O.2   275  ASN275     -0.2716
     77  ND2      -26.4550   16.2140  -44.4070 N.am  275  ASN275     -0.0877
     78  N        -27.9100   18.6710  -40.5060 N.am  276  GLY276     -0.1942
     79  CA       -28.6900   19.8840  -40.3960 C.3   276  GLY276      0.2014
     80  C        -29.4840   20.2040  -41.6450 C.2   276  GLY276      0.2639
     81  O        -29.8830   21.3500  -41.8440 O.2   276  GLY276     -0.2714
     82  N        -29.7050   19.2020  -42.4940 N.am  277  GLU277     -0.1963
     83  CA       -30.5730   19.3690  -43.6540 C.3   277  GLU277      0.1733
     84  C        -32.0330   19.2200  -43.2650 C.2   277  GLU277      0.2616
     85  O        -32.4230   18.2600  -42.5930 O.2   277  GLU277     -0.2715
     86  CB       -30.2250   18.3630  -44.7370 C.3   277  GLU277      0.0429
     87  CG       -29.0660   18.8090  -45.5710 C.3   277  GLU277      0.1163
     88  CD       -28.5140   17.7220  -46.4500 C.2   277  GLU277      0.3649
     89  OE1      -29.1130   16.6330  -46.5150 O.co2 277  GLU277     -0.2457
     90  OE2      -27.4690   17.9740  -47.0870 O.co2 277  GLU277     -0.2457
     91  N        -32.8330   20.1830  -43.7000 N.am  278  PHE278     -0.1974
     92  CA       -34.2500   20.2080  -43.3900 C.3   278  PHE278      0.1639
     93  C        -35.0820   20.4460  -44.6310 C.2   278  PHE278      0.2290
     94  O        -34.5680   20.8570  -45.6700 O.2   278  PHE278     -0.2864
     95  CB       -34.5500   21.3040  -42.3730 C.3   278  PHE278      0.0560
     96  CG       -34.0740   20.9930  -40.9780 C.ar  278  PHE278     -0.0200
     97  CD1      -34.9680   20.6370  -39.9830 C.ar  278  PHE278     -0.0042
     98  CD2      -32.7260   21.0670  -40.6650 C.ar  278  PHE278     -0.0042
     99  CE1      -34.5200   20.3580  -38.7020 C.ar  278  PHE278     -0.0003
    100  CE2      -32.2780   20.7870  -39.4010 C.ar  278  PHE278     -0.0003
    101  CZ       -33.1760   20.4330  -38.4090 C.ar  278  PHE278     -0.0000
    102  N        -38.2090   22.9100  -45.0210 N.3   280  HIS280     -0.1241
    103  CA       -38.8480   23.9150  -44.1830 C.3   280  HIS280      0.1621
    104  C        -39.2240   25.1380  -44.9700 C.2   280  HIS280      0.2264
    105  O        -39.2360   25.0910  -46.1890 O.2   280  HIS280     -0.2867
    106  CB       -37.9310   24.2910  -43.0140 C.3   280  HIS280      0.0745
    107  CG       -36.5930   24.8370  -43.4130 C.ar  280  HIS280      0.0817
    108  ND1      -36.4330   25.8340  -44.3500 N.ar  280  HIS280     -0.2268
    109  CD2      -35.3490   24.5370  -42.9680 C.ar  280  HIS280      0.1154
    110  CE1      -35.1480   26.1180  -44.4730 C.ar  280  HIS280      0.1986
    111  NE2      -34.4670   25.3480  -43.6420 N.ar  280  HIS280     -0.2212
    112  N        -38.6190   29.3540  -45.7890 N.3   282  ASN282     -0.1240
    113  CA       -37.7110   30.4870  -45.6750 C.3   282  ASN282      0.1653
    114  C        -37.8800   31.4080  -46.8850 C.2   282  ASN282      0.2266
    115  O        -38.2630   30.9350  -47.9610 O.2   282  ASN282     -0.2867
    116  CB       -36.2590   30.0000  -45.5540 C.3   282  ASN282      0.1155
    117  CG       -35.4590   30.7510  -44.4970 C.2   282  ASN282      0.2627
    118  OD1      -36.0130   31.4320  -43.6390 O.2   282  ASN282     -0.2716
    119  ND2      -34.1410   30.6150  -44.5570 N.am  282  ASN282     -0.0877
    120  N        -28.5310   27.5710  -50.8220 N.3   288  ASN288     -0.1225
    121  CA       -28.0860   27.0850  -49.4770 C.3   288  ASN288      0.1785
    122  C        -27.7950   25.5630  -49.3060 C.2   288  ASN288      0.2598
    123  O        -27.0230   25.0140  -50.0790 O.2   288  ASN288     -0.2718
    124  CB       -29.0980   27.5280  -48.4100 C.3   288  ASN288      0.1169
    125  CG       -28.4700   27.6220  -47.0200 C.2   288  ASN288      0.2627
    126  OD1      -27.6180   26.8090  -46.6570 O.2   288  ASN288     -0.2716
    127  ND2      -28.8770   28.6230  -46.2500 N.am  288  ASN288     -0.0877
    128  N        -28.3280   24.9080  -48.2630 N.am  289  GLY289     -0.1942
    129  CA       -28.1180   23.4740  -48.0540 C.3   289  GLY289      0.2014
    130  C        -29.4140   22.6980  -47.8160 C.2   289  GLY289      0.2639
    131  O        -29.5600   21.5170  -48.1740 O.2   289  GLY289     -0.2714
    132  N        -30.3690   23.3730  -47.1920 N.am  290  CYS290     -0.1967
    133  CA       -31.6800   22.7990  -46.9650 C.3   290  CYS290      0.1712
    134  C        -32.4590   22.7180  -48.2750 C.2   290  CYS290      0.2296
    135  O        -31.9020   22.8270  -49.3550 O.2   290  CYS290     -0.2864
    136  CB       -32.4650   23.6260  -45.9360 C.3   290  CYS290      0.0983
    137  SG       -31.6470   23.8530  -44.3230 S.3   290  CYS290     -0.0798
@<TRIPOS>BOND
     1    25    24    1
     2    26    24    1
     3    24    21    1
     4    15    14    2
     5    21    22    1
     6    21    20    1
     7    30    29    2
     8    29    28    1
     9   120   121    1
    10    22    23    2
    11    14    20   am
    12    14    13    1
    13    28    27    1
    14    28    31    1
    15   123   122    2
    16    16    13    1
    17    16    17    1
    18   121   122    1
    19   121   124    1
    20   135   134    2
    21   122   128   am
    22    13    12    1
    23    12     3   am
    24    31    32    1
    25     1     2    1
    26   124   125    1
    27    17    18    2
    28    17    19   am
    29    36    35    1
    30   134   133    1
    31   128   129    1
    32    33    32    1
    33    33    34    1
    34   131   130    2
    35   129   130    1
    36   115   114    2
    37   130   132   am
    38     3     2    1
    39     3     4    2
    40    35    34    2
    41    35    37    1
    42   132   133    1
    43     2     5    1
    44    90    88   ar
    45   125   126    2
    46   125   127   am
    47   133   136    1
    48   114   113    1
    49     6     5    1
    50     6     7    1
    51    89    88   ar
    52    88    87    1
    53     8     7    1
    54     8     9    2
    55   105   104    2
    56   136   137    1
    57   112   113    1
    58    11     9    1
    59   113   116    1
    60    94    93    2
    61    87    86    1
    62   116   117    1
    63     9    10    1
    64   102   103    1
    65   104   103    1
    66    86    83    1
    67    93    92    1
    68   119   117   am
    69   117   118    2
    70   110   108   ar
    71   110   111   ar
    72    77    75   am
    73   108   107   ar
    74   103   106    1
    75    91    92    1
    76    91    84   am
    77    83    84    1
    78    83    82    1
    79   111   109   ar
    80   107   106    1
    81   107   109   ar
    82    92    95    1
    83    75    76    2
    84    75    74    1
    85    84    85    2
    86    82    80   am
    87    95    96    1
    88    74    71    1
    89    81    80    2
    90    80    79    1
    91    73    72    2
    92    96    98   ar
    93    96    97   ar
    94    71    72    1
    95    71    70    1
    96    72    78   am
    97    98   100   ar
    98    78    79    1
    99    69    67   ar
   100    97    99   ar
   101    66    67    1
   102    66    65    1
   103    52    51    2
   104   100   101   ar
   105    59    58    1
   106    59    60    1
   107    67    68   ar
   108    65    62    1
   109    99   101   ar
   110    58    55    1
   111    51    50    1
   112    51    53   am
   113    62    63    1
   114    62    61    1
   115    50    47    1
   116    60    54    1
   117    63    64    2
   118    56    57    2
   119    56    55    1
   120    55    54    1
   121    54    48   am
   122    47    48    1
   123    47    46    1
   124    45    44    1
   125    48    49    2
   126    44    43    1
   127    41    40    2
   128    43    42    1
   129    42    39    1
   130    40    39    1
   131    39    38    1
