@<TRIPOS>MOLECULE
tmp/4zfuA01.pdb
 128 125 0 0 0
SMALL
GASTEIGER

@<TRIPOS>ATOM
      1  N         59.1890   79.0900   17.9710 N.3    70  ASP70      -0.1225
      2  CA        57.9040   79.5770   17.4650 C.3    70  ASP70       0.1805
      3  C         56.6670   78.8450   17.9520 C.2    70  ASP70       0.2598
      4  O         55.5870   79.0780   17.4330 O.2    70  ASP70      -0.2718
      5  CB        57.9140   79.5870   15.9300 C.3    70  ASP70       0.1424
      6  CG        58.0270   78.1990   15.3150 C.2    70  ASP70       0.3668
      7  OD1       57.8470   77.1830   16.0160 O.co2  70  ASP70      -0.2456
      8  OD2       58.3080   78.1260   14.1060 O.co2  70  ASP70      -0.2456
      9  N         56.8110   77.9700   18.9340 N.am   71  ALA71      -0.1966
     10  CA        55.6850   77.2280   19.4630 C.3    71  ALA71       0.1728
     11  C         54.8250   76.5430   18.3950 C.2    71  ALA71       0.2617
     12  O         53.5830   76.5490   18.4840 O.2    71  ALA71      -0.2715
     13  CB        54.8350   78.1400   20.3450 C.3    71  ALA71       0.0334
     14  N         55.4630   75.9640   17.3770 N.am   72  GLY72      -0.1940
     15  CA        54.7510   75.1250   16.3950 C.3    72  GLY72       0.2014
     16  C         55.2190   73.6920   16.5190 C.2    72  GLY72       0.2638
     17  O         56.3140   73.4160   17.0370 O.2    72  GLY72      -0.2714
     18  N         54.4060   72.7580   16.0560 N.am   73  PHE73      -0.1973
     19  CA        54.8620   71.3850   16.0310 C.3    73  PHE73       0.1639
     20  C         55.8180   71.2110   14.8860 C.2    73  PHE73       0.2290
     21  O         55.5370   71.6560   13.7840 O.2    73  PHE73      -0.2864
     22  CB        53.7110   70.3950   15.8740 C.3    73  PHE73       0.0560
     23  CG        52.8920   70.2290   17.1110 C.ar   73  PHE73      -0.0200
     24  CD1       53.5080   70.0060   18.3560 C.ar   73  PHE73      -0.0042
     25  CD2       51.5200   70.2770   17.0470 C.ar   73  PHE73      -0.0042
     26  CE1       52.7490   69.8600   19.5040 C.ar   73  PHE73      -0.0003
     27  CE2       50.7620   70.1380   18.1870 C.ar   73  PHE73      -0.0003
     28  CZ        51.3720   69.9210   19.4130 C.ar   73  PHE73      -0.0000
     29  N         53.6980   72.5840    8.5740 N.3   109  ASN109     -0.1225
     30  CA        52.9760   72.6920    9.8470 C.3   109  ASN109      0.1785
     31  C         52.0580   73.9160   10.0120 C.2   109  ASN109      0.2598
     32  O         51.5880   74.1640   11.1250 O.2   109  ASN109     -0.2718
     33  CB        53.9530   72.7020   11.0090 C.3   109  ASN109      0.1169
     34  CG        54.6330   74.0460   11.1790 C.2   109  ASN109      0.2627
     35  OD1       54.5510   74.9230   10.3030 O.2   109  ASN109     -0.2716
     36  ND2       55.3090   74.2160   12.3030 N.am  109  ASN109     -0.0877
     37  N         51.8310   74.6840    8.9430 N.am  110  THR110     -0.1939
     38  CA        50.9990   75.8830    9.0170 C.3   110  THR110      0.2028
     39  C         49.5750   75.5060    8.8440 C.2   110  THR110      0.2642
     40  O         49.2750   74.4760    8.2480 O.2   110  THR110     -0.2714
     41  CB        51.3150   76.8820    7.8960 C.3   110  THR110      0.1808
     42  OG1       51.0030   76.2960    6.6150 O.3   110  THR110     -0.2208
     43  CG2       52.7600   77.3010    7.9630 C.3   110  THR110      0.0379
     44  N         48.6890   76.3730    9.3070 N.am  111  PHE111     -0.1959
     45  CA        47.2550   76.1390    9.1330 C.3   111  PHE111      0.1771
     46  C         46.8550   76.0780    7.6660 C.2   111  PHE111      0.2619
     47  O         46.1880   75.1520    7.2270 O.2   111  PHE111     -0.2715
     48  CB        46.4390   77.2100    9.8500 C.3   111  PHE111      0.0574
     49  CG        46.4470   77.0890   11.3460 C.ar  111  PHE111     -0.0200
     50  CD1       46.2880   75.8550   11.9740 C.ar  111  PHE111     -0.0042
     51  CD2       46.5610   78.2190   12.1410 C.ar  111  PHE111     -0.0042
     52  CE1       46.2600   75.7470   13.3540 C.ar  111  PHE111     -0.0003
     53  CE2       46.5410   78.1250   13.5270 C.ar  111  PHE111     -0.0003
     54  CZ        46.3950   76.8900   14.1360 C.ar  111  PHE111     -0.0000
     55  N         47.3330   77.0530    6.9130 N.am  112  GLU112     -0.1977
     56  CA        47.0630   77.1470    5.4920 C.3   112  GLU112      0.1602
     57  C         47.3980   75.8390    4.8400 C.2   112  GLU112      0.2287
     58  O         46.5710   75.2440    4.1720 O.2   112  GLU112     -0.2864
     59  CB        47.8940   78.2480    4.8670 C.3   112  GLU112      0.0415
     60  CG        47.3890   79.6500    5.2010 C.3   112  GLU112      0.1163
     61  CD        47.7170   80.1570    6.6260 C.2   112  GLU112      0.3649
     62  OE1       48.3310   79.4060    7.4370 O.co2 112  GLU112     -0.2457
     63  OE2       47.3530   81.3220    6.9390 O.co2 112  GLU112     -0.2457
     64  N         46.9740   71.2290   17.4420 N.3   155  ILE155     -0.1245
     65  CA        47.6700   72.5050   17.4090 C.3   155  ILE155      0.1561
     66  C         46.8440   73.5560   18.1560 C.2   155  ILE155      0.2260
     67  O         47.3870   74.3870   18.8860 O.2   155  ILE155     -0.2867
     68  CB        47.9320   73.0030   15.9860 C.3   155  ILE155      0.0252
     69  CG1       48.9410   72.1000   15.2930 C.3   155  ILE155      0.0019
     70  CG2       48.5110   74.4350   16.0000 C.3   155  ILE155      0.0019
     71  CD1       48.9530   72.2730   13.7880 C.3   155  ILE155      0.0001
     72  N         48.0760   76.8280   20.3850 N.3   160  GLU160     -0.1245
     73  CA        47.3820   78.1050   20.3140 C.3   160  GLU160      0.1567
     74  C         46.7990   78.5040   21.6790 C.2   160  GLU160      0.2260
     75  O         46.7980   79.6890   22.0220 O.2   160  GLU160     -0.2867
     76  CB        46.3010   78.0990   19.2380 C.3   160  GLU160      0.0388
     77  CG        46.8090   77.8300   17.8360 C.3   160  GLU160      0.1160
     78  CD        47.9600   78.7220   17.4210 C.2   160  GLU160      0.3649
     79  OE1       47.7590   79.9280   17.2040 O.co2 160  GLU160     -0.2457
     80  OE2       49.0890   78.2050   17.2940 O.co2 160  GLU160     -0.2457
     81  N         49.5630   80.0070   23.6040 N.3   163  LYS163     -0.1245
     82  CA        49.7600   81.3860   23.1330 C.3   163  LYS163      0.1561
     83  C         48.7570   82.3900   23.6580 C.2   163  LYS163      0.2260
     84  O         49.1090   83.5340   23.8970 O.2   163  LYS163     -0.2867
     85  CB        49.6900   81.4530   21.6120 C.3   163  LYS163      0.0271
     86  CG        50.8640   80.8220   20.8910 C.3   163  LYS163      0.0035
     87  CD        50.6210   80.7490   19.3850 C.3   163  LYS163      0.0206
     88  CE        51.7040   79.9460   18.7200 C.3   163  LYS163      0.1093
     89  NZ        51.5090   79.8850   17.2470 N.3   163  LYS163     -0.1314
     90  N         44.9120   83.4660   16.4470 N.3   191  GLU191     -0.1231
     91  CA        45.7450   82.5290   15.7010 C.3   191  GLU191      0.1699
     92  C         46.3440   83.1970   14.4770 C.2   191  GLU191      0.2592
     93  O         47.5190   83.0860   14.2220 O.2   191  GLU191     -0.2718
     94  CB        44.9500   81.2890   15.2560 C.3   191  GLU191      0.0402
     95  CG        44.4070   80.4450   16.4070 C.3   191  GLU191      0.1161
     96  CD        43.5180   79.2780   15.9980 C.2   191  GLU191      0.3649
     97  OE1       43.3460   79.0220   14.8020 O.co2 191  GLU191     -0.2457
     98  OE2       42.9760   78.6070   16.8970 O.co2 191  GLU191     -0.2457
     99  N         45.5170   83.9080   13.7310 N.am  192  GLU192     -0.1979
    100  CA        45.9640   84.5730   12.5120 C.3   192  GLU192      0.1602
    101  C         47.0690   85.5940   12.8190 C.2   192  GLU192      0.2287
    102  O         48.0650   85.6480   12.1050 O.2   192  GLU192     -0.2864
    103  CB        44.7590   85.2240   11.8260 C.3   192  GLU192      0.0415
    104  CG        44.9920   85.9860   10.5120 C.3   192  GLU192      0.1163
    105  CD        44.0430   87.1970   10.3430 C.2   192  GLU192      0.3649
    106  OE1       43.0330   87.3250   11.1030 O.co2 192  GLU192     -0.2457
    107  OE2       44.3160   88.0450    9.4540 O.co2 192  GLU192     -0.2457
    108  N         49.1090   86.1560   15.7510 N.3   194  TRP194     -0.1227
    109  CA        50.1690   85.9620   16.7190 C.3   194  TRP194      0.1737
    110  C         51.5030   86.5830   16.2620 C.2   194  TRP194      0.2596
    111  O         52.1010   87.3500   17.0030 O.2   194  TRP194     -0.2718
    112  CB        50.3480   84.4770   17.0150 C.3   194  TRP194      0.0564
    113  CG        51.3050   84.2310   18.0490 C.ar  194  TRP194      0.0003
    114  CD1       51.2140   84.6300   19.3200 C.ar  194  TRP194      0.0946
    115  CD2       52.5520   83.5470   17.9100 C.ar  194  TRP194      0.0152
    116  NE1       52.3290   84.2330   20.0180 N.ar  194  TRP194     -0.2442
    117  CE2       53.1770   83.5720   19.1740 C.ar  194  TRP194      0.0810
    118  CE3       53.2050   82.9030   16.8370 C.ar  194  TRP194      0.0012
    119  CZ2       54.4320   82.9680   19.4180 C.ar  194  TRP194      0.0191
    120  CZ3       54.4620   82.3040   17.0700 C.ar  194  TRP194      0.0001
    121  CH2       55.0520   82.3380   18.3550 C.ar  194  TRP194      0.0015
    122  N         51.9560   86.2830   15.0510 N.am  195  THR195     -0.1953
    123  CA        53.2700   86.7750   14.6400 C.3   195  THR195      0.1897
    124  C         53.2610   88.2990   14.4500 C.2   195  THR195      0.2313
    125  O         54.2280   88.9890   14.8250 O.2   195  THR195     -0.2863
    126  CB        53.7950   86.1160   13.3450 C.3   195  THR195      0.1794
    127  OG1       52.9870   86.5040   12.2280 O.3   195  THR195     -0.2208
    128  CG2       53.8210   84.5690   13.4680 C.3   195  THR195      0.0378
@<TRIPOS>BOND
     1    58    57    2
     2    57    56    1
     3    59    60    1
     4    59    56    1
     5    60    61    1
     6    56    55    1
     7    42    41    1
     8    61    63   ar
     9    61    62   ar
    10    55    46   am
    11    47    46    2
    12    46    45    1
    13    41    43    1
    14    41    38    1
    15    40    39    2
    16    29    30    1
    17    39    38    1
    18    39    44   am
    19    37    38    1
    20    37    31   am
    21    45    44    1
    22    45    48    1
    23   107   105   ar
    24    30    31    1
    25    30    33    1
    26    48    49    1
    27    31    32    2
    28    35    34    2
    29   105   104    1
    30   105   106   ar
    31   104   103    1
    32    33    34    1
    33    34    36   am
    34    49    50   ar
    35    49    51   ar
    36   103   100    1
    37    50    52   ar
    38   102   101    2
    39    51    53   ar
    40   127   126    1
    41   100   101    1
    42   100    99    1
    43   126   128    1
    44   126   123    1
    45    52    54   ar
    46    53    54   ar
    47    99    92   am
    48    21    20    2
    49    71    69    1
    50     8     6   ar
    51    93    92    2
    52   124   123    1
    53   124   125    2
    54    92    91    1
    55   123   122    1
    56    97    96   ar
    57    20    19    1
    58   122   110   am
    59    94    91    1
    60    94    95    1
    61    69    68    1
    62     6     5    1
    63     6     7   ar
    64    91    90    1
    65   108   109    1
    66    22    19    1
    67    22    23    1
    68     5     2    1
    69    68    70    1
    70    68    65    1
    71    96    95    1
    72    96    98   ar
    73    19    18    1
    74    18    16   am
    75   110   109    1
    76   110   111    2
    77    15    16    1
    78    15    14    1
    79    16    17    2
    80   109   112    1
    81   118   120   ar
    82   118   115   ar
    83   112   113    1
    84    25    23   ar
    85    25    27   ar
    86   120   121   ar
    87    23    24   ar
    88    79    78   ar
    89    89    88    1
    90    80    78   ar
    91    14    11   am
    92    65    64    1
    93    65    66    1
    94    78    77    1
    95     4     3    2
    96     2     3    1
    97     2     1    1
    98    77    76    1
    99   115   113   ar
   100   115   117   ar
   101     3     9   am
   102   113   114   ar
   103    66    67    2
   104    27    28   ar
   105   121   119   ar
   106    24    26   ar
   107    11    12    2
   108    11    10    1
   109    88    87    1
   110     9    10    1
   111   117   119   ar
   112   117   116   ar
   113    76    73    1
   114   114   116   ar
   115    87    86    1
   116    28    26   ar
   117    10    13    1
   118    73    72    1
   119    73    74    1
   120    86    85    1
   121    85    82    1
   122    74    75    2
   123    82    81    1
   124    82    83    1
   125    83    84    2
