@<TRIPOS>MOLECULE
tmp/4zfyB01.pdb
 94 88 0 0 0
SMALL
GASTEIGER

@<TRIPOS>ATOM
      1  N         55.8680  115.0480   19.8090 N.3    54  THR54      -0.1218
      2  CA        55.2510  116.3710   19.6900 C.3    54  THR54       0.1862
      3  C         53.7780  116.2250   19.3130 C.2    54  THR54       0.2287
      4  O         53.3710  115.2070   18.7420 O.2    54  THR54      -0.2866
      5  CB        55.9590  117.2510   18.6400 C.3    54  THR54       0.1770
      6  OG1       55.9090  116.6280   17.3480 O.3    54  THR54      -0.2211
      7  CG2       57.4090  117.4950   19.0290 C.3    54  THR54       0.0375
      8  N         52.6010  121.9720   20.7600 N.3    62  LEU62      -0.1231
      9  CA        51.9680  122.1720   22.0330 C.3    62  LEU62       0.1693
     10  C         53.0560  122.0630   23.0340 C.2    62  LEU62       0.2592
     11  O         53.8760  121.2120   22.9260 O.2    62  LEU62      -0.2718
     12  CB        50.9340  121.0720   22.2520 C.3    62  LEU62       0.0284
     13  CG        50.0190  121.1760   23.4490 C.3    62  LEU62       0.0019
     14  CD1       48.9170  122.1440   23.1320 C.3    62  LEU62       0.0001
     15  CD2       49.4310  119.8340   23.7540 C.3    62  LEU62       0.0001
     16  N         53.0570  122.9330   24.0130 N.am   63  ALA63      -0.1966
     17  CA        54.1050  122.9750   25.0420 C.3    63  ALA63       0.1728
     18  C         53.6830  123.7070   26.3150 C.2    63  ALA63       0.2616
     19  O         52.9240  124.6740   26.2620 O.2    63  ALA63      -0.2715
     20  CB        55.3630  123.6200   24.4760 C.3    63  ALA63       0.0334
     21  N         54.2030  123.2480   27.4520 N.am   64  THR64      -0.1951
     22  CA        53.9960  123.9210   28.7330 C.3    64  THR64       0.1897
     23  C         54.8340  125.2120   28.7580 C.2    64  THR64       0.2313
     24  O         55.8960  125.2790   28.1340 O.2    64  THR64      -0.2863
     25  CB        54.3190  122.9800   29.9240 C.3    64  THR64       0.1794
     26  OG1       53.6840  123.4640   31.1130 O.3    64  THR64      -0.2208
     27  CG2       55.8240  122.8430   30.1660 C.3    64  THR64       0.0378
     28  N         56.0090  127.1760   31.5910 N.3    66  ALA66      -0.1231
     29  CA        57.0190  127.3080   32.6400 C.3    66  ALA66       0.1694
     30  C         57.4290  125.9520   33.2000 C.2    66  ALA66       0.2591
     31  O         56.8060  124.9260   32.9070 O.2    66  ALA66      -0.2718
     32  CB        56.4900  128.1920   33.7570 C.3    66  ALA66       0.0304
     33  N         58.4850  125.9700   34.0100 N.am   67  LEU67      -0.1980
     34  CA        58.9920  124.7730   34.6830 C.3    67  LEU67       0.1596
     35  C         58.1100  124.3870   35.8730 C.2    67  LEU67       0.2287
     36  O         57.7830  123.2120   36.0450 O.2    67  LEU67      -0.2864
     37  CB        60.4440  124.9870   35.1370 C.3    67  LEU67       0.0297
     38  CG        61.1710  123.8360   35.8470 C.3    67  LEU67       0.0022
     39  CD1       61.1080  122.5460   35.0410 C.3    67  LEU67       0.0001
     40  CD2       62.6180  124.2190   36.1230 C.3    67  LEU67       0.0001
     41  N         61.6170  122.9900   20.2110 N.3    81  LEU81      -0.1245
     42  CA        61.4670  121.7030   20.9070 C.3    81  LEU81       0.1561
     43  C         61.8710  120.4740   20.0720 C.2    81  LEU81       0.2260
     44  O         61.1640  119.4590   20.0850 O.2    81  LEU81      -0.2867
     45  CB        60.0060  121.5320   21.3450 C.3    81  LEU81       0.0270
     46  CG        59.3400  122.6360   22.1640 C.3    81  LEU81       0.0019
     47  CD1       57.8660  122.3090   22.3860 C.3    81  LEU81       0.0001
     48  CD2       60.0630  122.8260   23.4870 C.3    81  LEU81       0.0001
     49  N         63.9550  118.1340   22.8370 N.3    84  ASP84      -0.1239
     50  CA        63.1510  117.9710   24.0400 C.3    84  ASP84       0.1674
     51  C         62.3560  116.6780   23.8660 C.2    84  ASP84       0.2266
     52  O         61.8570  116.3990   22.7720 O.2    84  ASP84      -0.2867
     53  CB        62.1990  119.1570   24.2130 C.3    84  ASP84       0.1410
     54  CG        61.2170  118.9570   25.3540 C.2    84  ASP84       0.3668
     55  OD1       61.6650  118.7930   26.5100 O.co2  84  ASP84      -0.2456
     56  OD2       59.9950  118.9450   25.0910 O.co2  84  ASP84      -0.2456
     57  N         59.4700  115.7940   25.0790 N.3    86  GLY86      -0.1210
     58  CA        58.0820  116.0670   24.7090 C.3    86  GLY86       0.1956
     59  C         57.0470  115.5300   25.6790 C.2    86  GLY86       0.2611
     60  O         57.2880  115.4730   26.8870 O.2    86  GLY86      -0.2717
     61  N         55.8890  115.1490   25.1380 N.am   87  TRP87      -0.1976
     62  CA        54.7700  114.6410   25.9330 C.3    87  TRP87       0.1640
     63  C         54.7570  113.1130   25.9820 C.2    87  TRP87       0.2290
     64  O         55.0450  112.4650   24.9790 O.2    87  TRP87      -0.2864
     65  CB        53.4340  115.0950   25.3350 C.3    87  TRP87       0.0576
     66  CG        53.2200  116.5680   25.3180 C.ar   87  TRP87       0.0006
     67  CD1       53.5430  117.4300   24.3120 C.ar   87  TRP87       0.0946
     68  CD2       52.6110  117.3560   26.3460 C.ar   87  TRP87       0.0152
     69  NE1       53.1810  118.7090   24.6520 N.ar   87  TRP87      -0.2442
     70  CE2       52.6080  118.6950   25.8970 C.ar   87  TRP87       0.0810
     71  CE3       52.0720  117.0630   27.6060 C.ar   87  TRP87       0.0012
     72  CZ2       52.0860  119.7450   26.6650 C.ar   87  TRP87       0.0191
     73  CZ3       51.5530  118.1050   28.3720 C.ar   87  TRP87       0.0001
     74  CH2       51.5640  119.4310   27.8960 C.ar   87  TRP87       0.0015
     75  N         54.1980  116.3270   30.5420 N.3    97  ASN97      -0.1240
     76  CA        55.5100  116.7760   30.0760 C.3    97  ASN97       0.1653
     77  C         56.5680  115.8460   30.6740 C.2    97  ASN97       0.2266
     78  O         56.6120  115.6740   31.8890 O.2    97  ASN97      -0.2867
     79  CB        55.7330  118.2360   30.5040 C.3    97  ASN97       0.1155
     80  CG        57.1210  118.7670   30.1620 C.2    97  ASN97       0.2627
     81  OD1       58.1330  118.2060   30.5860 O.2    97  ASN97      -0.2716
     82  ND2       57.1710  119.8730   29.4090 N.am   97  ASN97      -0.0877
     83  N         60.1210  115.7910   31.0150 N.3    99  SER99      -0.1202
     84  CA        61.1630  116.3190   31.9110 C.3    99  SER99       0.2020
     85  C         60.6130  117.0290   33.1550 C.2    99  SER99       0.2619
     86  O         61.2040  116.9440   34.2310 O.2    99  SER99      -0.2717
     87  CB        62.1100  117.2510   31.1420 C.3    99  SER99       0.2103
     88  OG        61.3920  118.1560   30.3240 O.3    99  SER99      -0.2182
     89  N         59.4820  117.7110   33.0030 N.am  100  SER100     -0.1951
     90  CA        58.8770  118.4840   34.0880 C.3   100  SER100      0.1924
     91  C         57.8910  117.6870   34.9450 C.2   100  SER100      0.2314
     92  O         57.7010  118.0120   36.1140 O.2   100  SER100     -0.2863
     93  CB        58.1580  119.7040   33.5130 C.3   100  SER100      0.2116
     94  OG        57.6870  120.5450   34.5470 O.3   100  SER100     -0.2180
@<TRIPOS>BOND
     1     6     5    1
     2     5     7    1
     3     5     2    1
     4     4     3    2
     5     3     2    1
     6     2     1    1
     7    43    44    2
     8    43    42    1
     9    41    42    1
    10     8     9    1
    11    42    45    1
    12    45    46    1
    13     9    12    1
    14     9    10    1
    15    46    47    1
    16    46    48    1
    17    12    13    1
    18    52    51    2
    19    49    50    1
    20    11    10    2
    21    10    16   am
    22    14    13    1
    23    13    15    1
    24    51    50    1
    25    16    17    1
    26    50    53    1
    27    53    54    1
    28    67    69   ar
    29    67    66   ar
    30    20    17    1
    31    69    70   ar
    32    58    57    1
    33    58    59    1
    34    64    63    2
    35    17    18    1
    36    56    54   ar
    37    61    59   am
    38    61    62    1
    39    66    65    1
    40    66    68   ar
    41    65    62    1
    42    54    55   ar
    43    59    60    2
    44    70    68   ar
    45    70    72   ar
    46    62    63    1
    47    19    18    2
    48    18    21   am
    49    68    71   ar
    50    72    74   ar
    51    21    22    1
    52    71    73   ar
    53    74    73   ar
    54    24    23    2
    55    22    23    1
    56    22    25    1
    57    82    80   am
    58    25    27    1
    59    25    26    1
    60    76    79    1
    61    76    75    1
    62    76    77    1
    63    80    79    1
    64    80    81    2
    65    88    87    1
    66    77    78    2
    67    83    84    1
    68    87    84    1
    69    28    29    1
    70    84    85    1
    71    29    30    1
    72    29    32    1
    73    31    30    2
    74    89    85   am
    75    89    90    1
    76    85    86    2
    77    30    33   am
    78    93    90    1
    79    93    94    1
    80    33    34    1
    81    90    91    1
    82    34    37    1
    83    34    35    1
    84    91    92    2
    85    39    38    1
    86    37    38    1
    87    38    40    1
    88    35    36    2
