@<TRIPOS>MOLECULE
tmp/4zfzG01.pdb
 154 146 0 0 0
SMALL
GASTEIGER

@<TRIPOS>ATOM
      1  N         47.8500  -10.3030   55.7820 N.3     8  TYR8       -0.1241
      2  CA        46.7420  -10.9980   55.1570 C.3     8  TYR8        0.1605
      3  C         46.7670  -12.4350   55.6500 C.2     8  TYR8        0.2264
      4  O         47.8330  -13.0580   55.7000 O.2     8  TYR8       -0.2867
      5  CB        46.8310  -10.9500   53.6280 C.3     8  TYR8        0.0534
      6  CG        46.4820   -9.5980   53.0510 C.ar    8  TYR8       -0.0201
      7  CD1       45.1720   -9.2880   52.7000 C.ar    8  TYR8       -0.0009
      8  CD2       47.4650   -8.6360   52.8400 C.ar    8  TYR8       -0.0009
      9  CE1       44.8480   -8.0390   52.1510 C.ar    8  TYR8        0.0417
     10  CE2       47.1530   -7.3950   52.3070 C.ar    8  TYR8        0.0417
     11  CZ        45.8430   -7.1100   51.9540 C.ar    8  TYR8        0.1957
     12  OH        45.5390   -5.8800   51.4150 O.3     8  TYR8       -0.2866
     13  N         44.9290  -16.0640   54.9530 N.3    10  SER10      -0.1217
     14  CA        44.0230  -16.8110   54.0770 C.3    10  SER10       0.1889
     15  C         43.8480  -18.2370   54.5670 C.2    10  SER10       0.2288
     16  O         44.7710  -18.8270   55.1160 O.2    10  SER10      -0.2866
     17  CB        44.5130  -16.8320   52.6200 C.3    10  SER10       0.2089
     18  OG        45.5960  -17.7280   52.4360 O.3    10  SER10      -0.2183
     19  N         37.4740  -20.5420   50.1120 N.3    23  PHE23      -0.1241
     20  CA        38.6120  -19.6580   50.2610 C.3    23  PHE23       0.1605
     21  C         38.1820  -18.3780   50.9680 C.2    23  PHE23       0.2264
     22  O         37.2730  -17.6890   50.5010 O.2    23  PHE23      -0.2867
     23  CB        39.2090  -19.3630   48.9010 C.3    23  PHE23       0.0534
     24  CG        40.4300  -18.5140   48.9480 C.ar   23  PHE23      -0.0203
     25  CD1       41.5780  -18.9660   49.5720 C.ar   23  PHE23      -0.0042
     26  CD2       40.4490  -17.2830   48.3350 C.ar   23  PHE23      -0.0042
     27  CE1       42.7220  -18.1980   49.6010 C.ar   23  PHE23      -0.0003
     28  CE2       41.5900  -16.5110   48.3630 C.ar   23  PHE23      -0.0003
     29  CZ        42.7340  -16.9780   48.9950 C.ar   23  PHE23      -0.0000
     30  N         39.7940  -14.8140   52.8780 N.3    25  VAL25      -0.1245
     31  CA        40.9560  -14.0000   53.2190 C.3    25  VAL25       0.1561
     32  C         40.5160  -12.8310   54.0820 C.2    25  VAL25       0.2260
     33  O         39.4880  -12.2380   53.8130 O.2    25  VAL25      -0.2867
     34  CB        41.6660  -13.4340   51.9960 C.3    25  VAL25       0.0252
     35  CG1       42.9880  -12.7980   52.4160 C.3    25  VAL25       0.0019
     36  CG2       41.9170  -14.5100   51.0020 C.3    25  VAL25       0.0019
     37  N         36.7360   -8.7470   46.9290 N.3    46  MET46      -0.1245
     38  CA        37.3600   -8.1550   48.0950 C.3    46  MET46       0.1570
     39  C         36.4550   -6.9890   48.5270 C.2    46  MET46       0.2261
     40  O         35.9590   -6.2510   47.6830 O.2    46  MET46      -0.2867
     41  CB        38.7840   -7.7050   47.7940 C.3    46  MET46       0.0387
     42  CG        39.5860   -7.3440   49.0530 C.3    46  MET46       0.0595
     43  SD        40.1640   -8.8420   49.9020 S.3    46  MET46      -0.1393
     44  CE        41.8820   -8.7500   49.4550 C.3    46  MET46       0.0692
     45  N         42.2820   -5.9270   43.7850 N.3    64  GLN64      -0.1245
     46  CA        42.3900   -6.7940   44.9500 C.3    64  GLN64       0.1566
     47  C         41.6620   -8.1210   44.7010 C.2    64  GLN64       0.2260
     48  O         42.1770   -9.1980   45.0280 O.2    64  GLN64      -0.2867
     49  CB        41.8430   -6.0890   46.1980 C.3    64  GLN64       0.0367
     50  CG        42.6620   -4.8780   46.5950 C.3    64  GLN64       0.0905
     51  CD        44.1310   -5.2040   46.8130 C.2    64  GLN64       0.2608
     52  OE1       44.4940   -5.8630   47.7920 O.2    64  GLN64      -0.2717
     53  NE2       44.9820   -4.7360   45.9100 N.am   64  GLN64      -0.0878
     54  N         43.6110  -10.3770   42.4190 N.3    67  ARG67      -0.1231
     55  CA        44.7580  -10.9900   43.0770 C.3    67  ARG67       0.1694
     56  C         44.3270  -12.1190   43.9980 C.2    67  ARG67       0.2591
     57  O         45.0270  -13.1300   44.1110 O.2    67  ARG67      -0.2718
     58  CB        45.5660   -9.9600   43.8590 C.3    67  ARG67       0.0321
     59  CG        46.3640   -9.0150   42.9790 C.3    67  ARG67       0.0489
     60  CD        47.1580   -8.0560   43.8410 C.3    67  ARG67       0.2205
     61  NE        47.7180   -6.9590   43.0640 N.pl3  67  ARG67      -0.0865
     62  CZ        48.3740   -5.9360   43.5970 C.cat  67  ARG67       0.5346
     63  NH1       48.5460   -5.8680   44.9150 N.pl3  67  ARG67       0.1354
     64  NH2       48.8530   -4.9770   42.8140 N.pl3  67  ARG67       0.1354
     65  N         43.1690  -11.9790   44.6320 N.am   68  VAL68      -0.1980
     66  CA        42.7330  -13.0410   45.5370 C.3    68  VAL68       0.1595
     67  C         42.1450  -14.2240   44.7650 C.2    68  VAL68       0.2287
     68  O         42.3030  -15.3780   45.1680 O.2    68  VAL68      -0.2864
     69  CB        41.7180  -12.5300   46.5960 C.3    68  VAL68       0.0276
     70  CG1       42.3470  -11.4400   47.3970 C.3    68  VAL68       0.0022
     71  CG2       40.4360  -12.0580   45.9670 C.3    68  VAL68       0.0022
     72  N         45.1890  -16.0880   43.7440 N.3    71  ALA71      -0.1245
     73  CA        45.6740  -16.8340   44.8980 C.3    71  ALA71       0.1562
     74  C         44.8230  -18.0760   45.1130 C.2    71  ALA71       0.2260
     75  O         45.3540  -19.1720   45.2990 O.2    71  ALA71      -0.2867
     76  CB        45.6710  -15.9520   46.1510 C.3    71  ALA71       0.0290
     77  N         46.1220  -21.8900   45.3500 N.3    75  PHE75      -0.1241
     78  CA        46.0020  -22.6760   46.5850 C.3    75  PHE75       0.1605
     79  C         45.1570  -23.9370   46.4030 C.2    75  PHE75       0.2264
     80  O         45.3380  -24.9330   47.1160 O.2    75  PHE75      -0.2867
     81  CB        45.4220  -21.8100   47.7020 C.3    75  PHE75       0.0534
     82  CG        46.2980  -20.6470   48.0790 C.ar   75  PHE75      -0.0203
     83  CD1       47.6670  -20.6800   47.8350 C.ar   75  PHE75      -0.0042
     84  CD2       45.7580  -19.5200   48.6830 C.ar   75  PHE75      -0.0042
     85  CE1       48.4850  -19.6040   48.1820 C.ar   75  PHE75      -0.0003
     86  CE2       46.5630  -18.4340   49.0270 C.ar   75  PHE75      -0.0003
     87  CZ        47.9250  -18.4740   48.7870 C.ar   75  PHE75      -0.0000
     88  N         47.6960  -19.3500   54.8520 N.3    98  THR98      -0.1218
     89  CA        48.8790  -18.5580   54.5540 C.3    98  THR98       0.1862
     90  C         48.8130  -17.2520   55.3220 C.2    98  THR98       0.2287
     91  O         47.7310  -16.7330   55.6000 O.2    98  THR98      -0.2866
     92  CB        49.0350  -18.2420   53.0340 C.3    98  THR98       0.1770
     93  OG1       48.0600  -17.2690   52.6310 O.3    98  THR98      -0.2211
     94  CG2       48.8610  -19.4950   52.1970 C.3    98  THR98       0.0375
     95  N         50.8230  -13.3940   55.0870 N.3   100  SER100     -0.1217
     96  CA        51.7910  -12.5770   54.3860 C.3   100  SER100      0.1889
     97  C         51.6560  -11.1550   54.8690 C.2   100  SER100      0.2288
     98  O         50.6200  -10.7830   55.3890 O.2   100  SER100     -0.2866
     99  CB        51.5830  -12.6590   52.8740 C.3   100  SER100      0.2089
    100  OG        50.2800  -12.2410   52.5010 O.3   100  SER100     -0.2183
    101  N         56.0060  -14.2850   54.3960 N.3   115  TYR115     -0.1241
    102  CA        55.1340  -15.1710   53.6360 C.3   115  TYR115      0.1605
    103  C         55.3230  -16.5780   54.1510 C.2   115  TYR115      0.2264
    104  O         56.4070  -17.1500   54.0090 O.2   115  TYR115     -0.2867
    105  CB        55.4140  -15.1370   52.1280 C.3   115  TYR115      0.0534
    106  CG        54.4860  -16.0430   51.3420 C.ar  115  TYR115     -0.0201
    107  CD1       53.1090  -15.9280   51.4670 C.ar  115  TYR115     -0.0009
    108  CD2       54.9810  -17.0030   50.4620 C.ar  115  TYR115     -0.0009
    109  CE1       52.2410  -16.7520   50.7480 C.ar  115  TYR115      0.0417
    110  CE2       54.1190  -17.8250   49.7290 C.ar  115  TYR115      0.0417
    111  CZ        52.7520  -17.6970   49.8780 C.ar  115  TYR115      0.1957
    112  OH        51.8800  -18.4990   49.1600 O.3   115  TYR115     -0.2866
    113  N         60.5710  -17.1930   43.0770 N.3   153  VAL153     -0.1245
    114  CA        59.4670  -16.6910   43.9010 C.3   153  VAL153      0.1561
    115  C         59.9260  -15.7710   45.0420 C.2   153  VAL153      0.2260
    116  O         59.2390  -14.7960   45.3620 O.2   153  VAL153     -0.2867
    117  CB        58.6410  -17.8790   44.4800 C.3   153  VAL153      0.0252
    118  CG1       57.6660  -17.4160   45.5680 C.3   153  VAL153      0.0019
    119  CG2       57.8890  -18.5840   43.3580 C.3   153  VAL153      0.0019
    120  N         60.1920  -12.2900   43.7350 N.3   156  GLN156     -0.1231
    121  CA        58.8940  -11.6720   43.5090 C.3   156  GLN156      0.1698
    122  C         58.2830  -11.1580   44.8220 C.2   156  GLN156      0.2592
    123  O         57.6380  -10.1040   44.8500 O.2   156  GLN156     -0.2718
    124  CB        57.9470  -12.6600   42.8390 C.3   156  GLN156      0.0381
    125  CG        58.3970  -13.1080   41.4610 C.3   156  GLN156      0.0905
    126  CD        57.5530  -14.2470   40.9160 C.2   156  GLN156      0.2608
    127  OE1       57.7010  -15.4000   41.3270 O.2   156  GLN156     -0.2717
    128  NE2       56.6540  -13.9260   39.9920 N.am  156  GLN156     -0.0878
    129  N         58.4890  -11.8980   45.9070 N.am  157  TRP157     -0.1976
    130  CA        57.9690  -11.4700   47.2050 C.3   157  TRP157      0.1640
    131  C         58.7570  -10.2930   47.7560 C.2   157  TRP157      0.2290
    132  O         58.1720   -9.3670   48.3240 O.2   157  TRP157     -0.2864
    133  CB        57.9680  -12.6230   48.2140 C.3   157  TRP157      0.0576
    134  CG        56.7300  -13.4490   48.1080 C.ar  157  TRP157      0.0006
    135  CD1       56.6040  -14.6590   47.4910 C.ar  157  TRP157      0.0946
    136  CD2       55.4250  -13.1120   48.6020 C.ar  157  TRP157      0.0152
    137  NE1       55.3070  -15.0990   47.5770 N.ar  157  TRP157     -0.2442
    138  CE2       54.5640  -14.1690   48.2560 C.ar  157  TRP157      0.0810
    139  CE3       54.9060  -12.0210   49.3090 C.ar  157  TRP157      0.0012
    140  CZ2       53.2090  -14.1690   48.5920 C.ar  157  TRP157      0.0191
    141  CZ3       53.5590  -12.0230   49.6410 C.ar  157  TRP157      0.0001
    142  CH2       52.7280  -13.0910   49.2870 C.ar  157  TRP157      0.0015
    143  N         57.5040   -7.0910   46.2050 N.3   160  TYR160     -0.1241
    144  CA        56.2260   -6.6860   46.7730 C.3   160  TYR160      0.1605
    145  C         56.4010   -6.1650   48.1960 C.2   160  TYR160      0.2264
    146  O         55.8790   -5.0980   48.5510 O.2   160  TYR160     -0.2867
    147  CB        55.2350   -7.8610   46.7610 C.3   160  TYR160      0.0534
    148  CG        54.0530   -7.6660   47.6880 C.ar  160  TYR160     -0.0201
    149  CD1       52.9860   -6.8370   47.3360 C.ar  160  TYR160     -0.0009
    150  CD2       54.0170   -8.2920   48.9320 C.ar  160  TYR160     -0.0009
    151  CE1       51.9050   -6.6630   48.1940 C.ar  160  TYR160      0.0417
    152  CE2       52.9540   -8.1190   49.7880 C.ar  160  TYR160      0.0417
    153  CZ        51.9030   -7.3040   49.4210 C.ar  160  TYR160      0.1957
    154  OH        50.8490   -7.1410   50.2940 O.3   160  TYR160     -0.2866
@<TRIPOS>BOND
     1   128   126   am
     2   126   127    2
     3   126   125    1
     4   125   124    1
     5    54    55    1
     6    64    62    1
     7   124   121    1
     8    59    60    1
     9    59    58    1
    10    61    62    2
    11    61    60    1
    12   113   114    1
    13    55    58    1
    14    55    56    1
    15   119   117    1
    16   121   120    1
    17   121   122    1
    18    62    63    1
    19    72    73    1
    20    45    46    1
    21   114   117    1
    22   114   115    1
    23    56    57    2
    24    56    65   am
    25   117   118    1
    26    65    66    1
    27    47    46    1
    28    47    48    2
    29    67    68    2
    30    67    66    1
    31   122   123    2
    32   122   129   am
    33    73    74    1
    34    73    76    1
    35    46    49    1
    36   115   116    2
    37    74    75    2
    38    77    78    1
    39    66    69    1
    40   129   130    1
    41    53    51   am
    42    71    69    1
    43    49    50    1
    44   143   144    1
    45    79    78    1
    46    79    80    2
    47    78    81    1
    48    50    51    1
    49    69    70    1
    50   147   144    1
    51   147   148    1
    52   144   145    1
    53    51    52    2
    54    37    38    1
    55   130   131    1
    56   130   133    1
    57   149   148   ar
    58   149   151   ar
    59   135   137   ar
    60   135   134   ar
    61   137   138   ar
    62    40    39    2
    63   148   150   ar
    64    81    82    1
    65   131   132    2
    66    41    38    1
    67    41    42    1
    68    83    82   ar
    69    83    85   ar
    70    82    84   ar
    71    38    39    1
    72   134   133    1
    73   134   136   ar
    74    85    87   ar
    75   151   153   ar
    76   145   146    2
    77   138   140   ar
    78   138   136   ar
    79    26    28   ar
    80    26    24   ar
    81    28    29   ar
    82   140   142   ar
    83   136   139   ar
    84    84    86   ar
    85    87    86   ar
    86    23    24    1
    87    23    20    1
    88   150   152   ar
    89    24    25   ar
    90    29    27   ar
    91    42    43    1
    92   112   111    1
    93   142   141   ar
    94   139   141   ar
    95   153   152   ar
    96   153   154    1
    97    44    43    1
    98    25    27   ar
    99   110   111   ar
   100   110   108   ar
   101   111   109   ar
   102    19    20    1
   103    20    21    1
   104   108   106   ar
   105    22    21    2
   106   109   107   ar
   107    36    34    1
   108   106   107   ar
   109   106   105    1
   110    12    11    1
   111    11     9   ar
   112    11    10   ar
   113    34    35    1
   114    34    31    1
   115   105   102    1
   116     9     7   ar
   117    94    92    1
   118    10     8   ar
   119    18    17    1
   120   100    99    1
   121    17    14    1
   122    93    92    1
   123     7     6   ar
   124     8     6   ar
   125    99    96    1
   126    30    31    1
   127    92    89    1
   128     6     5    1
   129    31    32    1
   130     5     2    1
   131   102   103    1
   132   102   101    1
   133    33    32    2
   134   104   103    2
   135    14    15    1
   136    14    13    1
   137    96    97    1
   138    96    95    1
   139    89    88    1
   140    89    90    1
   141    15    16    2
   142    97    98    2
   143     2     3    1
   144     2     1    1
   145    90    91    2
   146     3     4    2
